data_mof_unit_25006.cif
_audit_creation_date              2013-03-05T15:41:23-0500
_audit_creation_method            fapswitch 2.2
_symmetry_space_group_name_H-M    P1
_symmetry_Int_Tables_number       1
_space_group_crystal_system       triclinic
_cell_length_a                    7.796467
_cell_length_b                    8.559859
_cell_length_c                    10.645396
_cell_angle_alpha                 91.70581
_cell_angle_beta                  84.712147
_cell_angle_gamma                 94.004651
_cell_volume                      705.492784895

loop_
_atom_site_label
_atom_site_type_symbol
_atom_site_description
_atom_site_fract_x
_atom_site_fract_y
_atom_site_fract_z
_atom_type_partial_charge
O1    O     O_R   0.389250 0.738570 0.508370 -0.640087
O2    O     O_R   0.678390 0.711620 0.486510 -0.653886
C1    C     C_R   0.545936 0.794723 0.497209 0.935990
O3    O     O_R   0.355430 0.513500 0.696140 -0.604335
O4    O     O_R   0.644580 0.486550 0.674270 -0.580820
C2    C     C_R   0.500647 0.497568 0.741885 0.841905
Zn1   Zn    Zn3+2 0.306940 0.517990 0.514600 0.988132
Zn2   Zn    Zn3+2 0.693060 0.482010 0.485400 1.008087
O5    O     O_R   0.321610 0.288380 0.513490 -0.623829
O6    O     O_R   0.610750 0.261430 0.491630 -0.606663
O7    O     O_R   0.355420 0.513450 0.325730 -0.629384
O8    O     O_R   0.644570 0.486500 0.303860 -0.608159
C3    C     C_R   0.454077 0.205284 0.503679 0.964761
C4    C     C_R   0.501135 0.503440 0.257877 0.839144
C5    C     C_3   0.435171 0.657467 0.934600 -0.232211
H1    H     H_    0.297429 0.659742 0.914704 0.180787
C6    C     C_3   0.437073 0.660062 0.079641 -0.415803
H2    H     H_    0.515214 0.763203 0.114481 0.171917
H3    H     H_    0.303279 0.671542 0.123655 0.227099
H4    H     H_    0.245594 0.382088 0.913766 0.228997
H5    H     H_    0.254730 0.368336 0.124342 0.221918
C7    C     C_3   0.380550 0.365003 0.934106 -0.357080
C8    C     C_3   0.693414 0.482494 0.914722 0.120680
C9    C     C_3   0.504544 0.499978 0.878039 -0.035618
H6    H     H_    0.775089 0.583813 0.874403 0.188431
C10   C     C_3   0.505893 0.505663 0.121068 0.013834
C11   C     C_3   0.388096 0.363987 0.077461 -0.400776
C12   C     C_3   0.694847 0.488268 0.058477 -0.230355
H7    H     H_    0.737474 0.375009 0.089580 0.216230
H8    H     H_    0.410964 0.249540 0.890737 0.214302
H9    H     H_    0.438504 0.252204 0.104110 0.185503
C13   C     C_2   0.569972 0.958479 0.496138 -0.345362
H10   H     H_    0.701906 0.010060 0.486500 0.187228
C14   C     C_2   0.430083 0.041553 0.506370 -0.374099
H11   H     H_    0.298160 0.989946 0.516254 0.178767
N1    N     N_2   0.950330 0.457950 0.465890 -0.171554
H12   H     H_    0.007817 0.364353 0.420949 0.193596
N2    N     N_2   0.049670 0.542050 0.534110 -0.124880
C15   C     C_2   0.991640 0.686942 0.580577 0.732171
H13   H     H_    0.973405 0.778080 0.515494 -0.008390
O9    O     O_2   0.978197 0.715464 0.693803 -0.586533
C16   C     C_2   0.525053 0.803251 0.874641 0.404900
H14   H     H_    0.462135 0.863246 0.805020 0.090298
O10   O     O_2   0.668626 0.852638 0.900143 -0.526434
N3    N     N_R   0.770319 0.339460 0.861590 0.217842
O11   O     O_R   0.710116 0.201090 0.898373 -0.381306
O12   O     O_R   0.913688 0.351623 0.788505 -0.362191
C17   C     C_2   0.826686 0.615667 0.097546 0.411185
H15   H     H_    0.809501 0.738004 0.082942 0.128730
O13   O     O_2   0.955226 0.581149 0.145038 -0.592679

loop_
_geom_bond_atom_site_label_1
_geom_bond_atom_site_label_2
_geom_bond_distance
_ccdc_geom_bond_type
O4    Zn2   2.011019 S    
C8    C9    1.575892 S    
C5    C6    1.544941 S    
C8    N3    1.475555 S    
C10   C12   1.574864 S    
Zn2   O8    2.005075 S    
C2    C9    1.452028 S    
C13   H10   1.087816 S    
C17   O13   1.221012 D    
C6    H2    1.111401 S    
H5    C11   1.113670 S    
C3    C14   1.401731 S    
C15   O9    1.219100 D    
O1    Zn1   1.952341 S    
C8    C12   1.530707 S    
C4    C10   1.454100 S    
Zn1   O7    2.011018 S    
C12   H7    1.115514 S    
C10   C11   1.555363 S    
C1    C13   1.401412 S    
C16   O10   1.220033 D    
O3    Zn1   2.005076 S    
C17   H15   1.082513 S    
C6    C10   1.551271 S    
N1    N2    1.280690 D    
C5    C9    1.570321 S    
C6    H3    1.113000 S    
Zn1   N2    2.021668 S    
O8    C4    1.280224 A    
O2    C1    1.288994 A    
C7    C11   1.532915 S    
N3    O12   1.301478 A    
O4    C2    1.283788 A    
O7    C4    1.295523 A    
C7    C9    1.550599 S    
O3    C2    1.290241 A    
C16   H14   1.085591 S    
C11   H9    1.113432 S    
C5    H1    1.115162 S    
C8    H6    1.111988 S    
N2    C15   1.410036 S    
N1    H12   1.029301 S    
C14   H11   1.087873 S    
Zn2   N1    2.021668 S    
C15   H13   1.083818 S    
Zn1   O5    1.976335 S    
O5    C3    1.289092 A    
C12   C17   1.521169 S    
C7    H8    1.109774 S    
N3    O11   1.300996 A    
Zn2   O6    1.952340 S    
O2    Zn2   1.976335 S    
C5    C16   1.516094 S    
H4    C7    1.113878 S    
O1    C1    1.277534 A    
O6    C3    1.277604 A    
C13   C14   1.337470 D    
