data_mof_unit_44495.cif
_audit_creation_date              2012-12-10T20:39:55-0500
_audit_creation_method            fapswitch 2.2
_symmetry_space_group_name_H-M    P1
_symmetry_Int_Tables_number       1
_space_group_crystal_system       triclinic
_cell_length_a                    23.3608
_cell_length_b                    10.702302
_cell_length_c                    9.852859
_cell_angle_alpha                 90.342132
_cell_angle_beta                  90.016023
_cell_angle_gamma                 90.161584
_cell_volume                      2463.30218449

loop_
_atom_site_label
_atom_site_type_symbol
_atom_type_description
_atom_site_fract_x
_atom_site_fract_y
_atom_site_fract_z
_atom_type_partial_charge
C1    C     C_R   0.501125 0.260077 0.499672 0.976956
C2    C     C_R   0.119925 0.613674 0.414652 0.509350
C3    C     C_R   0.241253 0.583933 0.612364 -0.081486
C4    C     C_R   0.389340 0.501362 0.500183 0.888166
C5    C     C_R   0.300316 0.571425 0.611089 -0.216457
C6    C     C_R   0.327317 0.511700 0.501517 -0.040032
C7    C     C_R   0.294795 0.465119 0.392929 -0.209517
C8    C     C_R   0.235579 0.476702 0.394877 -0.087276
C9    C     C_R   0.208798 0.535945 0.504735 0.299342
C10   C     C_R   0.765872 0.461475 0.403525 -0.132060
C11   C     C_R   0.706718 0.441836 0.402296 -0.069264
C12   C     C_R   0.969470 0.417525 0.712381 -0.148412
C13   C     C_R   0.672853 0.504454 0.500742 -0.119803
C14   C     C_R   0.698758 0.581156 0.599258 -0.195050
C15   C     C_R   0.757546 0.597607 0.600222 -0.066559
C16   C     C_R   0.501944 0.739970 0.500224 0.884712
C17   C     C_R   0.790983 0.538004 0.502467 0.276847
C18   C     C_R   0.515973 0.063991 0.619195 0.048371
C19   C     C_R   0.508340 0.128732 0.498464 -0.055013
C20   C     C_R   0.511048 0.063893 0.374572 -0.141345
C21   C     C_R   0.511704 0.934813 0.374897 -0.177790
C22   C     C_R   0.510651 0.871235 0.499219 -0.105349
C23   C     C_R   0.029017 0.416112 0.711851 -0.152116
C24   C     C_R   0.519750 0.937433 0.619354 0.066318
C25   C     C_3   0.496701 0.927088 0.761336 -0.325427
C26   C     C_3   0.491655 0.071352 0.760926 -0.194665
C27   C     C_R   0.459582 0.433687 0.070689 0.255484
C28   C     C_R   0.610629 0.498344 0.499968 0.929332
C29   C     C_R   0.543674 0.552695 0.072421 -0.103220
C30   C     C_R   0.543779 0.552247 0.928349 -0.073555
C31   C     C_R   0.459423 0.434348 0.928139 0.236213
C32   C     C_3   0.396412 0.454223 0.922670 -0.480299
C33   C     C_3   0.396425 0.451931 0.076554 -0.493881
C34   C     C_R   0.059530 0.482032 0.612494 -0.015116
C35   C     C_R   0.880093 0.616077 0.414054 0.519765
C36   C     C_R   0.879772 0.483463 0.608725 0.516089
C37   C     C_R   0.939473 0.484573 0.613317 -0.020209
C38   C     C_R   0.969693 0.552631 0.514405 -0.019815
C39   C     C_R   0.939905 0.620145 0.414510 -0.020862
C40   C     C_2   0.682885 0.351116 0.302237 0.928647
C41   C     C_2   0.539465 0.874352 0.860745 0.988330
C42   C     C_2   0.429720 0.112979 0.770168 0.895332
C43   C     C_2   0.530315 0.142124 0.859212 0.932869
C44   C     C_R   0.029842 0.551571 0.514194 -0.019477
C45   C     C_R   0.060140 0.618568 0.414573 -0.016414
C46   C     C_R   0.030100 0.687453 0.316976 -0.151722
C47   C     C_R   0.970472 0.688095 0.316831 -0.148982
C48   C     C_R   0.119212 0.478741 0.607426 0.508728
H1    H     H_    0.947084 0.364879 0.789588 0.197845
H2    H     H_    0.374249 0.368607 0.118224 0.218117
H3    H     H_    0.052507 0.739943 0.239685 0.195191
H4    H     H_    0.948469 0.740989 0.239403 0.196349
H5    H     H_    0.220568 0.630268 0.697088 0.153831
H6    H     H_    0.314989 0.418134 0.308239 0.155617
H7    H     H_    0.210398 0.438602 0.312047 0.153350
H8    H     H_    0.689464 0.271830 0.116580 0.362723
H9    H     H_    0.509040 0.885905 0.278640 0.209467
H10   H     H_    0.556059 0.829248 0.054928 0.326472
H11   H     H_    0.359601 0.180702 0.676431 0.346871
H12   H     H_    0.673308 0.630070 0.674538 0.184906
H13   H     H_    0.545889 0.193474 0.052971 0.338163
H14   H     H_    0.385003 0.547115 0.881001 0.208840
H15   H     H_    0.373499 0.373587 0.876017 0.233214
H16   H     H_    0.324881 0.610173 0.694499 0.154059
H17   H     H_    0.793126 0.413475 0.331199 0.179665
H18   H     H_    0.777290 0.656100 0.677237 0.157737
H19   H     H_    0.508610 0.111547 0.278188 0.210393
H20   H     H_    0.455073 0.876212 0.763595 0.154177
H21   H     H_    0.578144 0.598166 0.127071 0.155589
H22   H     H_    0.050984 0.362481 0.788735 0.195535
H23   H     H_    0.578497 0.596649 0.874355 0.179636
H24   H     H_    0.384120 0.542774 0.123334 0.224982
N1    N     N_R   0.851658 0.547586 0.509456 -0.357732
N2    N     N_R   0.147934 0.543594 0.509329 -0.358467
N3    N     N_R   0.499610 0.499140 0.142800 -0.120197
N4    N     N_R   0.499610 0.499180 0.857150 -0.124634
O1    O     O_R   0.500010 0.316790 0.614690 -0.598847
O2    O     O_R   0.583850 0.500060 0.614640 -0.605947
O3    O     O_R   0.583840 0.500020 0.385300 -0.612145
O4    O     O_2   0.850470 0.679239 0.319067 -0.534958
O5    O     O_2   0.641599 0.286064 0.331365 -0.622945
O6    O     O_R   0.709216 0.336786 0.175661 -0.780056
O7    O     O_2   0.587269 0.842748 0.823386 -0.635838
O8    O     O_R   0.523783 0.862587 0.996830 -0.778672
O9    O     O_2   0.404778 0.106734 0.879055 -0.584050
O10   O     O_R   0.400489 0.155565 0.655600 -0.821969
O11   O     O_2   0.572266 0.199227 0.818076 -0.598062
O12   O     O_2   0.849896 0.417234 0.701084 -0.531385
O13   O     O_R   0.517530 0.142338 0.997789 -0.769592
O14   O     O_2   0.148426 0.409859 0.698389 -0.552198
O15   O     O_2   0.149940 0.678295 0.321263 -0.549090
O16   O     O_R   0.500000 0.316760 0.385350 -0.617559
O17   O     O_R   0.416160 0.499980 0.614700 -0.625458
O18   O     O_R   0.416150 0.499940 0.385360 -0.623424
O19   O     O_R   0.500000 0.683240 0.614650 -0.625984
O20   O     O_R   0.499990 0.683210 0.385310 -0.623650
Zn1   Zn    Zn3+2 0.500000 0.500020 0.653130 0.995042
Zn2   Zn    Zn3+2 0.500000 0.499980 0.346870 0.985409

loop_
_geom_bond_atom_site_label_1
_geom_bond_atom_site_label_2
_ccdc_geom_bond_type
C1    O1    A    
C20   H19   S    
C19   C20   A    
C18   C26   S    
C30   H23   S    
O16   Zn2   S    
C7    C8    A    
C45   C46   A    
C27   C33   S    
C21   H9    S    
C12   C23   A    
C29   C30   A    
C18   C24   A    
C36   C37   A    
H10   O8    S    
C38   C39   A    
O18   Zn2   S    
C10   C17   A    
C33   H2    S    
C41   O7    D    
C35   O4    S    
C11   C13   A    
C18   C19   A    
C12   C37   A    
C28   O3    A    
O3    Zn2   S    
C33   H24   S    
C8    C9    A    
O20   Zn2   S    
C13   C28   S    
O1    Zn1   S    
C42   O10   S    
C28   O2    A    
C2    N2    A    
C48   O14   S    
C13   C14   A    
C17   N1    S    
C23   H22   S    
C11   C40   S    
C25   H20   S    
C27   N3    A    
C41   O8    S    
C8    H7    S    
H13   O13   S    
C26   C43   S    
C12   H1    S    
C29   H21   S    
C2    C45   A    
C16   O20   A    
C1    C19   S    
C27   C31   A    
C40   O6    S    
C34   C44   A    
C24   C25   S    
C4    C6    S    
C36   N1    A    
C25   C41   S    
N4    Zn1   S    
C15   H18   S    
C46   H3    S    
N3    Zn2   S    
C36   O12   S    
C5    H16   S    
C35   C39   A    
C38   C44   A    
C37   C38   A    
C3    C9    A    
C48   N2    A    
C30   N4    A    
C31   C32   S    
C23   C34   A    
O2    Zn1   S    
C42   O9    D    
C43   O13   S    
C47   H4    S    
C4    O18   A    
C1    O16   A    
C22   C24   A    
C34   C48   A    
C9    N2    S    
O17   Zn1   S    
C44   C45   A    
C26   C42   S    
C39   C47   A    
C10   H17   S    
C15   C17   A    
C46   C47   A    
C35   N1    A    
C16   O19   A    
C16   C22   S    
C40   O5    D    
C32   H15   S    
C3    C5    A    
O19   Zn1   S    
H8    O6    S    
C6    C7    A    
C29   N3    A    
C14   H12   S    
C43   O11   D    
C32   C33   S    
C25   C26   S    
H11   O10   S    
C32   H14   S    
C3    H5    S    
C31   N4    A    
C5    C6    A    
C2    O15   S    
C10   C11   A    
C4    O17   A    
C20   C21   A    
C14   C15   A    
C7    H6    S    
C21   C22   A    
