data_mof_unit_19870.cif
_audit_creation_date              2012-12-11T14:03:33-0500
_audit_creation_method            fapswitch 2.2
_symmetry_space_group_name_H-M    P1
_symmetry_Int_Tables_number       1
_space_group_crystal_system       triclinic
_cell_length_a                    6.936944
_cell_length_b                    11.411943
_cell_length_c                    18.675045
_cell_angle_alpha                 90.000032
_cell_angle_beta                  92.772792
_cell_angle_gamma                 90.000021
_cell_volume                      1476.660572

loop_
_atom_site_label
_atom_site_type_symbol
_atom_type_description
_atom_site_fract_x
_atom_site_fract_y
_atom_site_fract_z
_atom_type_partial_charge
O1    O     O_R   0.330540 0.606360 0.598870 -0.537551
O2    O     O_R   0.669460 0.106360 0.401130 -0.537551
O3    O     O_R   0.026770 0.620470 0.750430 -0.541211
O4    O     O_R   0.973230 0.120470 0.249570 -0.541211
O5    O     O_R   0.856460 0.393640 0.750930 -0.539535
O6    O     O_R   0.143540 0.893640 0.249070 -0.539534
C1    C     C_R   0.198493 0.648307 0.774582 0.690171
C2    C     C_R   0.801507 0.148306 0.225418 0.690173
O7    O     O_R   0.000920 0.620350 0.599420 -0.548719
O8    O     O_R   0.999080 0.120350 0.400580 -0.548719
O9    O     O_R   0.830430 0.393520 0.598850 -0.537945
O10   O     O_R   0.169570 0.893520 0.401150 -0.537945
C3    C     C_R   0.166717 0.647850 0.574533 0.767017
C4    C     C_R   0.833283 0.147850 0.425467 0.767017
O11   O     O_R   0.356570 0.606480 0.750960 -0.539121
O12   O     O_R   0.643430 0.106480 0.249040 -0.539123
O13   O     O_3   0.176990 0.425580 0.674890 -0.374025
O14   O     O_3   0.823010 0.925580 0.325110 -0.374025
V1    V     V_3+5 0.902170 0.513810 0.674910 1.412409
V2    V     V_3+5 0.097830 0.013810 0.325090 1.412409
O15   O     O_R   0.500800 0.379530 0.599380 -0.549051
O16   O     O_R   0.499200 0.879530 0.400620 -0.549051
C5    C     C_R   0.666611 0.352030 0.574504 0.765585
C6    C     C_R   0.333389 0.852030 0.425496 0.765585
O17   O     O_R   0.526650 0.379650 0.750390 -0.543698
O18   O     O_R   0.473350 0.879650 0.249610 -0.543699
C7    C     C_R   0.698370 0.351434 0.774322 0.700908
C8    C     C_R   0.301629 0.851434 0.225678 0.700907
V3    V     V_3+5 0.402160 0.486190 0.674900 1.409693
V4    V     V_3+5 0.597840 0.986190 0.325100 1.409693
O19   O     O_3   0.677210 0.574420 0.674910 -0.372530
O20   O     O_3   0.322790 0.074420 0.325090 -0.372530
C9    C     C_R   0.696868 0.071445 0.879690 -0.158248
C10   C     C_R   0.303111 0.571446 0.120310 -0.158250
H1    H     H_    0.670750 0.115473 0.767988 0.105752
H2    H     H_    0.329234 0.615474 0.232012 0.105753
H3    H     H_    0.708561 0.940478 0.996896 0.138638
H4    H     H_    0.291398 0.440480 0.003104 0.138640
H5    H     H_    0.680887 0.978450 0.869115 0.131182
H6    H     H_    0.319083 0.478453 0.130885 0.131182
C11   C     C_R   0.712980 0.269052 0.834248 -0.035628
C12   C     C_R   0.287019 0.769052 0.165752 -0.035627
C13   C     C_R   0.805423 0.350706 0.180616 -0.181319
C14   C     C_R   0.194594 0.850705 0.819384 -0.181322
C15   C     C_R   0.800029 0.432493 0.125483 -0.117997
C16   C     C_R   0.199992 0.932492 0.874517 -0.117998
C17   C     C_R   0.777978 0.396401 0.054302 -0.166783
C18   C     C_R   0.222034 0.896401 0.945698 -0.166788
C19   C     C_R   0.760216 0.276025 0.036332 0.068580
C20   C     C_R   0.239783 0.776025 0.963668 0.068582
C21   C     C_R   0.763270 0.192631 0.093317 0.066153
C22   C     C_R   0.236722 0.692632 0.906683 0.066157
C23   C     C_R   0.739910 0.235611 0.963879 0.067897
C24   C     C_R   0.260084 0.735611 0.036121 0.067898
C25   C     C_R   0.720295 0.113370 0.950253 0.137367
C26   C     C_R   0.279685 0.613372 0.049747 0.137366
C27   C     C_R   0.723229 0.033708 0.006987 -0.211199
C28   C     C_R   0.276742 0.533710 0.993013 -0.211202
C29   C     C_R   0.744974 0.072425 0.077342 -0.211190
C30   C     C_R   0.255001 0.572426 0.922658 -0.211193
C31   C     C_R   0.737611 0.312118 0.904210 -0.223682
C32   C     C_R   0.262391 0.812117 0.095790 -0.223684
C33   C     C_R   0.691719 0.148991 0.822080 -0.188321
C34   C     C_R   0.308268 0.648992 0.177919 -0.188322
C35   C     C_R   0.786634 0.231259 0.165369 -0.077544
C36   C     C_R   0.213367 0.731259 0.834631 -0.077544
H7    H     H_    0.751766 0.405711 0.909959 0.104080
H8    H     H_    0.248243 0.905710 0.090041 0.104080
H9    H     H_    0.775526 0.465206 0.014838 0.122945
H10   H     H_    0.224491 0.965205 0.985162 0.122945
H11   H     H_    0.814090 0.524871 0.137949 0.135787
H12   H     H_    0.185943 0.024870 0.862051 0.135788
H13   H     H_    0.746845 0.006852 0.119260 0.129502
H14   H     H_    0.253124 0.506854 0.880740 0.129500
C37   C     C_2   0.831967 0.233665 0.484676 -0.351636
C38   C     C_2   0.168033 0.733665 0.515324 -0.351637
H15   H     H_    0.969617 0.270410 0.503681 0.150145
H16   H     H_    0.030383 0.770410 0.496319 0.150145
C39   C     C_2   0.667943 0.266206 0.515300 -0.350856
C40   C     C_2   0.332057 0.766206 0.484699 -0.350855
H17   H     H_    0.530294 0.229462 0.496294 0.150121
H18   H     H_    0.469706 0.729462 0.503706 0.150122
H19   H     H_    0.824784 0.380639 0.235564 0.103862
H20   H     H_    0.175242 0.880638 0.764436 0.103862

loop_
_geom_bond_atom_site_label_1
_geom_bond_atom_site_label_2
_ccdc_geom_bond_type
C9    C25   A    
C10   C26   A    
C15   H11   S    
O13   V3    S    
C14   C36   A    
C11   C31   A    
O4    C2    A    
V1    O19   S    
C17   C19   A    
O9    V1    S    
C9    H5    S    
C10   H6    S    
C38   H16   S    
O3    C1    A    
C27   C29   A    
C28   C30   A    
C13   H19   S    
C21   C35   A    
C15   C17   A    
C30   H14   S    
C31   H7    S    
C17   H9    S    
O7    C3    A    
C22   C30   A    
O5    C7    A    
C23   C31   A    
C6    C40   S    
O6    C8    A    
C14   C16   A    
C19   C21   A    
C20   C22   A    
O3    V1    S    
O14   V4    S    
C12   C32   A    
C16   H12   S    
C9    C33   A    
C18   C20   A    
C2    C35   S    
C2    O12   A    
H4    C28   S    
C8    C12   S    
C10   C34   A    
O7    V1    S    
O11   V3    S    
C16   C18   A    
C23   C25   A    
O17   V3    S    
C24   C26   A    
C40   H18   S    
O8    C4    A    
O8    V2    S    
C39   H17   S    
C1    O11   A    
C24   C32   A    
O15   V3    S    
C37   H15   S    
C7    C11   S    
C3    C38   S    
C13   C35   A    
O10   V2    S    
O1    V3    S    
C20   C24   A    
C13   C15   A    
O18   V4    S    
C25   C27   A    
O16   C6    A    
C21   C29   A    
C11   C33   A    
C12   C34   A    
C22   C36   A    
V2    O20   S    
C29   H13   S    
O16   V4    S    
C38   C40   D    
C18   H10   S    
C14   H20   S    
O5    V1    S    
O17   C7    A    
O6    V2    S    
O10   C6    A    
O18   C8    A    
C32   H8    S    
O2    V4    S    
C4    C37   S    
O15   C5    A    
V3    O19   S    
C1    C36   S    
V4    O20   S    
C37   C39   D    
C19   C23   A    
O9    C5    A    
O13   V1    S    
C26   C28   A    
O14   V2    S    
O2    C4    A    
O4    V2    S    
O1    C3    A    
H1    C33   S    
C5    C39   S    
H2    C34   S    
O12   V4    S    
H3    C27   S    
