data_mof_unit_5006.cif
_audit_creation_date              2012-10-26T18:50:47-0400
_audit_creation_method            fapswitch 2.2
_symmetry_space_group_name_H-M    P1
_symmetry_Int_Tables_number       1
_space_group_crystal_system       triclinic
_cell_length_a                    12.322249
_cell_length_b                    13.197287
_cell_length_c                    17.252541
_cell_angle_alpha                 105.147731
_cell_angle_beta                  74.558067
_cell_angle_gamma                 116.723814
_cell_volume                      2382.58613917

loop_
_atom_site_label
_atom_site_type_symbol
_atom_type_description
_atom_site_fract_x
_atom_site_fract_y
_atom_site_fract_z
_atom_type_partial_charge
C1    C     C_R   0.144591 0.713589 0.506935 0.531333
C2    C     C_R   0.019763 0.495492 0.261448 0.016240
C3    C     C_R   0.738745 0.971436 0.396917 0.016221
C4    C     C_R   0.986607 0.502773 0.652208 0.542763
C5    C     C_R   0.774863 0.164159 0.471786 -0.030990
C6    C     C_R   0.179518 0.917096 0.557519 -0.123269
C7    C     C_R   0.257209 0.032698 0.571884 -0.130574
C8    C     C_R   0.383351 0.069021 0.543625 -0.108622
C9    C     C_R   0.434502 0.989859 0.497253 0.044813
C10   C     C_R   0.352654 0.874828 0.474084 0.028961
C11   C     C_R   0.563846 0.021222 0.472518 0.026971
C12   C     C_R   0.874966 0.464763 0.793820 -0.005167
C13   C     C_R   0.609371 0.940645 0.419437 0.018128
C14   C     C_R   0.524359 0.833555 0.387806 -0.138823
C15   C     C_R   0.398829 0.801918 0.413915 -0.107220
C16   C     C_R   0.855889 0.286189 0.488133 0.547829
C17   C     C_R   0.649106 0.130568 0.500007 -0.136244
C18   C     C_R   0.819885 0.084455 0.422206 -0.097823
C19   C     C_R   0.226211 0.836683 0.510448 0.000066
C20   C     C_R   0.641797 0.674852 0.629810 -0.146975
C21   C     C_R   0.249132 0.351020 0.390096 0.015436
C22   C     C_R   0.347011 0.316862 0.366191 -0.017639
C23   C     C_R   0.935670 0.512072 0.156144 -0.084353
C24   C     C_R   0.447439 0.373749 0.407904 -0.112364
C25   C     C_R   0.450551 0.464299 0.473584 -0.036677
C26   C     C_R   0.347477 0.494910 0.495612 0.176758
C27   C     C_R   0.551300 0.525068 0.518578 -0.014549
C28   C     C_R   0.012582 0.496351 0.347569 0.548613
C29   C     C_R   0.545903 0.614172 0.584415 0.040096
C30   C     C_R   0.444720 0.642255 0.604918 -0.172799
C31   C     C_R   0.347987 0.583962 0.561660 -0.091497
C32   C     C_R   0.657946 0.501908 0.501637 0.038333
C33   C     C_R   0.743389 0.647576 0.610178 0.041053
C34   C     C_R   0.928092 0.509606 0.237284 -0.109438
C35   C     C_R   0.985128 0.514375 0.738947 0.003267
C36   C     C_R   0.097068 0.581856 0.766822 -0.121667
C37   C     C_R   0.103221 0.603422 0.849089 0.003612
C38   C     C_R   0.995209 0.553433 0.904346 0.007823
C39   C     C_R   0.881290 0.482356 0.877392 0.040814
C40   C     C_2   0.791940 0.887988 0.348339 0.220327
C41   C     C_2   0.342387 0.221125 0.297651 0.225266
C42   C     C_2   0.771989 0.425619 0.937671 0.218824
C43   C     C_3   0.753656 0.395973 0.762298 -0.354398
C44   C     C_3   0.225165 0.680236 0.877027 -0.382856
C45   C     C_R   0.118006 0.481495 0.202861 -0.124699
C46   C     C_R   0.125506 0.483982 0.121357 -0.108524
C47   C     C_R   0.035850 0.501662 0.097948 0.045821
C48   C     C_2   0.002226 0.567686 0.990070 -0.144558
C49   C     C_2   0.045777 0.505128 0.012118 -0.118495
Cu1   Cu    Cu3+1 0.900140 0.524980 0.518800 0.933091
Cu2   Cu    Cu3+1 0.099860 0.475020 0.481200 0.921378
H1    H     H_    0.179864 0.620834 0.724163 0.105330
H2    H     H_    0.817748 0.694190 0.644933 0.122274
H3    H     H_    0.850191 0.518590 0.280952 0.133843
H4    H     H_    0.439878 0.710145 0.655359 0.105263
H5    H     H_    0.638122 0.743009 0.680244 0.098530
H6    H     H_    0.670373 0.436210 0.452549 0.120950
H7    H     H_    0.171131 0.307636 0.358410 0.120312
H8    H     H_    0.521499 0.345531 0.388239 0.148199
H9    H     H_    0.274822 0.611572 0.582683 0.177948
H10   H     H_    0.189439 0.469640 0.219987 0.127461
H11   H     H_    0.088724 0.454369 0.965670 0.134258
H12   H     H_    0.202192 0.473964 0.076787 0.108777
H13   H     H_    0.862090 0.520569 0.139119 0.111571
H14   H     H_    0.960884 0.620990 0.034710 0.118934
H15   H     H_    0.737173 0.796131 0.342813 0.102613
H16   H     H_    0.263721 0.178524 0.266284 0.116451
H17   H     H_    0.749685 0.475473 0.995512 0.097989
H18   H     H_    0.730334 0.452800 0.738573 0.142653
H19   H     H_    0.761283 0.324955 0.712848 0.138074
H20   H     H_    0.673559 0.357800 0.808989 0.175573
H21   H     H_    0.298971 0.716202 0.825872 0.119761
H22   H     H_    0.215887 0.753266 0.923589 0.151937
H23   H     H_    0.918492 0.111102 0.402287 0.169409
H24   H     H_    0.254761 0.630795 0.903710 0.137812
H25   H     H_    0.552834 0.773168 0.341519 0.098371
H26   H     H_    0.620325 0.192829 0.543186 0.120719
H27   H     H_    0.082910 0.890385 0.584764 0.131931
H28   H     H_    0.437332 0.160036 0.557734 0.105620
H29   H     H_    0.219965 0.094298 0.607416 0.125207
H30   H     H_    0.338576 0.720390 0.384228 0.153076
N1    N     N_R   0.749710 0.562810 0.547300 -0.234656
N2    N     N_R   0.249640 0.437820 0.453210 -0.242882
O1    O     O_R   0.025490 0.682370 0.523640 -0.496590
O2    O     O_2   0.425815 0.188483 0.275388 -0.488389
O3    O     O_2   0.711311 0.321868 0.925537 -0.498838
O4    O     O_R   0.194150 0.640180 0.491890 -0.532312
O5    O     O_R   0.905900 0.523560 0.631310 -0.509034
O6    O     O_R   0.074570 0.481370 0.599560 -0.513343
O7    O     O_R   0.805850 0.359820 0.508110 -0.507843
O8    O     O_R   0.974510 0.317630 0.476360 -0.502236
O9    O     O_R   0.925430 0.518630 0.400440 -0.502508
O10   O     O_R   0.094100 0.476440 0.368690 -0.516013
O11   O     O_2   0.899833 0.921206 0.314896 -0.509818

loop_
_geom_bond_atom_site_label_1
_geom_bond_atom_site_label_2
_ccdc_geom_bond_type
C1    O4    A    
C16   O7    A    
C26   N2    A    
C27   C29   A    
C35   C36   A    
C20   H5    S    
Cu1   O1    S    
C7    C8    A    
C15   H30   S    
C45   C46   A    
C1    O1    A    
C6    C19   A    
C37   C38   A    
C36   C37   A    
C12   C43   S    
C10   C15   A    
C30   C31   A    
C6    H27   S    
C22   C41   S    
C5    C17   A    
C3    C18   A    
C5    C16   S    
Cu2   O8    S    
Cu1   O7    S    
C11   C17   A    
C21   N2    A    
C8    C9    A    
C8    H28   S    
C42   O3    D    
C48   H14   S    
C9    C10   A    
C38   C48   S    
C3    C13   A    
Cu1   O5    S    
C2    C34   A    
C4    C35   S    
C26   C31   A    
C43   H18   S    
C40   H15   S    
C13   C14   A    
C42   H17   S    
C32   H6    S    
C39   C42   S    
C20   C29   A    
C2    C45   A    
C33   H2    S    
C1    C19   S    
C23   C47   A    
C24   C25   A    
C41   H16   S    
C47   C49   S    
Cu2   O4    S    
C5    C18   A    
C25   C26   A    
C28   O10   A    
C14   H25   S    
C31   H9    S    
C44   H24   S    
C29   C30   A    
C10   C19   A    
C23   C34   A    
C17   H26   S    
Cu1   Cu2   S    
C28   O9    A    
C12   C35   A    
C9    C11   A    
Cu2   O10   S    
C20   C33   A    
Cu1   O9    S    
C48   C49   D    
C3    C40   S    
C34   H3    S    
C43   H19   S    
C22   C24   A    
Cu2   N2    S    
C32   N1    A    
Cu1   N1    S    
C4    O6    A    
C33   N1    A    
C46   C47   A    
C23   H13   S    
C43   H20   S    
C49   H11   S    
C27   C32   A    
C40   O11   D    
C36   H1    S    
C6    C7    A    
C4    O5    A    
C25   C27   A    
C41   O2    D    
C30   H4    S    
C46   H12   S    
C12   C39   A    
C21   H7    S    
Cu2   O6    S    
C11   C13   A    
C38   C39   A    
C37   C44   S    
C24   H8    S    
C45   H10   S    
C44   H21   S    
C44   H22   S    
C16   O8    A    
C18   H23   S    
C14   C15   A    
C2    C28   S    
C21   C22   A    
C7    H29   S    
