data_mof_unit_11005.cif
_audit_creation_date              2012-12-11T15:18:31-0500
_audit_creation_method            fapswitch 2.2
_symmetry_space_group_name_H-M    P1
_symmetry_Int_Tables_number       1
_space_group_crystal_system       triclinic
_cell_length_a                    6.9346
_cell_length_b                    19.933125
_cell_length_c                    23.792336
_cell_angle_alpha                 93.4409
_cell_angle_beta                  91.290979
_cell_angle_gamma                 88.041966
_cell_volume                      3280.23590232

loop_
_atom_site_label
_atom_site_type_symbol
_atom_type_description
_atom_site_fract_x
_atom_site_fract_y
_atom_site_fract_z
_atom_type_partial_charge
O1    O     O_R   0.620100 0.812200 0.810870 -0.537099
O2    O     O_R   0.379900 0.187800 0.189130 -0.537099
O3    O     O_R   0.296960 0.671650 0.794750 -0.527362
O4    O     O_R   0.703040 0.328350 0.205250 -0.527362
O5    O     O_R   0.120160 0.687800 0.689130 -0.547583
O6    O     O_R   0.879840 0.312200 0.310870 -0.547583
C1    C     C_R   0.469804 0.646830 0.804590 0.710670
C2    C     C_R   0.530196 0.353169 0.195410 0.710669
O7    O     O_R   0.290810 0.810670 0.817290 -0.508778
O8    O     O_R   0.709190 0.189330 0.182710 -0.508778
O9    O     O_R   0.113980 0.827820 0.711840 -0.542090
O10   O     O_R   0.886020 0.172180 0.288160 -0.542090
C3    C     C_R   0.458890 0.830481 0.835232 0.774871
C4    C     C_R   0.541110 0.169519 0.164768 0.774870
O11   O     O_R   0.626290 0.672180 0.788160 -0.533308
O12   O     O_R   0.373710 0.327820 0.211840 -0.533307
O13   O     O_3   0.451520 0.755460 0.715370 -0.386566
O14   O     O_3   0.548480 0.244540 0.284630 -0.386566
V1    V     V_3+5 0.179200 0.748980 0.756420 1.519500
V2    V     V_3+5 0.820800 0.251020 0.243580 1.519500
O15   O     O_R   0.783880 0.828350 0.705250 -0.544527
O16   O     O_R   0.216120 0.171650 0.294750 -0.544526
C5    C     C_R   0.949096 0.852756 0.694870 0.681301
C6    C     C_R   0.050904 0.147244 0.305130 0.681301
O17   O     O_R   0.790030 0.689320 0.682700 -0.549206
O18   O     O_R   0.209970 0.310680 0.317300 -0.549206
C7    C     C_R   0.959439 0.668094 0.665687 0.687204
C8    C     C_R   0.040561 0.331906 0.334313 0.687204
V3    V     V_3+5 0.678400 0.751010 0.743570 1.457479
V4    V     V_3+5 0.321600 0.248990 0.256430 1.457479
O19   O     O_3   0.955950 0.744540 0.784620 -0.334788
O20   O     O_3   0.044050 0.255460 0.215380 -0.334788
C9    C     C_R   0.180062 0.425880 0.395994 -0.221545
C10   C     C_R   0.819938 0.574120 0.604006 -0.221545
C11   C     C_R   0.029810 0.381100 0.383821 -0.078311
C12   C     C_R   0.970190 0.618900 0.616179 -0.078311
C13   C     C_R   0.867784 0.384264 0.418695 -0.224429
C14   C     C_R   0.132216 0.615736 0.581305 -0.224429
C15   C     C_R   0.856116 0.430841 0.465410 0.090154
C16   C     C_R   0.143884 0.569159 0.534590 0.090154
C17   C     C_R   0.006072 0.476146 0.476773 0.052845
C18   C     C_R   0.993928 0.523853 0.523227 0.052845
C19   C     C_R   0.168032 0.473886 0.441725 0.090360
C20   C     C_R   0.831968 0.526113 0.558275 0.090360
C21   C     C_R   0.697091 0.432947 0.501042 -0.191198
C22   C     C_R   0.302909 0.567053 0.498958 -0.191198
C23   C     C_R   0.685291 0.480046 0.547063 -0.183733
C24   C     C_R   0.314709 0.519954 0.452937 -0.183733
H1    H     H_    0.304746 0.424243 0.369189 0.119523
H2    H     H_    0.695254 0.575757 0.630811 0.119523
H3    H     H_    0.751671 0.349855 0.409876 0.123567
H4    H     H_    0.248329 0.650145 0.590124 0.123568
H5    H     H_    0.560434 0.480730 0.573696 0.134886
H6    H     H_    0.439566 0.519270 0.426304 0.134886
C25   C     C_R   0.945193 0.914189 0.663144 -0.044265
C26   C     C_R   0.054807 0.085811 0.336856 -0.044265
C27   C     C_R   0.850829 0.031634 0.658555 -0.159367
C28   C     C_R   0.149171 0.968366 0.341444 -0.159367
C29   C     C_R   0.871880 0.974180 0.688848 -0.165684
C30   C     C_R   0.128120 0.025820 0.311152 -0.165684
C31   C     C_R   0.996891 0.911932 0.606163 -0.216861
C32   C     C_R   0.003109 0.088068 0.393836 -0.216861
C33   C     C_R   0.972671 0.969720 0.573729 0.086560
C34   C     C_R   0.027329 0.030280 0.426271 0.086560
C35   C     C_R   0.898726 0.029883 0.601470 0.137676
C36   C     C_R   0.101274 0.970117 0.398530 0.137676
C37   C     C_R   0.015826 0.969858 0.514867 0.057923
C38   C     C_R   0.984174 0.030142 0.485133 0.057923
C39   C     C_R   0.911191 0.088273 0.515304 -0.187486
C40   C     C_R   0.088809 0.911727 0.484696 -0.187486
C41   C     C_R   0.870063 0.087970 0.572106 -0.199714
C42   C     C_R   0.129937 0.912030 0.427894 -0.199714
H7    H     H_    0.813511 0.133927 0.593287 0.124951
H8    H     H_    0.186489 0.866073 0.406713 0.124951
H9    H     H_    0.950422 0.135966 0.411693 0.093844
H10   H     H_    0.049578 0.864034 0.588307 0.093844
H11   H     H_    0.170770 0.023658 0.267520 0.105744
H12   H     H_    0.829230 0.976342 0.732480 0.105744
H13   H     H_    0.793515 0.077496 0.679665 0.117134
H14   H     H_    0.206485 0.922504 0.320335 0.117134
H15   H     H_    0.883203 0.135308 0.496192 0.123040
H16   H     H_    0.116796 0.864692 0.503808 0.123040
C43   C     C_R   0.496892 0.585121 0.835723 -0.077365
C44   C     C_R   0.503108 0.414879 0.164277 -0.077366
C45   C     C_R   0.681061 0.480800 0.844134 -0.114682
C46   C     C_R   0.318939 0.519200 0.155866 -0.114683
C47   C     C_R   0.610841 0.532255 0.811630 -0.153011
C48   C     C_R   0.389159 0.467745 0.188370 -0.153011
C49   C     C_R   0.442002 0.583140 0.892185 -0.092129
C50   C     C_R   0.557998 0.416860 0.107815 -0.092129
C51   C     C_R   0.500549 0.528360 0.925204 0.107551
C52   C     C_R   0.499451 0.471640 0.074796 0.107552
C53   C     C_R   0.634970 0.480406 0.901179 0.074165
C54   C     C_R   0.365030 0.519594 0.098821 0.074165
C55   C     C_R   0.446152 0.522889 0.982657 -0.064650
C56   C     C_R   0.553848 0.477111 0.017343 -0.064649
C57   C     C_R   0.712515 0.439541 0.993101 0.398391
C58   C     C_R   0.287484 0.560459 0.006899 0.398391
C59   C     C_R   0.738459 0.436946 0.935247 -0.170063
C60   C     C_R   0.261541 0.563054 0.064753 -0.170062
H17   H     H_    0.855043 0.405352 0.917511 0.162909
H18   H     H_    0.144957 0.594648 0.082489 0.162909
H19   H     H_    0.627431 0.372092 0.088952 0.178797
H20   H     H_    0.372569 0.627908 0.911048 0.178797
H21   H     H_    0.343148 0.466672 0.231536 0.104865
H22   H     H_    0.656852 0.533328 0.768464 0.104865
H23   H     H_    0.780700 0.443256 0.825378 0.115487
H24   H     H_    0.219300 0.556744 0.174622 0.115488
C61   C     C_R   0.375296 0.078698 0.108402 -0.224227
C62   C     C_R   0.624703 0.921302 0.891598 -0.224228
C63   C     C_R   0.532797 0.121262 0.114490 -0.157150
C64   C     C_R   0.467203 0.878738 0.885510 -0.157150
C65   C     C_R   0.678343 0.116304 0.073096 0.319404
C66   C     C_R   0.321657 0.883695 0.926904 0.319404
C67   C     C_R   0.666479 0.067276 0.027518 0.020348
C68   C     C_R   0.333521 0.932724 0.972482 0.020348
C69   C     C_R   0.507152 0.024535 0.022741 0.020846
C70   C     C_R   0.492848 0.975465 0.977258 0.020846
C71   C     C_R   0.361501 0.030818 0.063208 0.104288
C72   C     C_R   0.638499 0.969182 0.936792 0.104289
C73   C     C_R   0.809977 0.059743 0.986351 -0.129171
C74   C     C_R   0.190023 0.940257 0.013649 -0.129171
C75   C     C_R   0.796062 0.011330 0.941759 -0.181375
C76   C     C_R   0.203938 0.988670 0.058240 -0.181375
H25   H     H_    0.263255 0.082111 0.139630 0.153181
H26   H     H_    0.736744 0.917889 0.860370 0.153180
H27   H     H_    0.909624 0.006790 0.911054 0.134522
H28   H     H_    0.090376 0.993210 0.088945 0.134522
Cl1   Cl    Cl    0.908352 0.405697 0.032342 -0.630484
Cl2   Cl    Cl    0.091648 0.594302 0.967658 -0.630484
Cl3   Cl    Cl    0.869652 0.173425 0.076056 -0.633002
Cl4   Cl    Cl    0.130349 0.826574 0.923945 -0.633002
H29   H     H_    0.935412 0.090614 0.988201 0.193831
H30   H     H_    0.064588 0.909386 0.011799 0.193831
H31   H     H_    0.580902 0.398406 0.493109 0.133390
H32   H     H_    0.419098 0.601594 0.506891 0.133390

loop_
_geom_bond_atom_site_label_1
_geom_bond_atom_site_label_2
_ccdc_geom_bond_type
C43   C47   A    
C33   C35   A    
C67   C73   A    
C25   C29   A    
O13   V3    S    
C17   C18   A    
C27   H13   S    
C1    C43   S    
C55   C56   A    
C6    C26   S    
O4    C2    A    
V1    O19   S    
C70   C72   A    
C64   C66   A    
C55   C58   A    
C15   C17   A    
C71   C76   A    
C24   H6    S    
O9    V1    S    
C68   C74   A    
C34   C38   A    
C11   C13   A    
C3    C64   S    
O3    C1    A    
C69   C71   A    
C13   H3    S    
C46   C48   A    
C27   C29   A    
C14   H4    S    
C28   C30   A    
C52   C56   A    
C31   C33   A    
C39   C41   A    
O7    C3    A    
C74   H30   S    
C32   C34   A    
C46   C54   A    
C9    C11   A    
O5    C7    A    
C45   C53   A    
C28   C36   A    
C36   C42   A    
C8    C11   S    
O8    V2    S    
C38   C39   A    
C67   C69   A    
O3    V1    S    
O14   V4    S    
C49   C51   A    
O16   V4    S    
C19   C24   A    
C53   C59   A    
O14   V2    S    
C20   C23   A    
C28   H14   S    
C76   H28   S    
C26   C32   A    
C21   C23   A    
C2    O12   A    
C17   C19   A    
O10   V2    S    
C44   C50   A    
C40   H16   S    
C29   H12   S    
O1    V3    S    
C57   C59   A    
O7    V1    S    
O11   V3    S    
C22   C24   A    
C45   C47   A    
C31   H10   S    
O17   V3    S    
C4    C63   S    
C43   C49   A    
C33   C37   A    
C30   H11   S    
C10   H2    S    
C21   H31   S    
C37   C38   A    
C9    C19   A    
C10   C20   A    
C42   H8    S    
O8    C4    A    
C62   C72   A    
C41   H7    S    
C1    O11   A    
C35   C41   A    
O15   V3    S    
C26   C30   A    
C22   H32   S    
C34   C36   A    
C16   C22   A    
V4    O20   S    
C51   C53   A    
C50   C52   A    
C54   C60   A    
C56   C57   A    
C58   Cl2   S    
C60   H18   S    
C63   C65   A    
C62   H26   S    
C61   H25   S    
C59   H17   S    
O18   V4    S    
C58   C60   A    
O15   C5    A    
C49   H20   S    
O16   C6    A    
C32   H9    S    
O1    C3    A    
O12   V4    S    
C74   C76   A    
C12   C14   A    
C75   H27   S    
C61   C71   A    
V2    O20   S    
C65   Cl3   S    
C2    C44   S    
C66   Cl4   S    
C46   H24   S    
C44   C48   A    
C27   C35   A    
C16   C18   A    
C66   C68   A    
C72   C75   A    
C5    C25   S    
O5    V1    S    
C7    C12   S    
O17   C7    A    
O6    V2    S    
O10   C6    A    
O18   C8    A    
C15   C21   A    
O2    V4    S    
C37   C40   A    
C61   C63   A    
C18   C20   A    
C57   Cl1   S    
C13   C15   A    
C69   C70   A    
C14   C16   A    
C48   H21   S    
C52   C54   A    
C47   H22   S    
C23   H5    S    
C25   C31   A    
O9    C5    A    
O13   V1    S    
C68   C70   A    
C10   C12   A    
O2    C4    A    
C62   C64   A    
C50   H19   S    
C73   C75   A    
C39   H15   S    
C51   C55   A    
O4    V2    S    
O6    C8    A    
V3    O19   S    
C40   C42   A    
C73   H29   S    
C45   H23   S    
C9    H1    S    
C65   C67   A    
