data_mof_unit_53189.cif
_audit_creation_date              2012-12-10T17:40:55-0500
_audit_creation_method            fapswitch 2.2
_symmetry_space_group_name_H-M    P1
_symmetry_Int_Tables_number       1
_space_group_crystal_system       triclinic
_cell_length_a                    15.094996
_cell_length_b                    15.295815
_cell_length_c                    9.900872
_cell_angle_alpha                 90.063292
_cell_angle_beta                  87.128249
_cell_angle_gamma                 90.015054
_cell_volume                      2283.14270663

loop_
_atom_site_label
_atom_site_type_symbol
_atom_type_description
_atom_site_fract_x
_atom_site_fract_y
_atom_site_fract_z
_atom_type_partial_charge
C1    C     C_R   0.384227 0.875415 0.502841 0.866552
C2    C     C_R   0.384651 0.124966 0.502653 0.849435
C3    C     C_R   0.884227 0.375415 0.502841 0.866551
C4    C     C_R   0.884651 0.624966 0.502653 0.849435
C5    C     C_R   0.311462 0.247691 0.391145 0.093922
C6    C     C_R   0.310624 0.754158 0.390962 0.110591
C7    C     C_R   0.811462 0.747691 0.391145 0.093922
C8    C     C_R   0.810624 0.254158 0.390961 0.110590
C9    C     C_R   0.738191 0.800653 0.386039 -0.183330
C10   C     C_R   0.736773 0.201213 0.385380 -0.237772
C11   C     C_R   0.238191 0.300652 0.386039 -0.183331
C12   C     C_R   0.236773 0.701213 0.385380 -0.237772
C13   C     C_R   0.675190 0.802728 0.493986 -0.177276
C14   C     C_R   0.674831 0.197689 0.494698 -0.156004
C15   C     C_R   0.175190 0.302727 0.493986 -0.177276
C16   C     C_R   0.174831 0.697689 0.494698 -0.156004
C17   C     C_R   0.337190 0.000185 0.150808 -0.142250
C18   C     C_R   0.837190 0.500185 0.150808 -0.142249
C19   C     C_R   0.257749 0.000583 0.085634 -0.266941
C20   C     C_R   0.757749 0.500581 0.085634 -0.266942
C21   C     C_R   0.258376 0.000610 0.945863 -0.184399
C22   C     C_R   0.758376 0.500608 0.945863 -0.184401
C23   C     C_R   0.338540 0.000342 0.870603 -0.171144
C24   C     C_R   0.838540 0.500341 0.870603 -0.171144
C25   C     C_R   0.420212 0.000153 0.933179 0.096384
C26   C     C_R   0.920212 0.500152 0.933179 0.096384
C27   C     C_R   0.419988 0.000109 0.077813 0.167306
C28   C     C_R   0.919988 0.500108 0.077813 0.167306
C29   C     C_R   0.576364 0.999941 0.066336 -0.161720
C30   C     C_R   0.076364 0.499941 0.066336 -0.161720
C31   C     C_R   0.614870 0.124610 0.498255 0.891952
C32   C     C_R   0.614961 0.875495 0.498088 0.892920
C33   C     C_R   0.114870 0.624610 0.498255 0.891952
C34   C     C_R   0.114961 0.375494 0.498088 0.892920
C35   C     C_R   0.576601 0.999943 0.923167 0.005266
C36   C     C_R   0.076601 0.499943 0.923167 0.005266
C37   C     C_R   0.293129 0.198886 0.760895 -0.183132
C38   C     C_R   0.293586 0.801519 0.762115 -0.182705
C39   C     C_R   0.793129 0.698886 0.760895 -0.183132
C40   C     C_R   0.793586 0.301518 0.762115 -0.182704
C41   C     C_R   0.233136 0.212303 0.871765 0.129126
C42   C     C_R   0.233955 0.788123 0.873398 0.123362
C43   C     C_R   0.733136 0.712303 0.871764 0.129126
C44   C     C_R   0.733956 0.288122 0.873398 0.123363
C45   C     C_R   0.644528 0.727806 0.848438 -0.161648
C46   C     C_R   0.645438 0.271709 0.850592 -0.159022
C47   C     C_R   0.144529 0.227806 0.848439 -0.161647
C48   C     C_R   0.145438 0.771710 0.850592 -0.159022
C49   C     C_R   0.618714 0.742762 0.717305 0.108430
C50   C     C_R   0.619288 0.256362 0.719692 0.107621
C51   C     C_R   0.118714 0.242762 0.717306 0.108429
C52   C     C_R   0.119288 0.756363 0.719692 0.107621
C53   C     C_R   0.684732 0.750827 0.610200 0.061454
C54   C     C_R   0.684968 0.248739 0.611904 0.063455
C55   C     C_R   0.184732 0.250827 0.610200 0.061454
C56   C     C_R   0.184967 0.748739 0.611904 0.063455
C57   C     C_R   0.267751 0.213262 0.626945 0.034939
C58   C     C_R   0.267933 0.786601 0.628216 0.023094
C59   C     C_R   0.767751 0.713262 0.626945 0.034939
C60   C     C_R   0.767933 0.286601 0.628216 0.023094
C61   C     C_R   0.323710 0.198488 0.509379 -0.157914
C62   C     C_R   0.323148 0.802075 0.510039 -0.143383
C63   C     C_R   0.823710 0.698488 0.509379 -0.157914
C64   C     C_R   0.823148 0.302074 0.510038 -0.143383
H1    H     H_    0.196408 0.000781 0.895321 0.166098
H2    H     H_    0.696408 0.500778 0.895321 0.166099
H3    H     H_    0.333972 0.000226 0.763765 0.221850
H4    H     H_    0.833972 0.500226 0.763765 0.221850
H5    H     H_    0.360364 0.184957 0.782780 0.164002
H6    H     H_    0.360672 0.816261 0.783814 0.164262
H7    H     H_    0.860364 0.684957 0.782780 0.164002
H8    H     H_    0.860672 0.316260 0.783813 0.164262
H9    H     H_    0.595695 0.729685 0.932440 0.141227
H10   H     H_    0.596822 0.269754 0.934877 0.141527
H11   H     H_    0.095696 0.229686 0.932441 0.141226
H12   H     H_    0.096822 0.769754 0.934877 0.141527
H13   H     H_    0.732690 0.843159 0.299227 0.182009
H14   H     H_    0.729681 0.159882 0.297536 0.168669
H15   H     H_    0.232690 0.343159 0.299227 0.182009
H16   H     H_    0.229681 0.659882 0.297537 0.168669
H17   H     H_    0.638418 0.999899 0.116720 0.148137
H18   H     H_    0.138418 0.499900 0.116720 0.148137
H19   H     H_    0.330190 0.999962 0.258024 0.215509
H20   H     H_    0.830191 0.499962 0.258024 0.215509
H21   H     H_    0.195188 0.000726 0.144126 0.156159
H22   H     H_    0.695187 0.500723 0.144126 0.156159
N1    N     N_R   0.498810 0.000000 0.142780 -0.125093
N2    N     N_R   0.998810 0.500000 0.142780 -0.125093
N3    N     N_R   0.498740 0.000000 0.857170 -0.159182
N4    N     N_R   0.998740 0.500000 0.857170 -0.159182
O1    O     O_R   0.408390 0.908380 0.614690 -0.669690
O2    O     O_R   0.408390 0.091620 0.614690 -0.661026
O3    O     O_R   0.908390 0.408380 0.614690 -0.669690
O4    O     O_R   0.908390 0.591620 0.614690 -0.661026
O5    O     O_R   0.408370 0.908380 0.385360 -0.603312
O6    O     O_R   0.408370 0.091620 0.385360 -0.646468
O7    O     O_R   0.908370 0.408380 0.385360 -0.603312
O8    O     O_R   0.908370 0.591620 0.385360 -0.646468
O9    O     O_R   0.591620 0.091610 0.614640 -0.614025
O10   O     O_R   0.591620 0.908390 0.614640 -0.612461
O11   O     O_R   0.091620 0.591610 0.614640 -0.614025
O12   O     O_R   0.091620 0.408390 0.614640 -0.612461
O13   O     O_R   0.591610 0.091610 0.385310 -0.623238
O14   O     O_R   0.591610 0.908390 0.385310 -0.620266
O15   O     O_R   0.091610 0.591610 0.385310 -0.623238
O16   O     O_R   0.091610 0.408390 0.385310 -0.620266
Zn1   Zn    Zn3+2 0.500010 0.000000 0.653130 0.908962
Zn2   Zn    Zn3+2 0.000010 0.500000 0.653130 0.908962
Zn3   Zn    Zn3+2 0.499980 0.000000 0.346870 0.930438
Zn4   Zn    Zn3+2 0.999980 0.500000 0.346870 0.930438
N5    N     N_3   0.377080 0.253078 0.281456 -0.453987
H23   H     H_    0.439798 0.260147 0.320501 0.185205
H24   H     H_    0.375538 0.196222 0.223553 0.215539
N6    N     N_3   0.376075 0.755157 0.279994 -0.426654
H25   H     H_    0.358426 0.712380 0.203458 0.185311
H26   H     H_    0.435102 0.730625 0.315957 0.173243
N7    N     N_3   0.877081 0.753078 0.281456 -0.453986
H27   H     H_    0.939799 0.760147 0.320502 0.185205
H28   H     H_    0.875538 0.696223 0.223553 0.215539
N8    N     N_3   0.876075 0.255157 0.279994 -0.426654
H29   H     H_    0.858426 0.212379 0.203458 0.185311
H30   H     H_    0.935102 0.230625 0.315957 0.173244
C65   C     C_1   0.660491 0.999943 0.847720 0.268153
N9    N     N_1   0.728264 0.999947 0.787615 -0.192192
C66   C     C_1   0.160491 0.499943 0.847720 0.268153
N10   N     N_1   0.228264 0.499948 0.787615 -0.192192
N11   N     N_3   0.261821 0.212653 0.007654 -0.449987
H31   H     H_    0.326081 0.187429 0.009003 0.185810
H32   H     H_    0.220749 0.170880 0.065902 0.195142
N12   N     N_3   0.262736 0.789010 0.009326 -0.463500
H33   H     H_    0.326817 0.814781 0.011309 0.201148
H34   H     H_    0.221089 0.830464 0.067295 0.203807
N13   N     N_3   0.761820 0.712650 0.007654 -0.449988
H35   H     H_    0.826079 0.687425 0.009003 0.185810
H36   H     H_    0.720747 0.670877 0.065900 0.195142
N14   N     N_3   0.762737 0.289009 0.009326 -0.463500
H37   H     H_    0.826817 0.314781 0.011309 0.201148
H38   H     H_    0.721089 0.330463 0.067296 0.203807
N15   N     N_3   0.525702 0.745032 0.695848 -0.460895
H39   H     H_    0.501080 0.801520 0.742846 0.215846
H40   H     H_    0.513723 0.747033 0.592931 0.164682
N16   N     N_3   0.526152 0.253827 0.699123 -0.458971
H41   H     H_    0.513692 0.251995 0.596368 0.165946
H42   H     H_    0.501741 0.197283 0.746134 0.215098
N17   N     N_3   0.025701 0.245032 0.695849 -0.460894
H43   H     H_    0.001080 0.301521 0.742847 0.215846
H44   H     H_    0.013723 0.247033 0.592932 0.164682
N18   N     N_3   0.026152 0.753827 0.699123 -0.458971
H45   H     H_    0.013692 0.751995 0.596368 0.165946
H46   H     H_    0.001740 0.697283 0.746134 0.215098

loop_
_geom_bond_atom_site_label_1
_geom_bond_atom_site_label_2
_ccdc_geom_bond_type
C58   C62   A    
O15   Zn4   S    
C38   H6    S    
C44   N14   S    
O8    Zn4   S    
C37   H5    S    
C7    N7    S    
C13   C32   S    
N5    H23   S    
C14   C31   S    
C1    C62   S    
C16   C56   A    
N6    H25   S    
C53   C59   A    
C65   N9    T    
C54   C60   A    
C3    C64   S    
C4    C63   S    
O4    Zn2   S    
C50   C54   A    
C40   C60   A    
C22   C24   A    
C19   C21   A    
C24   C26   A    
C5    C11   A    
C4    O8    A    
N7    H28   S    
O3    Zn2   S    
C6    C12   A    
O14   Zn3   S    
C51   N17   S    
C45   H9    S    
C23   H3    S    
C43   N13   S    
C41   N11   S    
C22   H2    S    
C9    C13   A    
C38   C58   A    
C11   C15   A    
C49   N15   S    
C6    N6    S    
C36   C66   S    
N8    H30   S    
C20   H22   S    
C28   N2    A    
C18   H20   S    
C40   C44   A    
C32   O14   A    
O12   Zn2   S    
C31   O9    A    
C40   H8    S    
C17   C27   A    
C18   C20   A    
C2    C61   S    
N2    Zn4   S    
O11   Zn2   S    
C1    O1    A    
C12   C16   A    
C26   C28   A    
N17   H44   S    
C44   C46   A    
C60   C64   A    
N17   H43   S    
C13   C53   A    
C10   H14   S    
C34   O16   A    
O1    Zn1   S    
C18   C28   A    
N18   H45   S    
N5    H24   S    
C10   C14   A    
C47   C51   A    
C5    N5    S    
C2    O6    A    
C32   O10   A    
C17   H19   S    
C34   O12   A    
C31   O13   A    
C30   H18   S    
C42   C48   A    
N12   H34   S    
N11   H32   S    
C29   H17   S    
C16   C33   S    
C3    O7    A    
O2    Zn1   S    
C45   C49   A    
C1    O5    A    
C39   C59   A    
N3    Zn1   S    
C41   C47   A    
C5    C61   A    
C3    O3    A    
C9    H13   S    
C2    O2    A    
C43   C45   A    
C7    C63   A    
C11   H15   S    
C8    C64   A    
C4    O4    A    
C35   N3    A    
N14   H38   S    
C14   C54   A    
C20   C22   A    
C21   C23   A    
O5    Zn3   S    
N13   H35   S    
C33   O11   A    
C26   N4    A    
C30   N2    A    
N11   H31   S    
C46   H10   S    
N16   H42   S    
N8    H29   S    
C8    N8    S    
O16   Zn4   S    
C36   N4    A    
C7    C9    A    
C46   C50   A    
O10   Zn1   S    
C15   C34   S    
C21   H1    S    
C52   N18   S    
C59   C63   A    
N18   H46   S    
N14   H37   S    
C19   H21   S    
N6    H26   S    
N15   H39   S    
C57   C61   A    
N1    Zn3   S    
C25   C27   A    
O9    Zn1   S    
O6    Zn3   S    
C29   C35   A    
C25   N3    A    
C42   N12   S    
C33   O15   A    
C30   C36   A    
O13   Zn3   S    
C6    C62   A    
C55   C57   A    
N12   H33   S    
N4    Zn2   S    
N7    H27   S    
C27   N1    A    
O7    Zn4   S    
N15   H40   S    
C66   N10   T    
C49   C53   A    
C12   H16   S    
C35   C65   S    
C17   C19   A    
C56   C58   A    
C51   C55   A    
C23   C25   A    
C37   C41   A    
C29   N1    A    
C24   H4    S    
C47   H11   S    
C48   H12   S    
C38   C42   A    
C52   C56   A    
C48   C52   A    
C39   C43   A    
C8    C10   A    
N13   H36   S    
C39   H7    S    
N16   H41   S    
C37   C57   A    
C50   N16   S    
C15   C55   A    
