data_mof_unit_23601.cif
_audit_creation_date              2012-12-10T19:32:49-0500
_audit_creation_method            fapswitch 2.2
_symmetry_space_group_name_H-M    P1
_symmetry_Int_Tables_number       1
_space_group_crystal_system       triclinic
_cell_length_a                    10.833221
_cell_length_b                    17.718783
_cell_length_c                    16.434858
_cell_angle_alpha                 89.964219
_cell_angle_beta                  90.10526
_cell_angle_gamma                 90.16658
_cell_volume                      3154.67625409

loop_
_atom_site_label
_atom_site_type_symbol
_atom_type_description
_atom_site_fract_x
_atom_site_fract_y
_atom_site_fract_z
_atom_type_partial_charge
C1    C     C_R   0.499899 0.355216 0.500049 0.788100
C2    C     C_R   0.500592 0.644771 0.499995 0.784171
C3    C     C_R   0.871875 0.497211 0.500711 -0.083044
C4    C     C_R   0.128224 0.504557 0.499796 -0.083772
C5    C     C_R   0.939016 0.466440 0.566535 0.001156
C6    C     C_R   0.061103 0.536572 0.434606 0.000873
C7    C     C_R   0.484352 0.846159 0.573204 -0.156904
C8    C     C_R   0.514233 0.153628 0.427107 -0.156465
C9    C     C_R   0.483380 0.767502 0.573065 -0.197279
C10   C     C_R   0.513128 0.232296 0.426827 -0.195584
C11   C     C_R   0.502063 0.727666 0.500201 -0.036004
C12   C     C_R   0.500146 0.272293 0.500131 -0.038707
C13   C     C_R   0.522669 0.767777 0.427690 -0.215636
C14   C     C_R   0.487571 0.232302 0.573548 -0.212144
C15   C     C_R   0.523352 0.846442 0.427956 -0.160936
C16   C     C_R   0.488820 0.153646 0.573657 -0.161945
C17   C     C_R   0.504036 0.885526 0.500647 0.152905
C18   C     C_R   0.502244 0.114416 0.500486 0.152061
C19   C     C_1   0.503800 0.966134 0.500697 -0.068826
C20   C     C_1   0.503235 0.033808 0.500646 -0.068033
C21   C     C_R   0.580429 0.549044 0.828248 0.371819
C22   C     C_R   0.436010 0.443770 0.171004 0.378020
C23   C     C_R   0.261932 0.502332 0.499860 0.800292
C24   C     C_R   0.738119 0.498190 0.500212 0.802041
C25   C     C_R   0.579673 0.546076 0.742300 0.003913
C26   C     C_R   0.438453 0.444826 0.257035 0.001550
C27   C     C_R   0.421828 0.453871 0.743514 0.057047
C28   C     C_R   0.561214 0.555209 0.256885 0.062700
C29   C     C_R   0.421737 0.453224 0.829300 -0.355459
C30   C     C_R   0.561797 0.556335 0.171114 -0.355670
C31   C     C_R   0.501755 0.500826 0.872992 0.030474
C32   C     C_R   0.499674 0.500069 0.126864 0.034488
C33   C     C_1   0.502035 0.500331 0.962653 -0.005355
C34   C     C_1   0.501591 0.500230 0.037202 -0.003388
C35   C     C_R   0.253717 0.678856 0.317510 -0.117248
C36   C     C_R   0.751376 0.326658 0.689964 -0.117510
C37   C     C_R   0.196602 0.640876 0.381915 -0.090782
C38   C     C_R   0.810291 0.361505 0.624219 -0.101785
C39   C     C_R   0.120558 0.578015 0.366555 0.120651
C40   C     C_R   0.879369 0.427834 0.636242 0.117077
C41   C     C_R   0.100086 0.555211 0.285801 -0.164926
C42   C     C_R   0.890101 0.458057 0.714947 -0.150524
C43   C     C_R   0.157830 0.593182 0.221642 -0.141293
C44   C     C_R   0.830673 0.423133 0.780437 -0.128191
C45   C     C_R   0.235117 0.654690 0.237513 -0.116479
C46   C     C_R   0.760994 0.357655 0.767907 -0.118720
C47   C     C_R   0.933189 0.531374 0.435455 -0.236790
C48   C     C_R   0.066828 0.470925 0.565359 -0.237905
Cu1   Cu    Cu3+1 0.499990 0.499980 0.580420 0.939641
Cu2   Cu    Cu3+1 0.500010 0.500020 0.419580 0.942382
H1    H     H_    0.279831 0.683980 0.187785 0.119810
H2    H     H_    0.714633 0.330882 0.818612 0.130105
H3    H     H_    0.538898 0.876747 0.371592 0.128405
H4    H     H_    0.479173 0.123466 0.630669 0.129099
H5    H     H_    0.642796 0.581405 0.708301 0.135838
H6    H     H_    0.390970 0.400898 0.290408 0.132214
H7    H     H_    0.359395 0.417015 0.710762 0.127999
H8    H     H_    0.610466 0.598697 0.289873 0.126723
H9    H     H_    0.359323 0.415732 0.861296 0.156683
H10   H     H_    0.611368 0.600701 0.139567 0.155648
H11   H     H_    0.312083 0.727180 0.329537 0.126159
H12   H     H_    0.698218 0.275642 0.680519 0.125145
H13   H     H_    0.211961 0.660164 0.443648 0.099913
H14   H     H_    0.801396 0.337276 0.563988 0.105085
H15   H     H_    0.040241 0.507694 0.272775 0.137864
H16   H     H_    0.942787 0.509219 0.725262 0.132154
H17   H     H_    0.142375 0.575134 0.159588 0.121875
H18   H     H_    0.838005 0.447094 0.840824 0.151481
H19   H     H_    0.880925 0.556741 0.386199 0.152460
H20   H     H_    0.118787 0.445829 0.614924 0.150460
H21   H     H_    0.469409 0.876219 0.629725 0.129278
H22   H     H_    0.524496 0.123420 0.370221 0.131584
H23   H     H_    0.467188 0.737970 0.629761 0.146952
H24   H     H_    0.522884 0.261703 0.369392 0.154137
H25   H     H_    0.538511 0.738429 0.370888 0.140296
H26   H     H_    0.476423 0.261717 0.630798 0.145992
N1    N     N_R   0.499970 0.499970 0.701220 -0.187748
N2    N     N_R   0.500030 0.500030 0.298780 -0.186161
O1    O     O_R   0.499990 0.391240 0.567930 -0.581139
O2    O     O_R   0.500010 0.608760 0.432070 -0.586772
O3    O     O_R   0.500000 0.391270 0.432120 -0.589830
O4    O     O_R   0.500000 0.608730 0.567880 -0.590285
O5    O     O_R   0.319640 0.499990 0.567910 -0.589924
O6    O     O_R   0.680360 0.500010 0.432090 -0.584840
O7    O     O_R   0.319650 0.500020 0.432090 -0.569555
O8    O     O_R   0.680350 0.499980 0.567910 -0.571368
O9    O     O_3   0.663802 0.595822 0.867454 -0.625795
C49   C     C_3   0.605248 0.664395 0.888627 0.051232
H27   H     H_    0.652708 0.686816 0.943545 0.169196
H28   H     H_    0.506172 0.657135 0.905718 0.124896
C50   C     C_3   0.617912 0.722408 0.819821 -0.363192
H29   H     H_    0.716797 0.728627 0.803113 0.230682
H30   H     H_    0.566148 0.702722 0.765462 0.199956
C51   C     C_3   0.567278 0.799158 0.844990 -0.922365
H31   H     H_    0.467975 0.794324 0.860970 0.253690
H32   H     H_    0.576874 0.839525 0.793651 0.255012
H33   H     H_    0.619340 0.821490 0.898100 0.255484
O10   O     O_3   0.380349 0.383894 0.131207 -0.619789
C52   C     C_3   0.260882 0.404749 0.104605 0.057064
H34   H     H_    0.244444 0.377053 0.044908 0.168470
H35   H     H_    0.249670 0.466629 0.094034 0.117181
C53   C     C_3   0.163834 0.376346 0.164977 -0.360970
H36   H     H_    0.174919 0.314548 0.173901 0.231901
H37   H     H_    0.177526 0.404524 0.224632 0.208301
C54   C     C_3   0.033227 0.392141 0.134566 -0.919394
H38   H     H_    0.019908 0.453593 0.124754 0.250246
H39   H     H_    0.965314 0.372395 0.180462 0.260172
H40   H     H_    0.015852 0.361788 0.076528 0.258226

loop_
_geom_bond_atom_site_label_1
_geom_bond_atom_site_label_2
_ccdc_geom_bond_type
C38   C40   A    
O9    C49   S    
C21   O9    S    
C22   O10   S    
C27   C29   A    
C10   H24   S    
C19   C20   T    
Cu2   O6    S    
C39   C41   A    
C54   H39   S    
C26   N2    A    
C22   C32   A    
C25   N1    A    
C15   H3    S    
C35   C37   A    
C7    H21   S    
C10   C12   A    
C45   H1    S    
C1    O3    A    
C46   H2    S    
C53   C54   S    
C7    C9    A    
C47   H19   S    
Cu2   O7    S    
C37   H13   S    
C13   H25   S    
C7    C17   A    
C30   H10   S    
C31   C33   S    
C36   C46   A    
C28   N2    A    
C40   C42   A    
C41   C43   A    
C3    C24   S    
C51   H31   S    
C1    C12   S    
C42   C44   A    
C36   H12   S    
C2    C11   S    
Cu2   N2    S    
C5    C48   A    
C44   C46   A    
C38   H14   S    
C37   C39   A    
C54   H40   S    
C8    H22   S    
C6    C47   A    
C29   H9    S    
C2    O2    A    
C4    C6    A    
C27   H7    S    
C50   H29   S    
C4    C23   S    
C41   H15   S    
C51   H33   S    
C3    C5    A    
C8    C18   A    
Cu1   O1    S    
Cu2   O2    S    
C14   H26   S    
Cu1   O4    S    
C53   H37   S    
C43   H17   S    
C50   H30   S    
C21   C31   A    
C52   H34   S    
C49   C50   S    
C33   C34   T    
C35   H11   S    
C51   H32   S    
C43   C45   A    
C23   O5    A    
C8    C10   A    
C52   H35   S    
C49   H28   S    
O10   C52   S    
C9    C11   A    
C23   O7    A    
C1    O1    A    
C14   C16   A    
C2    O4    A    
C36   C38   A    
C35   C45   A    
C4    C48   A    
C15   C17   A    
C21   C25   A    
Cu1   O8    S    
C9    H23   S    
C25   H5    S    
C48   H20   S    
C27   N1    A    
C26   H6    S    
C28   H8    S    
C54   H38   S    
Cu1   O5    S    
C13   C15   A    
C12   C14   A    
C28   C30   A    
C29   C31   A    
C50   C51   S    
C30   C32   A    
C11   C13   A    
C3    C47   A    
C17   C19   S    
Cu1   N1    S    
C18   C20   S    
C24   O6    A    
C53   H36   S    
C16   H4    S    
C44   H18   S    
C52   C53   S    
C49   H27   S    
C16   C18   A    
Cu1   Cu2   S    
C22   C26   A    
C5    C40   S    
C42   H16   S    
C6    C39   S    
C24   O8    A    
Cu2   O3    S    
C32   C34   S    
