data_mof_unit_64432.cif
_audit_creation_date              2013-03-05T16:21:56-0500
_audit_creation_method            fapswitch 2.2
_symmetry_space_group_name_H-M    P1
_symmetry_Int_Tables_number       1
_space_group_crystal_system       triclinic
_cell_length_a                    30.880538
_cell_length_b                    30.572632
_cell_length_c                    24.845342
_cell_angle_alpha                 89.900276
_cell_angle_beta                  128.517614
_cell_angle_gamma                 90.00213
_cell_volume                      18352.6911478

loop_
_atom_site_label
_atom_site_type_symbol
_atom_site_description
_atom_site_fract_x
_atom_site_fract_y
_atom_site_fract_z
_atom_type_partial_charge
O1    O     O_R   0.821190 0.768980 0.500000 -0.554434
O2    O     O_R   0.178810 0.768980 0.500000 -0.558164
O3    O     O_R   0.321190 0.268980 0.500000 -0.564571
O4    O     O_R   0.678810 0.268980 0.500000 -0.547413
O5    O     O_R   0.768960 0.821170 0.500020 -0.589798
O6    O     O_R   0.231040 0.821170 0.499980 -0.585592
O7    O     O_R   0.268960 0.321170 0.500020 -0.575713
O8    O     O_R   0.731040 0.321170 0.499980 -0.605721
C1    C     C_R   0.808373 0.809607 0.498489 0.868358
C2    C     C_R   0.191606 0.809629 0.501493 0.868165
C3    C     C_R   0.308435 0.309680 0.498447 0.862559
C4    C     C_R   0.690855 0.309427 0.499876 0.880858
O9    O     O_R   0.726180 0.723900 0.400140 -0.552089
O10   O     O_R   0.273820 0.723900 0.599860 -0.528096
O11   O     O_R   0.226180 0.223900 0.400140 -0.527589
O12   O     O_R   0.773820 0.223900 0.599860 -0.529383
O13   O     O_R   0.673950 0.776090 0.400160 -0.561545
O14   O     O_R   0.326050 0.776090 0.599840 -0.593098
O15   O     O_R   0.173950 0.276090 0.400160 -0.591091
O16   O     O_R   0.826050 0.276090 0.599840 -0.599409
C5    C     C_R   0.683311 0.749558 0.367530 0.881530
C6    C     C_R   0.316732 0.749491 0.632719 0.821120
C7    C     C_R   0.183382 0.249706 0.367303 0.820650
C8    C     C_R   0.816512 0.249728 0.632689 0.831547
Cu1   Cu    Cu3+1 0.780910 0.719090 0.500000 1.041242
Cu2   Cu    Cu3+1 0.219090 0.719090 0.500000 1.055619
Cu3   Cu    Cu3+1 0.280910 0.219090 0.500000 1.054645
Cu4   Cu    Cu3+1 0.719090 0.219090 0.500000 1.068969
Cu5   Cu    Cu3+1 0.719070 0.780890 0.500010 1.033876
Cu6   Cu    Cu3+1 0.280930 0.780890 0.499990 1.029263
Cu7   Cu    Cu3+1 0.219070 0.280890 0.500010 1.037583
Cu8   Cu    Cu3+1 0.780930 0.280890 0.499990 1.027086
O17   O     O_R   0.731010 0.678810 0.499990 -0.568615
O18   O     O_R   0.268990 0.678810 0.500010 -0.561084
O19   O     O_R   0.231010 0.178810 0.499990 -0.563381
O20   O     O_R   0.768990 0.178810 0.500010 -0.564189
O21   O     O_R   0.678790 0.731000 0.500010 -0.562808
O22   O     O_R   0.321210 0.731000 0.499990 -0.557199
O23   O     O_R   0.178790 0.231000 0.500010 -0.553581
O24   O     O_R   0.821210 0.231000 0.499990 -0.553421
O25   O     O_R   0.826030 0.723890 0.599860 -0.597525
O26   O     O_R   0.173970 0.723890 0.400140 -0.597370
O27   O     O_R   0.326030 0.223890 0.599860 -0.596080
O28   O     O_R   0.673970 0.223890 0.400140 -0.593130
O29   O     O_R   0.773800 0.776080 0.599870 -0.587301
O30   O     O_R   0.226200 0.776080 0.400130 -0.569520
O31   O     O_R   0.273800 0.276080 0.599870 -0.570760
O32   O     O_R   0.726200 0.276080 0.400130 -0.566507
C9    C     C_R   0.689498 0.690627 0.497575 0.886727
C10   C     C_R   0.308613 0.690416 0.498768 0.867985
C11   C     C_R   0.191421 0.190397 0.501317 0.865331
C12   C     C_R   0.808561 0.190399 0.498655 0.864440
C13   C     C_R   0.816192 0.749869 0.632555 0.779910
C14   C     C_R   0.183763 0.749977 0.367369 0.832518
C15   C     C_R   0.316188 0.249864 0.632620 0.829638
C16   C     C_R   0.683594 0.250155 0.367416 0.830151
C17   C     C_R   0.620030 0.788489 0.256093 -0.186814
C18   C     C_R   0.389294 0.785636 0.744511 -0.194596
C19   C     C_R   0.112636 0.287366 0.256050 -0.195855
C20   C     C_R   0.886371 0.287622 0.743715 -0.190285
H1    H     H_    0.628283 0.818555 0.284049 0.183603
H2    H     H_    0.388580 0.813228 0.716565 0.185660
H3    H     H_    0.114257 0.315079 0.284355 0.187848
H4    H     H_    0.884480 0.315445 0.715270 0.169513
C21   C     C_R   0.585366 0.789912 0.184339 -0.121923
C22   C     C_R   0.424511 0.787362 0.816329 -0.132914
C23   C     C_R   0.077741 0.289750 0.184286 -0.131989
C24   C     C_R   0.921018 0.290021 0.815452 -0.132464
H5    H     H_    0.566889 0.820834 0.158530 0.174810
H6    H     H_    0.450621 0.815784 0.841904 0.172506
H7    H     H_    0.052632 0.318738 0.158984 0.172646
H8    H     H_    0.945681 0.319150 0.840614 0.167492
C25   C     C_R   0.574178 0.751747 0.146458 -0.015358
C26   C     C_R   0.426570 0.752491 0.854569 -0.012940
C27   C     C_R   0.074436 0.254663 0.145699 -0.012296
C28   C     C_R   0.924701 0.254754 0.854199 -0.009116
C29   C     C_R   0.598676 0.712211 0.181687 -0.186165
C30   C     C_R   0.392191 0.716218 0.819699 -0.191386
C31   C     C_R   0.107439 0.217601 0.180040 -0.193313
C32   C     C_R   0.892258 0.217521 0.820031 -0.189435
H9    H     H_    0.590016 0.682402 0.153059 0.196681
H10   H     H_    0.393392 0.688936 0.848491 0.195252
H11   H     H_    0.105216 0.190209 0.150795 0.193391
H12   H     H_    0.894771 0.189995 0.849400 0.193633
C33   C     C_R   0.633535 0.710236 0.253727 0.344913
C34   C     C_R   0.356741 0.713946 0.747779 0.336126
C35   C     C_R   0.142711 0.214729 0.251918 0.337913
C36   C     C_R   0.857238 0.214634 0.748186 0.334792
C37   C     C_R   0.644760 0.749025 0.291603 -0.125483
C38   C     C_R   0.354952 0.749182 0.709108 -0.154227
C39   C     C_R   0.145499 0.250071 0.290968 -0.154169
C40   C     C_R   0.854134 0.250136 0.708996 -0.143368
N1    N     N_R   0.513184 0.714755 0.034649 -0.211084
N2    N     N_R   0.478450 0.714973 0.966269 -0.215318
N3    N     N_R   0.017400 0.217330 0.034213 -0.215762
N4    N     N_R   0.982097 0.217354 0.965876 -0.216545
C41   C     C_R   0.465198 0.752900 0.930617 0.437852
C42   C     C_R   0.536004 0.752490 0.070406 0.441613
C43   C     C_R   0.963583 0.255499 0.930118 0.436749
C44   C     C_R   0.035462 0.255451 0.069779 0.436298
N5    N     N_R   0.488157 0.790737 0.966265 -0.218112
N6    N     N_R   0.522739 0.790552 0.034860 -0.219716
N7    N     N_R   0.981746 0.293774 0.965549 -0.217509
N8    N     N_R   0.016834 0.293749 0.034157 -0.218531
C45   C     C_R   0.897614 0.844222 0.547406 -0.111866
C46   C     C_R   0.101970 0.842314 0.456034 -0.118307
C47   C     C_R   0.397576 0.338169 0.534206 -0.099593
C48   C     C_R   0.606131 0.352733 0.442597 -0.121918
C49   C     C_R   0.840252 0.844199 0.498048 -0.168362
C50   C     C_R   0.159522 0.844244 0.501608 -0.171281
C51   C     C_R   0.340947 0.344252 0.498642 -0.179926
C52   C     C_R   0.659480 0.343477 0.501455 -0.157198
C53   C     C_R   0.813734 0.881367 0.455266 0.366893
C54   C     C_R   0.185395 0.882823 0.540537 0.371837
C55   C     C_R   0.317431 0.385881 0.469555 0.375460
C56   C     C_R   0.685115 0.371392 0.558646 0.363332
C57   C     C_R   0.845933 0.914152 0.454755 0.230272
C58   C     C_R   0.153178 0.915319 0.541493 0.229376
C59   C     C_R   0.349485 0.418143 0.468054 0.228585
C60   C     C_R   0.653377 0.403998 0.560028 0.233760
C61   C     C_R   0.904391 0.910753 0.501070 -0.299881
C62   C     C_R   0.095042 0.910196 0.499134 -0.289010
C63   C     C_R   0.405901 0.409698 0.501089 -0.282233
C64   C     C_R   0.597145 0.410511 0.501140 -0.317202
C65   C     C_R   0.928882 0.877393 0.549965 0.025285
C66   C     C_R   0.070385 0.875104 0.453734 0.016800
C67   C     C_R   0.429634 0.370753 0.536914 0.015648
C68   C     C_R   0.575951 0.386083 0.442067 0.039423
C69   C     C_3   0.975095 0.847284 0.571040 0.276321
C70   C     C_3   0.027758 0.843780 0.440883 0.270613
C71   C     C_3   0.464541 0.339337 0.532958 0.246659
C72   C     C_3   0.522927 0.361152 0.397251 0.300016
C73   C     C_3   0.940007 0.810145 0.567146 0.296173
C74   C     C_3   0.062623 0.807337 0.443065 0.309705
C75   C     C_3   0.428579 0.302997 0.528906 0.313878
C76   C     C_3   0.556645 0.323743 0.398818 0.264863
H13   H     H_    0.981872 0.846307 0.532002 0.055248
H14   H     H_    0.026042 0.843431 0.484418 0.060512
H15   H     H_    0.460518 0.344418 0.485456 0.072557
H16   H     H_    0.504547 0.354641 0.423455 0.060852
H17   H     H_    0.956605 0.794184 0.617048 0.104172
H18   H     H_    0.043720 0.790425 0.393134 0.106308
H19   H     H_    0.449920 0.280274 0.573845 0.109211
H20   H     H_    0.547690 0.316053 0.348890 0.106818
C77   C     C_R   0.834735 0.762447 0.744569 -0.224794
C78   C     C_R   0.166169 0.764734 0.256359 -0.151031
C79   C     C_R   0.333296 0.264106 0.743315 -0.155049
C80   C     C_R   0.663727 0.265429 0.255054 -0.159898
H21   H     H_    0.791845 0.772007 0.716292 0.192425
H22   H     H_    0.207964 0.777213 0.285223 0.216715
H23   H     H_    0.291362 0.276385 0.714253 0.217096
H24   H     H_    0.705905 0.276772 0.283039 0.218502
C81   C     C_R   0.870350 0.763309 0.816883 0.350041
C82   C     C_R   0.133178 0.762296 0.184453 0.339228
C83   C     C_R   0.366153 0.261666 0.815199 0.341332
C84   C     C_R   0.627969 0.266256 0.182750 0.335123
C85   C     C_R   0.926533 0.751223 0.853533 -0.057492
C86   C     C_R   0.078155 0.746239 0.145728 -0.066860
C87   C     C_R   0.421410 0.245981 0.854248 -0.067421
C88   C     C_R   0.572620 0.251975 0.146370 -0.055060
C89   C     C_R   0.945634 0.739042 0.817137 -0.186841
C90   C     C_R   0.059430 0.730746 0.181498 -0.166728
C91   C     C_R   0.440458 0.230755 0.818749 -0.165218
C92   C     C_R   0.554388 0.237816 0.182997 -0.185092
H25   H     H_    0.988482 0.729658 0.844509 0.173940
H26   H     H_    0.017838 0.718154 0.153953 0.182885
H27   H     H_    0.482207 0.218399 0.846499 0.184925
H28   H     H_    0.512150 0.226813 0.155810 0.172120
C93   C     C_R   0.909650 0.737923 0.745373 -0.168404
C94   C     C_R   0.093617 0.731701 0.253281 -0.179689
C95   C     C_R   0.406384 0.231672 0.746954 -0.177437
C96   C     C_R   0.590558 0.236694 0.254764 -0.181143
H29   H     H_    0.925541 0.728310 0.718675 0.159104
H30   H     H_    0.077812 0.719443 0.278970 0.163308
H31   H     H_    0.422430 0.219647 0.721472 0.166434
H32   H     H_    0.575349 0.225433 0.281610 0.160013
C97   C     C_R   0.853999 0.749835 0.708491 -0.083438
C98   C     C_R   0.147085 0.749113 0.291336 -0.085898
C99   C     C_R   0.352728 0.248819 0.708630 -0.088204
C100  C     C_R   0.645502 0.250549 0.291429 -0.084205
N9    N     N_R   0.014297 0.771893 0.964046 -0.191585
N10   N     N_R   0.990049 0.724994 0.033800 -0.217805
N11   N     N_R   0.510522 0.226487 0.966520 -0.215456
N12   N     N_R   0.483836 0.270771 0.035601 -0.195730
N13   N     N_R   0.049834 0.770775 0.032492 -0.144253
N14   N     N_R   0.954170 0.726399 0.965322 -0.174017
N15   N     N_R   0.546295 0.228152 0.034977 -0.165681
N16   N     N_R   0.448402 0.269411 0.967175 -0.143821
C101  C     C_R   0.038879 0.746988 0.069002 0.444317
C102  C     C_R   0.965723 0.749873 0.929254 0.459177
C103  C     C_R   0.533516 0.250323 0.070698 0.461612
C104  C     C_R   0.460588 0.246926 0.930990 0.442818
C105  C     C_R   0.679445 0.628130 0.549807 0.035622
C106  C     C_R   0.355653 0.619246 0.535115 0.078296
C107  C     C_R   0.146282 0.118472 0.467162 0.075609
C108  C     C_R   0.853728 0.118406 0.532844 0.075758
C109  C     C_R   0.654758 0.657810 0.495540 -0.175086
C110  C     C_R   0.338458 0.656312 0.493415 -0.212570
C111  C     C_R   0.161659 0.156244 0.506852 -0.210998
C112  C     C_R   0.838255 0.156244 0.493038 -0.209966
C113  C     C_R   0.596037 0.659570 0.447137 0.329192
C114  C     C_R   0.349506 0.658790 0.445950 0.325731
C115  C     C_R   0.148896 0.159376 0.552581 0.328438
C116  C     C_R   0.850762 0.159393 0.447043 0.326261
C117  C     C_R   0.565007 0.627342 0.450023 -0.245758
C118  C     C_R   0.383527 0.626779 0.448623 -0.249514
C119  C     C_R   0.114801 0.127348 0.549695 -0.247116
C120  C     C_R   0.884784 0.127309 0.449841 -0.245424
H33   H     H_    0.520356 0.626960 0.411396 0.202171
H34   H     H_    0.393035 0.628658 0.413414 0.198814
H35   H     H_    0.103934 0.129733 0.583498 0.193918
H36   H     H_    0.895518 0.129719 0.415898 0.193832
C121  C     C_R   0.591499 0.594532 0.500570 -0.146088
C122  C     C_R   0.406621 0.593166 0.497881 -0.132645
C123  C     C_R   0.093435 0.093004 0.502038 -0.126198
C124  C     C_R   0.906305 0.092906 0.497657 -0.125273
C125  C     C_R   0.648436 0.597306 0.552787 0.135128
C126  C     C_R   0.389655 0.588577 0.537883 0.190438
C127  C     C_R   0.112361 0.087668 0.464327 0.163719
C128  C     C_R   0.887567 0.087558 0.535588 0.153020
C129  C     C_3   0.692226 0.563199 0.580343 -0.375079
C130  C     C_3   0.422646 0.581961 0.613457 -0.455391
C131  C     C_3   0.081228 0.079726 0.389411 -0.456365
C132  C     C_3   0.918868 0.079483 0.610555 -0.454864
C133  C     C_3   0.726260 0.597206 0.576901 -0.458972
C134  C     C_3   0.384851 0.615431 0.610506 -0.410685
C135  C     C_3   0.118912 0.113362 0.392467 -0.394404
C136  C     C_3   0.881275 0.113170 0.607603 -0.392291
H37   H     H_    0.710736 0.553728 0.633947 0.241179
H38   H     H_    0.417631 0.548436 0.626249 0.219438
H39   H     H_    0.087730 0.046030 0.378918 0.216197
H40   H     H_    0.912415 0.045784 0.621191 0.215823
H41   H     H_    0.678838 0.535571 0.544003 0.211528
H42   H     H_    0.466143 0.593339 0.643007 0.212650
H43   H     H_    0.037304 0.090460 0.357857 0.217315
H44   H     H_    0.962785 0.090127 0.641945 0.218019
H45   H     H_    0.764201 0.607154 0.628366 0.207587
H46   H     H_    0.357914 0.600734 0.621038 0.256563
H47   H     H_    0.147279 0.098634 0.384283 0.253478
H48   H     H_    0.853007 0.098467 0.615989 0.253355
H49   H     H_    0.732488 0.589367 0.538446 0.227766
H50   H     H_    0.406385 0.646079 0.639000 0.204939
H51   H     H_    0.096886 0.143468 0.362115 0.209291
H52   H     H_    0.903353 0.143210 0.637848 0.208978
O33   O     O_R   0.425940 0.545090 0.442170 -0.556640
O34   O     O_R   0.574060 0.545090 0.557830 -0.567498
O35   O     O_R   0.925940 0.045090 0.442170 -0.554217
O36   O     O_R   0.074060 0.045090 0.557830 -0.554588
O37   O     O_R   0.483700 0.545120 0.557760 -0.601241
O38   O     O_R   0.516300 0.545120 0.442240 -0.587382
O39   O     O_R   0.983700 0.045120 0.557760 -0.602620
O40   O     O_R   0.016300 0.045120 0.442240 -0.602821
C137  C     C_R   0.441058 0.560178 0.499743 0.861214
C138  C     C_R   0.559650 0.559500 0.500111 0.809215
C139  C     C_R   0.940819 0.059946 0.499706 0.839625
C140  C     C_R   0.059078 0.059992 0.500192 0.845793
O41   O     O_R   0.925990 0.954920 0.442210 -0.552329
O42   O     O_R   0.074010 0.954920 0.557790 -0.550250
O43   O     O_R   0.425990 0.454920 0.442210 -0.565752
O44   O     O_R   0.574010 0.454920 0.557790 -0.528065
O45   O     O_R   0.983760 0.954940 0.557800 -0.564985
O46   O     O_R   0.016240 0.954940 0.442200 -0.569760
O47   O     O_R   0.483760 0.454940 0.557800 -0.565498
O48   O     O_R   0.516240 0.454940 0.442200 -0.565762
C141  C     C_R   0.939815 0.941300 0.500068 0.863089
C142  C     C_R   0.059933 0.941045 0.500012 0.873215
C143  C     C_R   0.440391 0.440890 0.500067 0.888791
C144  C     C_R   0.560604 0.441277 0.500355 0.841140
Cu9   Cu    Cu3+1 0.465760 0.500000 0.431570 1.065590
Cu10  Cu    Cu3+1 0.534240 0.500000 0.568430 1.068174
Cu11  Cu    Cu3+1 0.965760 0.000000 0.431570 1.060909
Cu12  Cu    Cu3+1 0.034240 1.000000 0.568430 1.063746
N17   N     N_R   0.849221 0.777833 0.851659 0.131860
O49   O     O_R   0.879596 0.801592 0.906958 -0.315281
O50   O     O_R   0.797306 0.772055 0.823467 -0.326453
N18   N     N_R   0.157485 0.774092 0.152619 0.141313
O51   O     O_R   0.159221 0.745545 0.115207 -0.291687
O52   O     O_R   0.187771 0.809135 0.172429 -0.304339
N19   N     N_R   0.341515 0.273178 0.846681 0.140031
O53   O     O_R   0.339145 0.244252 0.883261 -0.296648
O54   O     O_R   0.311405 0.308365 0.827052 -0.309351
N20   N     N_R   0.648060 0.282869 0.147693 0.133252
O55   O     O_R   0.616137 0.306207 0.091995 -0.315193
O56   O     O_R   0.700255 0.279343 0.175880 -0.289576
N21   N     N_R   0.567402 0.691823 0.393114 0.141910
O57   O     O_R   0.588066 0.705610 0.363849 -0.331900
O58   O     O_R   0.517452 0.703786 0.367454 -0.308498
N22   N     N_R   0.326707 0.692933 0.395175 0.144608
O59   O     O_R   0.276016 0.705962 0.363215 -0.369235
O60   O     O_R   0.353408 0.706472 0.373496 -0.301727
N23   N     N_R   0.170104 0.194159 0.601895 0.144779
O61   O     O_R   0.220866 0.207376 0.635205 -0.368565
O62   O     O_R   0.141819 0.208119 0.621120 -0.317099
N24   N     N_R   0.829430 0.194265 0.397613 0.145036
O63   O     O_R   0.778764 0.207731 0.364656 -0.365772
O64   O     O_R   0.857498 0.208126 0.378000 -0.315261
N25   N     N_R   0.655285 0.668457 0.286860 0.133427
O65   O     O_R   0.652937 0.656366 0.335223 -0.312244
O66   O     O_R   0.669196 0.639736 0.261459 -0.330582
N26   N     N_R   0.324526 0.675002 0.715705 0.135890
O67   O     O_R   0.328659 0.652840 0.674481 -0.378626
O68   O     O_R   0.299913 0.657197 0.737786 -0.326896
N27   N     N_R   0.173627 0.175114 0.283544 0.135781
O69   O     O_R   0.169273 0.153604 0.325139 -0.380636
O70   O     O_R   0.197242 0.156271 0.260881 -0.329965
N28   N     N_R   0.826963 0.174835 0.716749 0.135449
O71   O     O_R   0.831624 0.153734 0.675214 -0.382958
O72   O     O_R   0.803650 0.155478 0.739492 -0.324023
O73   O     O_3   0.756487 0.883238 0.409450 -0.551869
C145  C     C_3   0.737963 0.913304 0.434283 -0.176682
H53   H     H_    0.756141 0.906611 0.488742 0.143097
H54   H     H_    0.692394 0.910193 0.402799 0.182048
H55   H     H_    0.746985 0.947527 0.429109 0.192990
O74   O     O_3   0.242462 0.886569 0.582552 -0.542407
C146  C     C_3   0.256639 0.915968 0.551854 -0.171076
H56   H     H_    0.236601 0.907215 0.497453 0.139686
H57   H     H_    0.302061 0.914466 0.580785 0.181963
H58   H     H_    0.246054 0.950191 0.554518 0.189462
O75   O     O_3   0.261920 0.393445 0.436888 -0.535518
C147  C     C_3   0.257335 0.419790 0.479777 -0.166137
H59   H     H_    0.280358 0.405653 0.532379 0.136275
H60   H     H_    0.213065 0.421664 0.457109 0.184234
H61   H     H_    0.271721 0.453702 0.483085 0.185182
O76   O     O_3   0.739264 0.363372 0.615998 -0.551582
C148  C     C_3   0.774013 0.394483 0.618040 -0.208022
H62   H     H_    0.768479 0.395137 0.569283 0.149642
H63   H     H_    0.817655 0.385341 0.659990 0.176880
H64   H     H_    0.767253 0.427711 0.629611 0.192916
N29   N     N_R   0.819200 0.949842 0.406733 0.140159
O77   O     O_R   0.777155 0.942632 0.342721 -0.291412
O78   O     O_R   0.833886 0.989955 0.428016 -0.374880
N30   N     N_R   0.179676 0.952459 0.586195 0.138821
O79   O     O_R   0.162202 0.991825 0.562184 -0.382840
O80   O     O_R   0.224034 0.947317 0.649569 -0.286133
N31   N     N_R   0.324214 0.458439 0.431531 0.136093
O81   O     O_R   0.347274 0.495652 0.460919 -0.398292
O82   O     O_R   0.275974 0.458241 0.370913 -0.284331
N32   N     N_R   0.677948 0.428343 0.622166 0.153214
O83   O     O_R   0.703091 0.407990 0.680647 -0.291141
O84   O     O_R   0.681499 0.470681 0.621773 -0.396390
O85   O     O_3   0.022188 0.856725 0.639062 -0.560980
C149  C     C_3   0.068073 0.833404 0.654539 -0.247734
H65   H     H_    0.077045 0.842257 0.618887 0.160803
H66   H     H_    0.061851 0.797563 0.653979 0.145228
H67   H     H_    0.104985 0.842240 0.707278 0.212876
O86   O     O_3   0.977188 0.849953 0.374125 -0.568724
C150  C     C_3   0.932741 0.838417 0.373587 -0.235577
H68   H     H_    0.929303 0.861638 0.405183 0.157734
H69   H     H_    0.936875 0.804265 0.391820 0.153132
H70   H     H_    0.893759 0.840492 0.319973 0.210221
O87   O     O_3   0.518953 0.339056 0.595958 -0.568115
C151  C     C_3   0.555424 0.320869 0.586035 -0.216396
H71   H     H_    0.557062 0.341151 0.550138 0.147165
H72   H     H_    0.543958 0.286588 0.567474 0.149241
H73   H     H_    0.597688 0.320327 0.636162 0.220655
O88   O     O_3   0.487351 0.381499 0.332122 -0.552871
C152  C     C_3   0.435446 0.360577 0.292758 -0.260991
H74   H     H_    0.416191 0.361979 0.318521 0.158733
H75   H     H_    0.438947 0.326190 0.281425 0.143496
H76   H     H_    0.407413 0.377956 0.242845 0.212375
O89   O     O_3   0.920060 0.781513 0.511540 -0.564315
C153  C     C_3   0.958890 0.747857 0.533002 -0.331056
H77   H     H_    0.966297 0.728616 0.576114 0.168413
H78   H     H_    0.998371 0.761141 0.547554 0.148160
H79   H     H_    0.942035 0.725160 0.489296 0.199563
O90   O     O_3   0.086685 0.780118 0.501369 -0.566929
C154  C     C_3   0.054950 0.741746 0.482096 -0.305476
H80   H     H_    0.058520 0.721209 0.448108 0.174007
H81   H     H_    0.010767 0.749284 0.456420 0.139287
H82   H     H_    0.071270 0.722486 0.529129 0.197871
O91   O     O_3   0.394340 0.282956 0.463461 -0.562083
C155  C     C_3   0.422908 0.247805 0.461686 -0.294921
H83   H     H_    0.435296 0.222901 0.501708 0.164354
H84   H     H_    0.459507 0.259531 0.467144 0.140177
H85   H     H_    0.394832 0.231586 0.410873 0.207278
O92   O     O_3   0.561069 0.287267 0.437042 -0.569064
C156  C     C_3   0.515723 0.259163 0.393737 -0.331424
H86   H     H_    0.513594 0.247680 0.349653 0.165162
H87   H     H_    0.476314 0.275174 0.375262 0.146192
H88   H     H_    0.521108 0.229907 0.423856 0.200434

loop_
_geom_bond_atom_site_label_1
_geom_bond_atom_site_label_2
_geom_bond_distance
_ccdc_geom_bond_type
C43   N7    1.359186 A    
C108  C136  1.493396 S    
O38   C138  1.287444 A    
O48   Cu9   1.970701 S    
C35   C39   1.419796 A    
C133  H45   1.111597 S    
N23   O61   1.300281 A    
C31   C35   1.400010 A    
C10   C110  1.451696 S    
N27   O70   1.301259 A    
O47   C143  1.282609 A    
N20   O55   1.301314 A    
C152  H74   1.113227 S    
C94   C98   1.400298 A    
C82   C86   1.421002 A    
Cu11  Cu12  2.660479 S    
N4    C43   1.356477 A    
C129  C133  1.518018 S    
C44   N8    1.359221 A    
C155  H83   1.112826 S    
Cu6   O22   1.968195 S    
O45   Cu12  1.971267 S    
C71   O87   1.413375 S    
O4    Cu4   1.968193 S    
O46   Cu11  1.970701 S    
C78   H22   1.083376 S    
O47   Cu10  1.971267 S    
C116  C120  1.406987 A    
O76   C148  1.411036 S    
O4    C4    1.291846 A    
C79   C83   1.402607 A    
N29   O77   1.301171 A    
C118  C122  1.403921 A    
O15   Cu7   1.952780 S    
C122  C137  1.445274 S    
C70   C74   1.526647 S    
C132  C136  1.519046 S    
Cu1   Cu5   2.686526 S    
C145  H54   1.109226 S    
C59   N31   1.436759 S    
Cu3   Cu7   2.686526 S    
C147  H61   1.110782 S    
Cu4   Cu8   2.686427 S    
O41   C141  1.286705 A    
C34   C38   1.420206 A    
Cu1   O25   1.952984 S    
N31   O82   1.301187 A    
C27   C44   1.476260 S    
C149  H65   1.113330 S    
N2    C41   1.357045 A    
Cu3   O19   1.972406 S    
O74   C146  1.412362 S    
C42   N6    1.359319 A    
O33   C137  1.283502 A    
C64   C144  1.459778 S    
O13   C5    1.301148 A    
C14   C98   1.478971 S    
Cu5   O29   1.951852 S    
N14   C102  1.356960 A    
O15   C7    1.303978 A    
N9    C102  1.355503 A    
C30   H10   1.083375 S    
O11   Cu3   1.951855 S    
N27   O69   1.299705 A    
C136  H52   1.112308 S    
C120  H36   1.083721 S    
C151  H71   1.112083 S    
N28   O71   1.299679 A    
N12   C103  1.355272 A    
O9    C5    1.298551 A    
O2    Cu2   1.968193 S    
C19   C39   1.408065 A    
O10   Cu2   1.952493 S    
C69   C73   1.530460 S    
O6    Cu6   1.972231 S    
C124  C139  1.444407 S    
O19   C11   1.292844 A    
C70   H14   1.115444 S    
C113  N21   1.439800 S    
N26   O67   1.299853 A    
C45   C73   1.496139 S    
C94   H30   1.083110 S    
C130  H42   1.112109 S    
C121  C125  1.393200 A    
C87   C104  1.492333 S    
C88   C103  1.472445 S    
O34   Cu10  1.970711 S    
C149  H67   1.109111 S    
C13   C97   1.476180 S    
C17   H1    1.083523 S    
C59   C63   1.412011 A    
C19   H3    1.083114 S    
C155  H85   1.109161 S    
C107  C135  1.493387 S    
C20   H4    1.083012 S    
C20   C24   1.397183 A    
C105  C133  1.490867 S    
C32   C36   1.399928 A    
C63   C143  1.441487 S    
C22   H6    1.082892 S    
C115  C119  1.406638 A    
C154  H82   1.109207 S    
N19   O54   1.301184 A    
C67   C71   1.492159 S    
O3    C3    1.298399 A    
C47   C67   1.376277 A    
N31   O81   1.299943 A    
C79   C99   1.402359 A    
C69   H13   1.112796 S    
N21   O58   1.301467 A    
C25   C29   1.403959 A    
C81   N17   1.439726 S    
C27   C31   1.401492 A    
C89   H25   1.083568 S    
N22   O60   1.301402 A    
O23   C11   1.295466 A    
C36   N28   1.434686 S    
C35   N27   1.434634 S    
C91   H27   1.082675 S    
O87   C151  1.408807 S    
C107  C127  1.377470 A    
C9    C109  1.446577 S    
C105  C125  1.377871 A    
N23   O62   1.301388 A    
C136  H48   1.110705 S    
C60   N32   1.434626 S    
C131  C135  1.519094 S    
C134  H50   1.112315 S    
C153  H77   1.112785 S    
C22   C26   1.401612 A    
C151  H73   1.109129 S    
C78   C98   1.402491 A    
C58   C62   1.415083 A    
C148  H63   1.109136 S    
C83   N19   1.434122 S    
C19   C23   1.397172 A    
C85   C102  1.472973 S    
C33   N25   1.438048 S    
C156  H88   1.109186 S    
C110  C114  1.419015 A    
C116  N24   1.437593 S    
C12   C112  1.452799 S    
O44   C144  1.283728 A    
C50   C54   1.416467 A    
O20   C12   1.292710 A    
O8    C4    1.290274 A    
C89   C93   1.395550 A    
C75   H19   1.115548 S    
C29   C33   1.402101 A    
O37   Cu10  1.972939 S    
C119  H35   1.083741 S    
N25   O66   1.301344 A    
C95   C99   1.400075 A    
C8    C40   1.483553 S    
C93   C97   1.401123 A    
C107  C111  1.397188 A    
C20   C40   1.407970 A    
C25   C42   1.478542 S    
C83   C87   1.421060 A    
C84   C88   1.416364 A    
N30   O79   1.300839 A    
C122  C126  1.389217 A    
C56   C60   1.413343 A    
C147  H60   1.109178 S    
C79   H23   1.083361 S    
O5    C1    1.290541 A    
C65   C69   1.491911 S    
C118  H34   1.083730 S    
C63   C67   1.389562 A    
C72   C76   1.530729 S    
C48   C68   1.375878 A    
C82   N18   1.434374 S    
O25   C13   1.301008 A    
C11   C111  1.452815 S    
C53   C57   1.417428 A    
O27   C15   1.302248 A    
Cu2   Cu6   2.686427 S    
C55   C59   1.414146 A    
C57   N29   1.436794 S    
C92   C96   1.395476 A    
C23   C27   1.400693 A    
Cu5   O21   1.968124 S    
O42   C142  1.286259 A    
C52   C56   1.406139 A    
C91   C95   1.397098 A    
C62   C142  1.447435 S    
O16   Cu8   1.952141 S    
C45   C49   1.391412 A    
C146  H58   1.110483 S    
C129  H41   1.112332 S    
O14   C6    1.304547 A    
C47   C51   1.395822 A    
Cu6   O30   1.952493 S    
C124  C128  1.388647 A    
O39   Cu12  1.972939 S    
O40   Cu11  1.973499 S    
N13   C101  1.358690 A    
C24   C28   1.400812 A    
N20   O56   1.301482 A    
N16   C104  1.358672 A    
O10   C6    1.299745 A    
O3    Cu3   1.968124 S    
C150  H70   1.109068 S    
C84   N20   1.439800 S    
C106  C110  1.396532 A    
C34   N26   1.434602 S    
N17   O50   1.301459 A    
C155  H84   1.110641 S    
C87   C91   1.410027 A    
O44   Cu10  1.970633 S    
C77   H21   1.083308 S    
C114  N22   1.437346 S    
C156  H87   1.111265 S    
C71   H15   1.117689 S    
C46   C74   1.495691 S    
N18   O51   1.301347 A    
C130  H38   1.111615 S    
C80   C100  1.404456 A    
C113  C117  1.406927 A    
O38   Cu9   1.973499 S    
C153  H79   1.109147 S    
C96   H32   1.083222 S    
Cu1   O17   1.972406 S    
O2    C2    1.297609 A    
C18   H2    1.083103 S    
C146  H57   1.109201 S    
N5    N6    1.333470 A    
O13   Cu5   1.952780 S    
C54   O74   1.384740 S    
C4    C52   1.439247 S    
C32   H12   1.083513 S    
C55   O75   1.384666 S    
N11   C104  1.360234 A    
C5    C37   1.476180 S    
Cu2   O26   1.952346 S    
C17   C37   1.405150 A    
C88   C92   1.403312 A    
C16   C100  1.477161 S    
N24   O63   1.300420 A    
C149  H66   1.111091 S    
C66   C70   1.493113 S    
O17   C9    1.296769 A    
O91   C155  1.408478 S    
C115  N23   1.437344 S    
N10   N14   1.332646 A    
O90   C154  1.408321 S    
C47   C75   1.499235 S    
C90   H26   1.082718 S    
C154  H80   1.112306 S    
N26   O68   1.301245 A    
C151  H72   1.111208 S    
N28   O72   1.301264 A    
N19   O53   1.301341 A    
O41   Cu11  1.969927 S    
O42   Cu12  1.970633 S    
O43   Cu9   1.969927 S    
C64   C68   1.395569 A    
C96   C100  1.401524 A    
C117  C121  1.403074 A    
C146  H56   1.113962 S    
C152  H75   1.111369 S    
Cu7   O31   1.951852 S    
Cu9   Cu10  2.660479 S    
C111  C115  1.418988 A    
Cu8   O32   1.952493 S    
C121  C138  1.449312 S    
C15   C99   1.478624 S    
C131  H39   1.111604 S    
C1    C49   1.449461 S    
N22   O59   1.300141 A    
C3    C51   1.455704 S    
C80   H24   1.083051 S    
O1    C1    1.296994 A    
C125  C129  1.493056 S    
C150  H68   1.112311 S    
C33   C37   1.417624 A    
N3    C44   1.356429 A    
O34   C138  1.285141 A    
O85   C149  1.408702 S    
C48   C52   1.389472 A    
C45   C65   1.374249 A    
O45   C141  1.284730 A    
N21   O57   1.300132 A    
N11   N15   1.332620 A    
C74   H18   1.116834 S    
O35   Cu11  1.971420 S    
O28   C16   1.301097 A    
O39   C139  1.287728 A    
C90   C94   1.396878 A    
C92   H28   1.083570 S    
C135  H47   1.110695 S    
O30   C14   1.300140 A    
C119  C123  1.403948 A    
C6    C38   1.484962 S    
C154  H81   1.112230 S    
C18   C38   1.407811 A    
C61   C141  1.450240 S    
C85   C89   1.403490 A    
C145  H53   1.113899 S    
C17   C21   1.396015 A    
O6    C2    1.290639 A    
C72   H16   1.115993 S    
C46   C66   1.374805 A    
C73   H17   1.115534 S    
C106  C134  1.493614 S    
C132  H44   1.112125 S    
C76   H20   1.115486 S    
O26   C14   1.301879 A    
C31   H11   1.083523 S    
C153  H78   1.110656 S    
C21   H5    1.082883 S    
Cu4   O28   1.952346 S    
C2    C50   1.450948 S    
C23   H7    1.082974 S    
C72   O88   1.412346 S    
C81   C85   1.416704 A    
C148  H62   1.113159 S    
C53   O73   1.384790 S    
O43   C143  1.284426 A    
C127  C131  1.490128 S    
O75   C147  1.412493 S    
Cu3   O27   1.952984 S    
Cu4   O20   1.972478 S    
C26   C30   1.401822 A    
C129  H37   1.111217 S    
N7    N8    1.333869 A    
C80   C84   1.405794 A    
C58   N30   1.436934 S    
C145  H55   1.110379 S    
O35   C139  1.282578 A    
O12   Cu4   1.952493 S    
N1    N2    1.329355 A    
C134  H46   1.110404 S    
N25   O65   1.301037 A    
N3    N4    1.328825 A    
C108  C112  1.397177 A    
C21   C25   1.401921 A    
C106  C126  1.377064 A    
O73   C145  1.412221 S    
C28   C43   1.476280 S    
O7    C3    1.292420 A    
N32   O84   1.299544 A    
N30   O80   1.301172 A    
C48   C76   1.495603 S    
C123  C127  1.388722 A    
C132  H40   1.111598 S    
C135  H51   1.112311 S    
C130  C134  1.519169 S    
O37   C137  1.287359 A    
O21   C9    1.289064 A    
C133  H49   1.112165 S    
C57   C61   1.416352 A    
C123  C140  1.444238 S    
C61   C65   1.392603 A    
Cu2   O18   1.972478 S    
O16   C8    1.303657 A    
O36   Cu12  1.970711 S    
C109  C113  1.421608 A    
O14   Cu6   1.952141 S    
N10   C101  1.360213 A    
C29   H9    1.083158 S    
N15   C103  1.356908 A    
C24   H8    1.082964 S    
O40   C140  1.287700 A    
C77   C81   1.406176 A    
C30   C34   1.400073 A    
O11   C7    1.299860 A    
C120  C124  1.404141 A    
C73   O89   1.413720 S    
O1    Cu1   1.968124 S    
O9    Cu1   1.951855 S    
C68   C72   1.494617 S    
C108  C128  1.377381 A    
C18   C22   1.397408 A    
C126  C130  1.490161 S    
C26   C41   1.478501 S    
O5    Cu5   1.972164 S    
O18   C10   1.292676 A    
O7    Cu7   1.972164 S    
O8    Cu8   1.972231 S    
C36   C40   1.419643 A    
C86   C101  1.491854 S    
C75   O91   1.413989 S    
C70   O86   1.413572 S    
N9    N13   1.331468 A    
O24   C12   1.295523 A    
C95   H31   1.083086 S    
N12   N16   1.331360 A    
C62   C66   1.391930 A    
C148  H64   1.110871 S    
O33   Cu9   1.971420 S    
C78   C82   1.403114 A    
C112  C116  1.419063 A    
C150  H69   1.112668 S    
C71   C75   1.529311 S    
C117  H33   1.083641 S    
O48   C144  1.292884 A    
N17   O49   1.301316 A    
N29   O78   1.301073 A    
C74   O90   1.413596 S    
C156  H86   1.113023 S    
C54   C58   1.416656 A    
C131  H43   1.112124 S    
N18   O52   1.301200 A    
C69   O85   1.412400 S    
C7    C39   1.483968 S    
C28   C32   1.401474 A    
C56   O76   1.384839 S    
C128  C132  1.490149 S    
O92   C156  1.408320 S    
O31   C15   1.299648 A    
C46   C50   1.392090 A    
O32   C16   1.300038 A    
C93   H29   1.083195 S    
O46   C142  1.283823 A    
O36   C140  1.282531 A    
O22   C10   1.295021 A    
C49   C53   1.415414 A    
C152  H76   1.109145 S    
O89   C153  1.408080 S    
C147  H59   1.114023 S    
N24   O64   1.301396 A    
O86   C150  1.409104 S    
C105  C109  1.392122 A    
O88   C152  1.408691 S    
Cu7   O23   1.968124 S    
Cu8   O24   1.968195 S    
C86   C90   1.409627 A    
O29   C13   1.299633 A    
C76   O92   1.413824 S    
O12   C8    1.299887 A    
N32   O83   1.301133 A    
C114  C118  1.406741 A    
C77   C97   1.404073 A    
C51   C55   1.418668 A    
N1    C42   1.356653 A    
C41   N5    1.358908 A    
C60   C64   1.424873 A    
