data_mof_unit_61446.cif
_audit_creation_date              2012-12-10T20:09:53-0500
_audit_creation_method            fapswitch 2.2
_symmetry_space_group_name_H-M    P1
_symmetry_Int_Tables_number       1
_space_group_crystal_system       triclinic
_cell_length_a                    22.522947
_cell_length_b                    22.526194
_cell_length_c                    21.304562
_cell_angle_alpha                 90.002951
_cell_angle_beta                  57.958799
_cell_angle_gamma                 90.003324
_cell_volume                      9162.43329313

loop_
_atom_site_label
_atom_site_type_symbol
_atom_type_description
_atom_site_fract_x
_atom_site_fract_y
_atom_site_fract_z
_atom_type_partial_charge
C1    C     C_R   0.400026 0.249937 0.699688 0.507597
C2    C     C_3   0.285292 0.750722 0.926387 0.013434
C3    C     C_3   0.488889 0.701256 0.149354 -0.444468
C4    C     C_3   0.107085 0.783330 0.056368 -0.252112
C5    C     C_3   0.091931 0.790000 0.994534 -0.294920
C6    C     C_3   0.016019 0.808083 0.025564 -0.450715
C7    C     C_3   0.892926 0.217601 0.938685 -0.251562
C8    C     C_3   0.913062 0.208735 0.996254 -0.298579
C9    C     C_3   0.990367 0.192200 0.958359 -0.449985
C10   C     C_3   0.882837 0.807526 0.948467 -0.258504
C11   C     C_3   0.896150 0.862172 0.899809 -0.290697
C12   C     C_3   0.966581 0.890547 0.875979 -0.446794
C13   C     C_3   0.286733 0.251029 0.926715 0.024517
C14   C     C_3   0.119188 0.191791 0.057099 -0.252059
C15   C     C_3   0.056843 0.234556 0.097558 -0.300409
C16   C     C_3   0.988895 0.201230 0.149350 -0.444468
C17   C     C_1   0.247555 0.864634 0.949414 0.187495
C18   C     C_1   0.752324 0.136083 0.049819 0.187485
C19   C     C_1   0.725180 0.868087 0.053095 0.181143
C20   C     C_1   0.274044 0.134029 0.949450 0.189755
C21   C     C_1   0.747564 0.364638 0.949413 0.187494
C22   C     C_1   0.252335 0.636084 0.049819 0.187486
C23   C     C_1   0.225166 0.368087 0.053096 0.181144
C24   C     C_3   0.714494 0.751402 0.073751 0.021427
C25   C     C_1   0.774029 0.634029 0.949450 0.189755
C26   C     C_3   0.213870 0.749984 0.073155 0.014466
C27   C     C_3   0.785291 0.250723 0.926387 0.013435
C28   C     C_3   0.786733 0.751029 0.926715 0.024517
C29   C     C_3   0.214494 0.251402 0.073751 0.021428
C30   C     C_1   0.673606 0.249781 0.154279 -0.051403
C31   C     C_1   0.325593 0.750846 0.845382 -0.053905
C32   C     C_1   0.326724 0.250190 0.845639 -0.050022
C33   C     C_R   0.599986 0.750094 0.300399 0.508081
C34   C     C_1   0.674406 0.751133 0.154719 -0.050249
C35   C     C_1   0.173607 0.749781 0.154279 -0.051403
C36   C     C_1   0.825593 0.250847 0.845382 -0.053905
C37   C     C_1   0.826724 0.750190 0.845639 -0.050022
C38   C     C_1   0.174406 0.251133 0.154719 -0.050248
C39   C     C_1   0.276609 0.250034 0.500035 -0.018311
C40   C     C_1   0.723390 0.749966 0.499966 -0.018329
C41   C     C_1   0.723395 0.250032 0.499957 -0.019234
C42   C     C_1   0.276613 0.749960 0.500027 -0.019376
C43   C     C_1   0.776609 0.750034 0.500035 -0.018311
C44   C     C_R   0.599966 0.249959 0.300291 0.508762
C45   C     C_1   0.223390 0.249966 0.499966 -0.018329
C46   C     C_1   0.223395 0.750032 0.499957 -0.019234
C47   C     C_1   0.776613 0.249960 0.500027 -0.019375
C48   C     C_1   0.500000 0.026630 0.499998 -0.011594
C49   C     C_1   0.500001 0.973370 0.500001 -0.011628
C50   C     C_1   0.000000 0.526630 0.499998 -0.011594
C51   C     C_1   0.000001 0.473370 0.500001 -0.011627
C52   C     C_R   0.660149 0.250038 0.499974 0.509504
C53   C     C_R   0.339855 0.749958 0.500018 0.509409
C54   C     C_R   0.339852 0.250037 0.500023 0.510274
C55   C     C_R   0.399988 0.750108 0.699626 0.508742
C56   C     C_R   0.660147 0.749962 0.499978 0.510085
C57   C     C_R   0.160149 0.750038 0.499974 0.509504
C58   C     C_R   0.839855 0.249958 0.500018 0.509409
C59   C     C_R   0.839852 0.750037 0.500023 0.510274
C60   C     C_R   0.160147 0.249962 0.499978 0.510085
C61   C     C_R   0.500000 0.089883 0.499999 0.512987
C62   C     C_R   0.500000 0.910117 0.500001 0.513223
C63   C     C_R   0.000000 0.589883 0.499999 0.512987
C64   C     C_R   0.000000 0.410117 0.500001 0.513222
C65   C     C_R   0.500001 0.410163 0.500002 0.510151
C66   C     C_R   0.900026 0.749937 0.699688 0.507597
C67   C     C_R   0.499999 0.589837 0.500001 0.510003
C68   C     C_R   0.000001 0.910163 0.500002 0.510151
C69   C     C_R   0.999999 0.089837 0.500001 0.510003
C70   C     C_1   0.500001 0.473380 0.500003 -0.018673
C71   C     C_1   0.500000 0.526620 0.500003 -0.018628
C72   C     C_1   0.000001 0.973380 0.500003 -0.018673
C73   C     C_1   1.000000 0.026620 0.500003 -0.018628
C74   C     C_3   0.248208 0.804700 0.976032 0.015557
C75   C     C_3   0.751231 0.195953 0.023330 0.015842
C76   C     C_3   0.739149 0.807050 0.024696 0.013864
C77   C     C_R   0.099986 0.250094 0.300399 0.508081
C78   C     C_3   0.261655 0.195530 0.976218 0.007835
C79   C     C_3   0.748212 0.304702 0.976032 0.015556
C80   C     C_3   0.251237 0.695953 0.023330 0.015842
C81   C     C_3   0.239143 0.307050 0.024696 0.013865
C82   C     C_3   0.761647 0.695530 0.976218 0.007835
C83   C     C_3   0.683386 0.265874 0.025416 0.002285
C84   C     C_3   0.315984 0.734804 0.973846 0.002391
C85   C     C_3   0.311865 0.278575 0.974922 0.005637
C86   C     C_3   0.689083 0.724184 0.025782 0.003173
C87   C     C_3   0.183386 0.765869 0.025416 0.002285
C88   C     C_R   0.099966 0.749959 0.300291 0.508762
C89   C     C_3   0.815982 0.234800 0.973846 0.002392
C90   C     C_3   0.811867 0.778569 0.974922 0.005638
C91   C     C_3   0.189087 0.224178 0.025781 0.003173
C92   C     C_1   0.640037 0.249803 0.220949 0.009172
C93   C     C_1   0.359525 0.750610 0.778806 0.008719
C94   C     C_1   0.360104 0.249910 0.778988 0.004786
C95   C     C_1   0.640498 0.750694 0.221267 0.007800
C96   C     C_1   0.140037 0.749802 0.220949 0.009172
C97   C     C_1   0.859525 0.250611 0.778806 0.008719
C98   C     C_1   0.860103 0.749910 0.778988 0.004785
C99   C     C_R   0.899988 0.250108 0.699626 0.508742
C100  C     C_1   0.140498 0.250694 0.221267 0.007800
C101  C     C_3   0.778937 0.289456 0.024069 -0.115799
C102  C     C_3   0.220532 0.711174 0.975290 -0.116000
C103  C     C_3   0.213678 0.280240 0.975860 -0.118703
C104  C     C_3   0.787183 0.722324 0.024700 -0.126697
C105  C     C_3   0.278935 0.789458 0.024068 -0.115798
C106  C     C_3   0.720528 0.211178 0.975290 -0.116001
C107  C     C_3   0.713681 0.780246 0.975860 -0.118703
C108  C     C_3   0.287187 0.222329 0.024699 -0.126698
C109  C     C_3   0.607086 0.283341 0.056368 -0.252112
C110  C     C_3   0.713869 0.249985 0.073155 0.014466
C111  C     C_3   0.591933 0.290016 0.994533 -0.294919
C112  C     C_3   0.516023 0.308103 0.025564 -0.450711
C113  C     C_3   0.392930 0.717610 0.938684 -0.251562
C114  C     C_3   0.413069 0.708750 0.996251 -0.298580
C115  C     C_3   0.490374 0.692217 0.958356 -0.449985
C116  C     C_3   0.382831 0.307539 0.948467 -0.258504
C117  C     C_3   0.396137 0.362184 0.899811 -0.290695
C118  C     C_3   0.466565 0.390565 0.875979 -0.446792
C119  C     C_3   0.619180 0.691804 0.057100 -0.252060
C120  C     C_3   0.556841 0.734575 0.097559 -0.300411
H1    H     H_    0.197238 0.679061 0.954785 0.115120
H2    H     H_    0.504796 0.351451 0.054590 0.161509
H3    H     H_    0.506851 0.312510 0.979466 0.140351
H4    H     H_    0.626829 0.324283 0.954297 0.181342
H5    H     H_    0.601985 0.247215 0.964561 0.163584
H6    H     H_    0.572595 0.248430 0.095785 0.153691
H7    H     H_    0.596267 0.325856 0.087052 0.152933
H8    H     H_    0.501206 0.650508 0.926205 0.161176
H9    H     H_    0.523766 0.728370 0.920594 0.157618
H10   H     H_    0.504293 0.685262 0.000416 0.145224
H11   H     H_    0.403485 0.750337 0.028363 0.163316
H12   H     H_    0.802501 0.321386 0.044466 0.115662
H13   H     H_    0.380919 0.672750 0.035251 0.180793
H14   H     H_    0.402681 0.676015 0.906541 0.151561
H15   H     H_    0.425800 0.753389 0.899667 0.154537
H16   H     H_    0.467413 0.405375 0.925241 0.158971
H17   H     H_    0.509763 0.358383 0.843829 0.156077
H18   H     H_    0.475166 0.429776 0.840528 0.153177
H19   H     H_    0.396212 0.349351 0.849479 0.170452
H20   H     H_    0.354269 0.395642 0.930679 0.186217
H21   H     H_    0.384164 0.320658 0.997987 0.145442
H22   H     H_    0.424639 0.274100 0.916814 0.147645
H23   H     H_    0.817044 0.698548 0.044940 0.114761
H24   H     H_    0.479993 0.665608 0.119301 0.153159
H25   H     H_    0.491172 0.681055 0.195599 0.159887
H26   H     H_    0.444092 0.732655 0.172900 0.154751
H27   H     H_    0.565492 0.767113 0.131102 0.184731
H28   H     H_    0.551246 0.759816 0.056150 0.157137
H29   H     H_    0.617986 0.669779 0.011120 0.143598
H30   H     H_    0.615963 0.656888 0.095663 0.158357
H31   H     H_    0.979775 0.773887 0.064771 0.157595
H32   H     H_    0.004790 0.851432 0.054588 0.161508
H33   H     H_    0.006848 0.812486 0.979465 0.140351
H34   H     H_    0.183769 0.303976 0.955661 0.112602
H35   H     H_    0.126824 0.824268 0.954296 0.181341
H36   H     H_    0.101986 0.747199 0.964562 0.163585
H37   H     H_    0.072596 0.748418 0.095786 0.153692
H38   H     H_    0.096262 0.825845 0.087052 0.152932
H39   H     H_    0.001199 0.150494 0.926203 0.161176
H40   H     H_    0.023760 0.228355 0.920604 0.157616
H41   H     H_    0.004283 0.185237 0.000421 0.145225
H42   H     H_    0.903479 0.250321 0.028369 0.163315
H43   H     H_    0.880911 0.172735 0.035251 0.180794
H44   H     H_    0.902674 0.176008 0.906541 0.151561
H45   H     H_    0.697231 0.179068 0.954785 0.115119
H46   H     H_    0.925799 0.253380 0.899670 0.154537
H47   H     H_    0.967429 0.905355 0.925241 0.158971
H48   H     H_    0.009775 0.858362 0.843830 0.156079
H49   H     H_    0.975186 0.929758 0.840527 0.153177
H50   H     H_    0.896225 0.849341 0.849477 0.170452
H51   H     H_    0.854285 0.895633 0.930676 0.186216
H52   H     H_    0.884171 0.820643 0.997988 0.145441
H53   H     H_    0.924641 0.774085 0.916815 0.147645
H54   H     H_    0.980006 0.165580 0.119296 0.153157
H55   H     H_    0.991180 0.181031 0.195596 0.159886
H56   H     H_    0.302497 0.821391 0.044466 0.115663
H57   H     H_    0.944093 0.232624 0.172897 0.154749
H58   H     H_    0.065488 0.267096 0.131104 0.184729
H59   H     H_    0.051245 0.259795 0.056149 0.157137
H60   H     H_    0.117997 0.169763 0.011118 0.143601
H61   H     H_    0.115976 0.156876 0.095661 0.158357
H62   H     H_    0.317051 0.198558 0.044940 0.114760
H63   H     H_    0.683775 0.803987 0.955661 0.112603
H64   H     H_    0.479776 0.273907 0.064771 0.157592
N1    N     N_1   0.247019 0.911885 0.928431 -0.275358
N2    N     N_1   0.753215 0.088873 0.070695 -0.277331
N3    N     N_1   0.714164 0.916203 0.075512 -0.273070
N4    N     N_1   0.283778 0.085540 0.928348 -0.267435
N5    N     N_1   0.747033 0.411890 0.928431 -0.275351
N6    N     N_1   0.253231 0.588875 0.070694 -0.277337
N7    N     N_1   0.214144 0.416203 0.075513 -0.273073
N8    N     N_1   0.783757 0.585540 0.928349 -0.267433
O1    O     O_3   0.500000 0.250010 0.500000 -0.446056
O2    O     O_R   0.116800 0.215380 0.335590 -0.536019
O3    O     O_R   0.116800 0.784620 0.335590 -0.536685
O4    O     O_R   0.883200 0.215380 0.664410 -0.536653
O5    O     O_R   0.610480 0.215400 0.543100 -0.532865
O6    O     O_R   0.389520 0.784600 0.456900 -0.533919
O7    O     O_R   0.389520 0.215400 0.456900 -0.533033
O8    O     O_R   0.610480 0.784600 0.543100 -0.533200
O9    O     O_R   0.110480 0.715400 0.543100 -0.532865
O10   O     O_R   0.889520 0.284600 0.456900 -0.533918
O11   O     O_R   0.889520 0.715400 0.456900 -0.533033
O12   O     O_3   0.500000 0.749990 0.500000 -0.445952
O13   O     O_R   0.110480 0.284600 0.543100 -0.533199
O14   O     O_R   0.513060 0.117980 0.543100 -0.530466
O15   O     O_R   0.486940 0.882020 0.456900 -0.530549
O16   O     O_R   0.486940 0.117980 0.456900 -0.530816
O17   O     O_R   0.513060 0.882020 0.543100 -0.530598
O18   O     O_R   0.013060 0.617980 0.543100 -0.530466
O19   O     O_R   0.986940 0.382020 0.456900 -0.530549
O20   O     O_R   0.986940 0.617980 0.456900 -0.530816
O21   O     O_R   0.013060 0.382020 0.543100 -0.530598
O22   O     O_R   0.443850 0.382040 0.543100 -0.533666
O23   O     O_3   0.000000 0.750010 0.500000 -0.446056
O24   O     O_R   0.556150 0.617960 0.456900 -0.533218
O25   O     O_R   0.556150 0.382040 0.456900 -0.533062
O26   O     O_R   0.443850 0.617960 0.543100 -0.533464
O27   O     O_R   0.943850 0.882040 0.543100 -0.533665
O28   O     O_R   0.056150 0.117960 0.456900 -0.533218
O29   O     O_R   0.056150 0.882040 0.456900 -0.533063
O30   O     O_R   0.943850 0.117960 0.543100 -0.533464
O31   O     O_R   0.653580 0.284630 0.456900 -0.534024
O32   O     O_R   0.346420 0.715370 0.543100 -0.533121
O33   O     O_R   0.346420 0.284630 0.543100 -0.533145
O34   O     O_3   0.000000 0.249990 0.500000 -0.445952
O35   O     O_R   0.653580 0.715370 0.456900 -0.533150
O36   O     O_R   0.153580 0.784630 0.456900 -0.534024
O37   O     O_R   0.846420 0.215370 0.543100 -0.533122
O38   O     O_R   0.846420 0.784630 0.543100 -0.533145
O39   O     O_R   0.153580 0.215370 0.456900 -0.533150
O40   O     O_R   0.452420 0.215390 0.664410 -0.530396
O41   O     O_R   0.547580 0.784610 0.335590 -0.533465
O42   O     O_R   0.547580 0.215390 0.335590 -0.531985
O43   O     O_R   0.452420 0.784610 0.664410 -0.532481
O44   O     O_R   0.952420 0.715390 0.664410 -0.530397
O45   O     O_R   0.383200 0.284620 0.664410 -0.537837
O46   O     O_R   0.047580 0.284610 0.335590 -0.533465
O47   O     O_R   0.047580 0.715390 0.335590 -0.531985
O48   O     O_R   0.952420 0.284610 0.664410 -0.532480
O49   O     O_R   0.616800 0.715380 0.335590 -0.536018
O50   O     O_R   0.616800 0.284620 0.335590 -0.536685
O51   O     O_R   0.383200 0.715380 0.664410 -0.536653
O52   O     O_R   0.883200 0.784620 0.664410 -0.537836
Zn1   Zn    Zn3+2 0.580250 0.299470 0.438420 0.952471
Zn2   Zn    Zn3+2 0.481330 0.799450 0.438420 0.956973
Zn3   Zn    Zn3+2 0.481330 0.200550 0.438420 0.958817
Zn4   Zn    Zn3+2 0.518670 0.799450 0.561580 0.958458
Zn5   Zn    Zn3+2 0.018670 0.700550 0.561580 0.959167
Zn6   Zn    Zn3+2 0.981330 0.299450 0.438420 0.956974
Zn7   Zn    Zn3+2 0.981330 0.700550 0.438420 0.958817
Zn8   Zn    Zn3+2 0.018670 0.299450 0.561580 0.958459
Zn9   Zn    Zn3+2 0.419750 0.700530 0.561580 0.952599
Zn10  Zn    Zn3+2 0.419750 0.299470 0.561580 0.952130
Zn11  Zn    Zn3+2 0.580250 0.700530 0.438420 0.953178
Zn12  Zn    Zn3+2 0.080250 0.799470 0.438420 0.952471
Zn13  Zn    Zn3+2 0.919750 0.200530 0.561580 0.952599
Zn14  Zn    Zn3+2 0.919750 0.799470 0.561580 0.952130
Zn15  Zn    Zn3+2 0.080250 0.200530 0.438420 0.953178
Zn16  Zn    Zn3+2 0.518670 0.200550 0.561580 0.959167

loop_
_geom_bond_atom_site_label_1
_geom_bond_atom_site_label_2
_ccdc_geom_bond_type
C8    C9    S    
C32   C94   T    
C88   C96   S    
C45   C60   S    
C11   H51   S    
C84   C113  S    
C82   C104  S    
C15   H59   S    
O21   Zn8   S    
O22   Zn10  S    
C69   O28   A    
C114  H11   S    
O43   Zn4   S    
C13   C32   S    
C2    C84   S    
C86   C107  S    
O37   Zn13  S    
O44   Zn5   S    
C55   C93   S    
O8    Zn4   S    
C12   H47   S    
C23   N7    T    
C114  C115  S    
C44   O50   A    
C7    C8    S    
C112  H64   S    
C4    C87   S    
C35   C96   T    
O31   Zn1   S    
C53   O32   A    
O34   Zn8   S    
C18   C75   S    
C55   O51   A    
C30   C110  S    
C53   O6    A    
O23   Zn14  S    
C19   C76   S    
O25   Zn1   S    
O2    Zn15  S    
C27   C79   S    
C109  C111  S    
C42   C53   S    
C81   C103  S    
C5    C6    S    
C60   O13   A    
C39   C54   S    
C9    H39   S    
C28   C107  S    
C10   H52   S    
C65   C70   S    
C60   O39   A    
O1    Zn16  S    
C116  C117  S    
O34   Zn13  S    
C77   C100  S    
C78   C108  S    
C69   O30   A    
C42   C46   T    
C56   O35   A    
C13   C103  S    
C19   N3    T    
O36   Zn12  S    
C57   O36   A    
C33   O49   A    
C108  H62   S    
C109  H7    S    
C40   C43   T    
C4    H38   S    
O38   Zn14  S    
C17   N1    T    
C26   C87   S    
C40   C56   S    
C105  H56   S    
C29   C38   S    
C111  H5    S    
C83   C109  S    
C29   C108  S    
C69   C73   S    
C70   C71   T    
O49   Zn11  S    
C74   C87   S    
C22   N6    T    
C85   C108  S    
C23   C81   S    
C63   O20   A    
C41   C52   S    
C44   C92   S    
C5    H36   S    
C43   C59   S    
C61   O14   A    
C39   C45   T    
C6    H32   S    
C10   H53   S    
O29   Zn12  S    
O3    Zn12  S    
O46   Zn6   S    
O51   Zn9   S    
O23   Zn7   S    
C50   C63   S    
C88   O3    A    
C21   C79   S    
C67   O24   A    
C117  H19   S    
O5    Zn16  S    
C33   C95   S    
C26   C105  S    
C37   C98   T    
C97   C99   S    
C3    H25   S    
C102  H1    S    
O32   Zn9   S    
O33   Zn10  S    
C67   O26   A    
C41   C47   T    
C104  H23   S    
O50   Zn1   S    
C3    H24   S    
C7    H44   S    
O47   Zn7   S    
C80   C84   S    
O30   Zn13  S    
C106  H45   S    
O45   Zn10  S    
O28   Zn15  S    
O52   Zn14  S    
C34   C95   T    
C112  H3    S    
C30   C92   T    
C3    C120  S    
C55   O43   A    
C119  H29   S    
O12   Zn11  S    
C14   H60   S    
C1    C94   S    
O35   Zn11  S    
C54   O7    A    
C9    H40   S    
C1    O45   A    
C101  C110  S    
C31   C93   T    
C88   O47   A    
O39   Zn15  S    
C99   O4    A    
C18   N2    T    
C26   C80   S    
C115  H8    S    
C36   C97   T    
C107  H63   S    
C2    C31   S    
C24   C104  S    
C77   O2    A    
C101  H12   S    
C54   O33   A    
C29   C81   S    
O6    Zn2   S    
C33   O41   A    
C44   O42   A    
O42   Zn3   S    
C20   N4    T    
C87   C102  S    
C64   O21   A    
C103  H34   S    
C21   N5    T    
C4    H37   S    
C28   C82   S    
C68   C72   S    
C77   O46   A    
C68   O27   A    
C50   C51   T    
O1    Zn3   S    
C83   C110  S    
C64   O19   A    
O27   Zn14  S    
O12   Zn4   S    
O20   Zn7   S    
C9    H41   S    
O17   Zn4   S    
C90   C104  S    
C86   C119  S    
C75   C106  S    
C116  H22   S    
C6    H31   S    
C16   H55   S    
C38   C100  T    
C48   C49   T    
O10   Zn6   S    
C7    H46   S    
O48   Zn8   S    
O24   Zn11  S    
O9    Zn5   S    
C113  H14   S    
C46   C57   S    
O40   Zn16  S    
C25   C82   S    
C78   C91   S    
O11   Zn7   S    
C117  H20   S    
C84   C105  S    
C99   O48   A    
C63   O18   A    
C57   O9    A    
C118  H17   S    
O15   Zn2   S    
O13   Zn8   S    
C62   O15   A    
C29   C91   S    
C14   H61   S    
C118  H16   S    
C16   H57   S    
C113  C114  S    
C115  H9    S    
C16   H54   S    
O34   Zn6   S    
O14   Zn16  S    
C13   C78   S    
C75   C110  S    
O1    Zn1   S    
C49   C62   S    
O18   Zn5   S    
C111  C112  S    
C89   C101  S    
C111  H4    S    
C52   O31   A    
C85   C116  S    
C24   C76   S    
C51   C64   S    
C91   C103  S    
C72   C73   T    
C25   N8    T    
C2    C74   S    
O34   Zn15  S    
C12   H48   S    
C28   C90   S    
C11   C12   S    
C8    H43   S    
C80   C102  S    
C12   H49   S    
O7    Zn3   S    
C27   C36   S    
C76   C107  S    
C68   O29   A    
C112  H2    S    
C79   C101  S    
C27   C106  S    
C83   C106  S    
C20   C78   S    
O1    Zn10  S    
C66   C98   S    
C11   H50   S    
O16   Zn3   S    
C22   C80   S    
C65   O22   A    
C58   O37   A    
C5    H35   S    
C117  C118  S    
C74   C105  S    
C82   C86   S    
O12   Zn9   S    
C1    O40   A    
C48   C61   S    
C17   C74   S    
C65   O25   A    
C66   O52   A    
C28   C37   S    
C119  H30   S    
O26   Zn9   S    
O23   Zn12  S    
C62   O17   A    
C26   C35   S    
C27   C89   S    
C67   C71   S    
C120  H28   S    
O19   Zn6   S    
O4    Zn13  S    
O41   Zn2   S    
C24   C34   S    
C14   C91   S    
C6    H33   S    
C10   C11   S    
C75   C89   S    
C61   O16   A    
C116  H21   S    
C79   C83   S    
C114  H13   S    
C59   O11   A    
C109  H6    S    
C4    C5    S    
C10   C90   S    
C3    H26   S    
C81   C85   S    
C119  C120  S    
C113  H15   S    
C15   H58   S    
C66   O44   A    
O23   Zn5   S    
C2    C102  S    
C14   C15   S    
C13   C85   S    
C8    H42   S    
C52   O5    A    
C56   O8    A    
C118  H18   S    
C59   O38   A    
C24   C86   S    
O12   Zn2   S    
C120  H27   S    
C15   C16   S    
C58   O10   A    
C76   C90   S    
C47   C58   S    
C115  H10   S    
C7    C89   S    
