data_mof_unit_47303.cif
_audit_creation_date              2013-03-05T16:40:06-0500
_audit_creation_method            fapswitch 2.2
_symmetry_space_group_name_H-M    P1
_symmetry_Int_Tables_number       1
_space_group_crystal_system       triclinic
_cell_length_a                    18.848323
_cell_length_b                    18.551123
_cell_length_c                    10.772687
_cell_angle_alpha                 90.956631
_cell_angle_beta                  90.358518
_cell_angle_gamma                 91.002621
_cell_volume                      3765.56898237

loop_
_atom_site_label
_atom_site_type_symbol
_atom_site_description
_atom_site_fract_x
_atom_site_fract_y
_atom_site_fract_z
_atom_type_partial_charge
O1    O     O_R   0.398180 0.560840 0.499970 -0.596750
O2    O     O_R   0.601820 0.560840 0.500030 -0.623287
O3    O     O_R   0.398180 0.439210 0.499910 -0.572666
O4    O     O_R   0.601820 0.439210 0.500090 -0.560623
C1    C     C_R   0.365187 0.499361 0.499893 0.944403
C2    C     C_R   0.634992 0.500591 0.501694 0.949229
O5    O     O_R   0.499990 0.560820 0.316770 -0.586544
O6    O     O_R   0.500010 0.560820 0.683230 -0.598117
O7    O     O_R   0.499990 0.439200 0.316710 -0.568206
O8    O     O_R   0.500010 0.439200 0.683290 -0.559329
C3    C     C_R   0.501804 0.498943 0.259510 1.032996
C4    C     C_R   0.494913 0.500162 0.739508 0.903436
Zn1   Zn    Zn3+2 0.500000 0.581210 0.500000 1.060313
Zn2   Zn    Zn3+2 0.500000 0.418790 0.500000 1.138711
C5    C     C_R   0.502554 0.560885 0.064253 -0.024754
C6    C     C_R   0.491581 0.563468 0.938822 -0.000255
C7    C     C_R   0.499621 0.495843 0.126372 -0.189776
C8    C     C_R   0.482915 0.499569 0.870513 -0.282653
C9    C     C_R   0.483792 0.430733 0.059738 0.228773
C10   C     C_R   0.471091 0.433551 0.932152 0.243416
C11   C     C_3   0.544600 0.623918 0.924339 0.097687
C12   C     C_3   0.559401 0.619111 0.062994 0.089301
H1    H     H_    0.589733 0.609828 0.862775 0.141802
H2    H     H_    0.546378 0.667953 0.118967 0.178349
C13   C     C_R   0.757390 0.452315 0.473362 0.315330
C14   C     C_R   0.240350 0.529380 0.443423 0.293804
C15   C     C_R   0.827482 0.451621 0.516046 -0.133461
C16   C     C_R   0.169423 0.531636 0.480741 -0.191918
H3    H     H_    0.864830 0.415746 0.471991 0.191832
H4    H     H_    0.129900 0.553655 0.419265 0.190232
C17   C     C_R   0.850767 0.498672 0.611719 0.101269
C18   C     C_R   0.148512 0.503409 0.595259 0.075557
C19   C     C_R   0.804301 0.548191 0.663996 -0.108315
C20   C     C_R   0.198591 0.474004 0.674702 -0.066297
H5    H     H_    0.822026 0.585459 0.736703 0.172053
H6    H     H_    0.183322 0.453612 0.764477 0.184562
C21   C     C_R   0.734676 0.549939 0.622351 -0.232167
C22   C     C_R   0.268654 0.470298 0.638171 -0.194251
H7    H     H_    0.698890 0.587538 0.666298 0.175872
H8    H     H_    0.307095 0.448479 0.701562 0.205759
C23   C     C_R   0.710604 0.502125 0.528209 -0.164102
C24   C     C_R   0.289876 0.497734 0.523666 -0.145183
C25   C     C_R   0.963166 0.566073 0.630303 -0.194269
C26   C     C_R   0.036340 0.566702 0.622016 -0.199171
H9    H     H_    0.935209 0.615613 0.613934 0.168560
H10   H     H_    0.063948 0.617058 0.603243 0.174610
C27   C     C_R   0.073360 0.502207 0.628073 -0.046701
C28   C     C_R   0.926067 0.500910 0.645508 -0.035783
C29   C     C_R   0.037320 0.437013 0.655978 0.225333
C30   C     C_R   0.962954 0.436633 0.666955 0.210275
C31   C     C_R   0.545118 0.726602 0.424419 0.512807
C32   C     C_R   0.454684 0.724911 0.577569 0.589321
C33   C     C_R   0.539510 0.801882 0.414230 -0.294162
C34   C     C_R   0.456670 0.801596 0.582396 -0.259526
H11   H     H_    0.571035 0.829784 0.345795 0.179481
H12   H     H_    0.427088 0.830896 0.651756 0.160317
C35   C     C_R   0.497340 0.840921 0.497287 0.162970
N1    N     N_R   0.500000 0.689440 0.500000 -0.161382
C36   C     C_R   0.434058 0.961099 0.515463 0.182787
C37   C     C_R   0.561985 0.962334 0.482023 0.187198
C38   C     C_R   0.436944 0.036919 0.532876 0.360503
C39   C     C_R   0.560138 0.037723 0.464823 0.360428
C40   C     C_R   0.498761 0.076508 0.498593 -0.200274
C41   C     C_R   0.497729 0.922432 0.498021 -0.211644
C42   C     C_R   0.556424 0.198029 0.548629 -0.252971
C43   C     C_R   0.442320 0.195845 0.450554 -0.257572
H13   H     H_    0.600543 0.170689 0.590795 0.233136
H14   H     H_    0.397253 0.166867 0.410023 0.231829
C44   C     C_R   0.556584 0.273883 0.548381 0.399637
C45   C     C_R   0.442388 0.271633 0.453883 0.386746
N2    N     N_R   0.500000 0.310560 0.500000 -0.191331
C46   C     C_R   0.499356 0.157833 0.498590 0.023614
N3    N     N_R   0.487358 0.361276 0.116745 0.254256
O9    O     O_R   0.547825 0.339797 0.160396 -0.307711
O10   O     O_R   0.436403 0.313890 0.098998 -0.293478
N4    N     N_R   0.452062 0.368261 0.865136 0.257128
O11   O     O_R   0.391767 0.363107 0.806114 -0.386692
O12   O     O_R   0.494649 0.313790 0.863352 -0.302909
O13   O     O_3   0.597045 0.690237 0.359790 -0.613871
C47   C     C_3   0.663982 0.710192 0.411966 0.090456
H15   H     H_    0.665961 0.696220 0.512224 0.162534
H16   H     H_    0.674922 0.769033 0.402658 0.181708
C48   C     C_3   0.722955 0.670439 0.344348 -0.263056
H17   H     H_    0.713851 0.611459 0.350783 0.262677
H18   H     H_    0.722509 0.685395 0.245052 0.277197
C49   C     C_3   0.795735 0.689645 0.399745 -0.910888
H19   H     H_    0.807657 0.748045 0.388941 0.290306
H20   H     H_    0.837078 0.658320 0.350863 0.281250
H21   H     H_    0.797529 0.676462 0.499837 0.262419
O14   O     O_3   0.412923 0.683400 0.656263 -0.589241
C50   C     C_3   0.348783 0.716922 0.689589 0.104399
H22   H     H_    0.323488 0.742999 0.608292 0.160811
H23   H     H_    0.359043 0.757439 0.765088 0.194013
C51   C     C_3   0.297238 0.659864 0.738321 -0.328611
H24   H     H_    0.284797 0.620575 0.662633 0.217969
H25   H     H_    0.322301 0.630906 0.816313 0.262239
C52   C     C_3   0.228140 0.693016 0.782477 -0.851131
H26   H     H_    0.238707 0.731824 0.860318 0.289062
H27   H     H_    0.191750 0.649726 0.815302 0.270374
H28   H     H_    0.201806 0.721271 0.705108 0.267969
N5    N     N_R   0.366223 0.924151 0.509480 0.231522
O15   O     O_R   0.352897 0.877554 0.420354 -0.365057
O16   O     O_R   0.315497 0.941016 0.585294 -0.351162
N6    N     N_R   0.629403 0.927317 0.490691 0.229495
O17   O     O_R   0.641458 0.883602 0.581387 -0.369964
O18   O     O_R   0.681083 0.943679 0.416298 -0.353896
O19   O     O_3   0.376790 0.071962 0.573813 -0.573599
C53   C     C_3   0.388147 0.100809 0.695443 0.148756
H29   H     H_    0.354673 0.149223 0.705731 0.209991
H30   H     H_    0.443801 0.119501 0.713834 0.136789
C54   C     C_3   0.366019 0.046312 0.793852 -0.349167
H31   H     H_    0.308934 0.031827 0.781456 0.282582
H32   H     H_    0.397698 0.996658 0.783032 0.228060
C55   C     C_3   0.377736 0.077219 0.924742 -0.833920
H33   H     H_    0.434791 0.090698 0.940395 0.262454
H34   H     H_    0.360921 0.036715 0.993871 0.278863
H35   H     H_    0.346000 0.126562 0.938742 0.296181
O20   O     O_3   0.620946 0.073439 0.425116 -0.571330
C56   C     C_3   0.610741 0.099288 0.303044 0.145196
H36   H     H_    0.645108 0.148071 0.292837 0.211344
H37   H     H_    0.555483 0.116577 0.283645 0.133950
C57   C     C_3   0.632490 0.042935 0.205578 -0.344645
H38   H     H_    0.689296 0.029848 0.219009 0.283603
H39   H     H_    0.599984 0.992906 0.216433 0.226666
C58   C     C_3   0.621899 0.070566 0.074194 -0.837314
H40   H     H_    0.565119 0.082554 0.057509 0.259587
H41   H     H_    0.638428 0.028782 0.005805 0.283488
H42   H     H_    0.654486 0.120201 0.060133 0.294371
N7    N     N_R   0.616595 0.311203 0.602145 0.227754
O21   O     O_R   0.680162 0.291526 0.571703 -0.314077
O22   O     O_R   0.608782 0.350583 0.701803 -0.310252
N8    N     N_R   0.379479 0.306444 0.413517 0.231846
O23   O     O_R   0.318306 0.286143 0.457480 -0.318317
O24   O     O_R   0.380975 0.347351 0.316965 -0.298513
N9    N     N_R   0.511606 0.691907 0.891967 0.238015
O25   O     O_R   0.545130 0.736358 0.819929 -0.373974
O26   O     O_R   0.453068 0.712070 0.944753 -0.381558
N10   N     N_R   0.631235 0.593215 0.086269 0.209631
O27   O     O_R   0.685051 0.624664 0.033221 -0.390224
O28   O     O_R   0.643208 0.547595 0.173835 -0.363432
N11   N     N_R   0.735742 0.403744 0.373732 0.230481
O29   O     O_R   0.686855 0.421573 0.294826 -0.310327
O30   O     O_R   0.770284 0.344621 0.353244 -0.287193
N12   N     N_R   0.260465 0.557909 0.324755 0.217172
O31   O     O_R   0.220804 0.604965 0.270687 -0.357492
O32   O     O_R   0.314811 0.532909 0.264990 -0.375656
N13   N     N_R   0.075260 0.370975 0.666767 0.225663
O33   O     O_R   0.070350 0.333475 0.767436 -0.286732
O34   O     O_R   0.111944 0.346377 0.573825 -0.286638
N14   N     N_R   0.924507 0.370701 0.691294 0.231646
O35   O     O_R   0.939635 0.311363 0.631804 -0.261696
O36   O     O_R   0.870770 0.370966 0.766554 -0.288948

loop_
_geom_bond_atom_site_label_1
_geom_bond_atom_site_label_2
_geom_bond_distance
_ccdc_geom_bond_type
C43   H14   1.082928 S    
C1    C24   1.443857 S    
C6    C11   1.499716 S    
C15   H3    1.083380 S    
N3    O9    1.301636 A    
C32   O14   1.392905 S    
C54   H31   1.111129 S    
O7    Zn2   2.016699 S    
N6    O18   1.300307 A    
C55   H33   1.111014 S    
N9    O25   1.300306 A    
C27   C29   1.414382 A    
O5    C3    1.295102 A    
C10   N4    1.438475 S    
C36   C41   1.420741 A    
O6    Zn1   2.015988 S    
O1    C1    1.289417 A    
C12   H2    1.111840 S    
N13   O34   1.301244 A    
N4    O12   1.301420 A    
C22   C24   1.400236 A    
N11   O30   1.301629 A    
C49   H20   1.110391 S    
C5    C6    1.367447 A    
C53   H29   1.111037 S    
C29   N13   1.435294 S    
C37   C39   1.414832 A    
Zn2   N2    2.007786 S    
C44   N2    1.379251 A    
O2    Zn1   1.962460 S    
O20   C56   1.420358 S    
N13   O33   1.301064 A    
C19   H5    1.083352 S    
C5    C12   1.508364 S    
C43   C46   1.397324 A    
C9    C10   1.395652 A    
C32   C34   1.422509 A    
N8    O23   1.301203 A    
C42   H13   1.082970 S    
C2    C23   1.451445 S    
C58   H42   1.110875 S    
O19   C53   1.420592 S    
C17   C19   1.394677 A    
C45   N2    1.378863 A    
C25   C28   1.398409 A    
C20   H6    1.083119 S    
C26   C27   1.397816 A    
C56   H37   1.114691 S    
N5    O16   1.300288 A    
C11   C12   1.522169 S    
O4    Zn2   1.949641 S    
N3    O10   1.301625 A    
O2    C2    1.290512 A    
C47   C48   1.526719 S    
C14   N12   1.442121 S    
C45   N8    1.428926 S    
N6    O17   1.301551 A    
C52   H27   1.110708 S    
C26   H10   1.083950 S    
C52   H26   1.110810 S    
C33   H11   1.082580 S    
C32   N1    1.367867 A    
C34   H12   1.080226 S    
C36   C38   1.415946 A    
C15   C17   1.402726 A    
C36   N5    1.440667 S    
N5    O15   1.301484 A    
C9    N3    1.439037 S    
N4    O11   1.300040 A    
N12   O32   1.301454 A    
O8    Zn2   2.004281 S    
C13   C23   1.413284 A    
C50   H22   1.115931 S    
C33   C35   1.401508 A    
C49   H19   1.110769 S    
N12   O31   1.301711 A    
Zn1   N1    2.007786 S    
C51   C52   1.525350 S    
C19   C21   1.385304 A    
C31   C33   1.408415 A    
C18   C20   1.394422 A    
C25   C26   1.382518 A    
C39   C40   1.419148 A    
C50   H23   1.111923 S    
O7    C3    1.277089 A    
C30   N14   1.439437 S    
C48   H17   1.107929 S    
C16   C18   1.404255 A    
O6    C4    1.289470 A    
C38   C40   1.420509 A    
C54   H32   1.111367 S    
C31   N1    1.366848 A    
C51   H25   1.112041 S    
C25   H9    1.083767 S    
O3    Zn2   1.962658 S    
O8    C4    1.279314 A    
C6    C8    1.391373 A    
C48   H18   1.109572 S    
C17   C28   1.462712 S    
C11   H1    1.113944 S    
C58   H40   1.111016 S    
C18   C27   1.461953 S    
N14   O36   1.301351 A    
O4    C2    1.289237 A    
O1    Zn1   1.949487 S    
C57   H39   1.111324 S    
C52   H28   1.110999 S    
C14   C24   1.410442 A    
C35   C41   1.511909 S    
N7    O21   1.300977 A    
C56   C57   1.532024 S    
N9    O26   1.302234 A    
C3    C7    1.434750 S    
C20   C22   1.382857 A    
C13   N11   1.442111 S    
C47   H15   1.115463 S    
O3    C1    1.286924 A    
C49   H21   1.110069 S    
C55   H34   1.110378 S    
C56   H36   1.111013 S    
C5    C7    1.389905 A    
N10   O28   1.299101 A    
C13   C15   1.396488 A    
C42   C46   1.398157 A    
C12   N10   1.466077 S    
C14   C16   1.399532 A    
C53   C54   1.531809 S    
C37   C41   1.421242 A    
C57   C58   1.526463 S    
C16   H4    1.083453 S    
C21   H7    1.084005 S    
N11   O29   1.300481 A    
C50   C51   1.526042 S    
C22   H8    1.080944 S    
O14   C50   1.414710 S    
C43   C45   1.405787 A    
C44   N7    1.430093 S    
C42   C44   1.407173 A    
C28   C30   1.412388 A    
C7    C9    1.420919 A    
C47   H16   1.113616 S    
C53   H30   1.114554 S    
C54   C55   1.526566 S    
C8    C10   1.417728 A    
C21   C23   1.404031 A    
C51   H24   1.105820 S    
C38   O19   1.387478 S    
C31   O13   1.383378 S    
C39   O20   1.387302 S    
C55   H35   1.110906 S    
N10   O27   1.301345 A    
O13   C47   1.418631 S    
O5    Zn1   2.003583 S    
C48   C49   1.526571 S    
C40   C46   1.508522 S    
N8    O24   1.297884 A    
C29   C30   1.407288 A    
C4    C8    1.430875 S    
C58   H41   1.110383 S    
N14   O35   1.301328 A    
C57   H38   1.111127 S    
C37   N6    1.440435 S    
C11   N9    1.462390 S    
N7    O22   1.299039 A    
C34   C35   1.404277 A    
