data_mof_unit_61450.cif
_audit_creation_date              2012-12-10T17:14:28-0500
_audit_creation_method            fapswitch 2.2
_symmetry_space_group_name_H-M    P1
_symmetry_Int_Tables_number       1
_space_group_crystal_system       triclinic
_cell_length_a                    25.953173
_cell_length_b                    25.876494
_cell_length_c                    22.204278
_cell_angle_alpha                 90.000105
_cell_angle_beta                  125.83616
_cell_angle_gamma                 89.999902
_cell_volume                      12088.983074

loop_
_atom_site_label
_atom_site_type_symbol
_atom_type_description
_atom_site_fract_x
_atom_site_fract_y
_atom_site_fract_z
_atom_type_partial_charge
C1    C     C_R   0.650244 0.749962 0.300501 0.813326
C2    C     C_R   0.650244 0.250038 0.300501 0.813343
C3    C     C_R   0.150241 0.249966 0.300501 0.813687
C4    C     C_R   0.150241 0.750034 0.300500 0.813543
C5    C     C_R   0.748910 0.553885 0.505212 -0.040994
C6    C     C_R   0.748910 0.446115 0.505212 -0.040951
C7    C     C_R   0.248909 0.053885 0.505211 -0.040995
C8    C     C_R   0.248909 0.946115 0.505211 -0.041016
C9    C     C_R   0.793408 0.526690 0.501465 -0.193512
C10   C     C_R   0.793408 0.473310 0.501465 -0.193446
C11   C     C_R   0.293402 0.026690 0.501455 -0.194485
C12   C     C_R   0.293402 0.973310 0.501455 -0.194479
C13   C     C_3   0.539750 0.209410 0.024678 0.176383
C14   C     C_3   0.541020 0.789718 0.024677 0.176443
C15   C     C_3   0.034995 0.706589 0.024654 0.176263
C16   C     C_3   0.030545 0.295428 0.024643 0.175943
C17   C     C_3   0.961512 0.708903 0.975080 -0.215677
C18   C     C_3   0.957535 0.288264 0.975060 -0.216925
C19   C     C_3   0.466316 0.206261 0.975112 -0.215619
C20   C     C_3   0.467707 0.794400 0.975119 -0.215009
C21   C     C_1   0.889599 0.750030 0.778918 -0.097730
C22   C     C_1   0.889602 0.249965 0.778919 -0.097772
C23   C     C_1   0.389613 0.250038 0.778918 -0.098094
C24   C     C_1   0.389610 0.749964 0.778918 -0.098018
C25   C     C_1   0.610653 0.250182 0.221062 -0.112750
C26   C     C_1   0.610657 0.749817 0.221062 -0.112684
C27   C     C_1   0.110633 0.750149 0.221062 -0.112756
C28   C     C_1   0.110626 0.249859 0.221064 -0.112843
C29   C     C_3   0.036857 0.747542 0.975425 0.176912
C30   C     C_3   0.036353 0.257313 0.975439 0.177405
C31   C     C_3   0.536886 0.253051 0.975417 0.177231
C32   C     C_3   0.536768 0.745413 0.975408 0.177105
C33   C     C_3   0.964012 0.750075 0.926868 0.096428
C34   C     C_3   0.964001 0.249944 0.926870 0.096668
C35   C     C_3   0.464062 0.250136 0.926868 0.096486
C36   C     C_3   0.464060 0.749858 0.926868 0.096318
C37   C     C_3   0.534927 0.293986 0.024853 -0.224385
C38   C     C_3   0.533545 0.705337 0.024845 -0.224353
C39   C     C_3   0.039613 0.791190 0.024884 -0.225215
C40   C     C_3   0.043544 0.211696 0.024910 -0.225141
C41   C     C_3   0.537150 0.250115 0.073095 0.096150
C42   C     C_3   0.537162 0.749877 0.073094 0.096005
C43   C     C_3   0.037087 0.750024 0.073095 0.095538
C44   C     C_3   0.037052 0.250007 0.073097 0.095700
C45   C     C_R   0.849733 0.749956 0.699497 0.848424
C46   C     C_R   0.849734 0.250043 0.699497 0.848314
C47   C     C_R   0.349731 0.249954 0.699497 0.848415
C48   C     C_R   0.349731 0.750047 0.699497 0.848475
C49   C     C_3   0.965972 0.793699 0.975183 -0.163230
C50   C     C_3   0.970395 0.204329 0.975198 -0.163077
C51   C     C_3   0.461311 0.291021 0.975161 -0.163219
C52   C     C_3   0.460047 0.709839 0.975161 -0.163354
C53   C     C_3   0.464182 0.247177 0.024637 -0.167053
C54   C     C_3   0.464311 0.754350 0.024645 -0.166848
C55   C     C_3   0.964097 0.752557 0.024631 -0.166242
C56   C     C_3   0.964556 0.242619 0.024624 -0.166450
C57   C     C_1   0.923156 0.750075 0.845712 0.002932
C58   C     C_1   0.923156 0.249922 0.845713 0.002641
C59   C     C_1   0.423187 0.250099 0.845711 0.002632
C60   C     C_1   0.423183 0.749902 0.845712 0.002828
C61   C     C_1   0.577449 0.250229 0.154262 -0.010216
C62   C     C_1   0.577457 0.749767 0.154261 -0.010027
C63   C     C_1   0.077412 0.750167 0.154261 -0.010497
C64   C     C_1   0.077395 0.249850 0.154263 -0.010723
C65   C     C_R   0.483113 0.767641 0.359981 -0.138530
C66   C     C_R   0.483117 0.232347 0.359987 -0.138349
C67   C     C_R   0.983089 0.267521 0.359934 -0.138860
C68   C     C_R   0.983091 0.732462 0.359941 -0.138909
C69   C     C_R   0.422888 0.775126 0.294200 -0.117482
C70   C     C_R   0.422893 0.224853 0.294208 -0.117598
C71   C     C_R   0.922856 0.274938 0.294137 -0.116733
C72   C     C_R   0.922859 0.725036 0.294146 -0.116837
C73   C     C_R   0.369672 0.775370 0.294840 -0.117033
C74   C     C_R   0.369677 0.224608 0.294848 -0.117924
C75   C     C_R   0.869640 0.275182 0.294776 -0.115604
C76   C     C_R   0.869644 0.724793 0.294785 -0.115259
C77   C     C_R   0.376302 0.768044 0.361243 -0.147448
C78   C     C_R   0.376306 0.231942 0.361249 -0.147443
C79   C     C_R   0.876279 0.267925 0.361195 -0.147429
C80   C     C_R   0.876282 0.732059 0.361202 -0.147405
C81   C     C_R   0.436800 0.759221 0.428691 0.065425
C82   C     C_R   0.436802 0.240773 0.428694 0.065550
C83   C     C_R   0.936785 0.259165 0.428662 0.065166
C84   C     C_R   0.936787 0.740828 0.428666 0.065146
C85   C     C_R   0.491032 0.759192 0.427918 0.100870
C86   C     C_R   0.491034 0.240803 0.427921 0.100829
C87   C     C_R   0.991018 0.259135 0.427889 0.100772
C88   C     C_R   0.991019 0.740857 0.427893 0.100828
C89   C     C_R   0.890069 0.749743 0.499814 0.840458
C90   C     C_R   0.890068 0.250259 0.499812 0.840551
C91   C     C_R   0.390072 0.249747 0.499820 0.840331
C92   C     C_R   0.390072 0.750253 0.499820 0.840304
C93   C     C_R   0.551843 0.752744 0.495612 -0.101193
C94   C     C_R   0.551844 0.247256 0.495615 -0.101264
C95   C     C_R   0.051836 0.252753 0.495598 -0.101001
C96   C     C_R   0.051837 0.747249 0.495600 -0.101000
C97   C     C_R   0.558840 0.748666 0.562593 -0.211354
C98   C     C_R   0.558841 0.251337 0.562595 -0.211314
C99   C     C_R   0.058836 0.248751 0.562587 -0.211338
C100  C     C_R   0.058837 0.751268 0.562588 -0.211383
C101  C     C_R   0.506297 0.748460 0.564102 0.173168
C102  C     C_R   0.506298 0.251540 0.564104 0.173228
C103  C     C_R   0.006296 0.248551 0.564099 0.173739
C104  C     C_R   0.006296 0.751470 0.564099 0.173551
C105  C     C_R   0.444891 0.752428 0.497254 -0.140328
C106  C     C_R   0.444892 0.247571 0.497256 -0.140383
C107  C     C_R   0.944884 0.252440 0.497241 -0.139890
C108  C     C_R   0.944885 0.747564 0.497243 -0.140013
C109  C     C_R   0.874719 0.945677 0.596122 0.129655
C110  C     C_R   0.874721 0.054322 0.596105 0.129651
C111  C     C_R   0.374672 0.445675 0.596670 0.129527
C112  C     C_R   0.374672 0.554325 0.596674 0.129551
C113  C     C_R   0.931251 0.973425 0.636148 -0.144918
C114  C     C_R   0.931252 0.026573 0.636139 -0.145287
C115  C     C_R   0.431188 0.473427 0.637089 -0.144260
C116  C     C_R   0.431188 0.526574 0.637091 -0.144109
C117  C     C_R   0.814882 0.027756 0.550168 0.000690
C118  C     C_R   0.814881 0.972244 0.550174 0.000508
C119  C     C_R   0.314860 0.527757 0.550458 0.000372
C120  C     C_R   0.314861 0.472243 0.550457 0.000427
C121  C     C_R   0.755349 0.946020 0.504904 -0.143720
C122  C     C_R   0.755350 0.053980 0.504902 -0.143734
C123  C     C_R   0.255355 0.446020 0.504889 -0.143916
C124  C     C_R   0.255354 0.553980 0.504891 -0.143811
C125  C     C_R   0.697618 0.973067 0.461599 0.114830
C126  C     C_R   0.697618 0.026933 0.461599 0.114837
C127  C     C_R   0.197651 0.473067 0.461249 0.114920
C128  C     C_R   0.197651 0.526932 0.461251 0.114780
C129  C     C_R   0.609322 0.750733 0.498762 0.809226
C130  C     C_R   0.609322 0.249267 0.498763 0.809258
C131  C     C_R   0.109318 0.250737 0.498756 0.809065
C132  C     C_R   0.109319 0.749263 0.498756 0.809057
C133  C     C_R   0.751080 0.890101 0.500949 0.889251
C134  C     C_R   0.751080 0.109898 0.500948 0.889373
C135  C     C_R   0.251085 0.390101 0.500951 0.888961
C136  C     C_R   0.251085 0.609899 0.500951 0.888881
C137  C     C_R   0.749687 0.609891 0.501319 0.777946
C138  C     C_R   0.749687 0.390109 0.501319 0.777936
C139  C     C_R   0.249687 0.109891 0.501319 0.777619
C140  C     C_R   0.249687 0.890109 0.501320 0.777666
C141  C     C_R   0.663520 0.553824 0.523607 -0.249779
C142  C     C_R   0.663520 0.446176 0.523607 -0.249713
C143  C     C_R   0.163524 0.053824 0.523615 -0.250336
C144  C     C_R   0.163523 0.946176 0.523614 -0.250330
C145  C     C_R   0.621546 0.527080 0.532324 0.189102
C146  C     C_R   0.621547 0.472920 0.532324 0.189076
C147  C     C_R   0.121553 0.027081 0.532337 0.188971
C148  C     C_R   0.121553 0.972920 0.532336 0.189029
C149  C     C_R   0.705321 0.472659 0.513033 0.062815
C150  C     C_R   0.705321 0.527341 0.513033 0.062793
C151  C     C_R   0.205323 0.972659 0.513037 0.062676
C152  C     C_R   0.205323 0.027341 0.513037 0.062695
H1    H     H_    0.827393 0.546964 0.496644 0.162287
H2    H     H_    0.827393 0.453036 0.496644 0.162295
H3    H     H_    0.327384 0.046964 0.496628 0.162103
H4    H     H_    0.327384 0.953036 0.496628 0.162112
H5    H     H_    0.333623 0.770578 0.358911 0.138820
H6    H     H_    0.333627 0.229409 0.358917 0.138589
H7    H     H_    0.833597 0.270465 0.358855 0.139253
H8    H     H_    0.833600 0.729520 0.358863 0.139324
H9    H     H_    0.976486 0.953579 0.669924 0.187177
H10   H     H_    0.976488 0.046417 0.669906 0.186971
H11   H     H_    0.476407 0.453583 0.671099 0.187889
H12   H     H_    0.476407 0.546417 0.671102 0.187964
H13   H     H_    0.929083 0.675073 0.953769 0.174089
H14   H     H_    0.921851 0.319751 0.953730 0.173772
H15   H     H_    0.437792 0.170204 0.953828 0.173175
H16   H     H_    0.440322 0.831003 0.953842 0.173436
H17   H     H_    0.434708 0.244794 0.045840 0.162198
H18   H     H_    0.434937 0.757993 0.045855 0.162404
H19   H     H_    0.934603 0.754657 0.045827 0.163303
H20   H     H_    0.935461 0.236534 0.045812 0.163518
H21   H     H_    0.937058 0.829556 0.953864 0.164846
H22   H     H_    0.945137 0.166824 0.953891 0.164425
H23   H     H_    0.428516 0.324613 0.953821 0.165545
H24   H     H_    0.426210 0.676963 0.953823 0.165730
H25   H     H_    0.563619 0.329959 0.046147 0.168388
H26   H     H_    0.561102 0.668814 0.046131 0.168527
H27   H     H_    0.072200 0.824917 0.046203 0.167392
H28   H     H_    0.079375 0.180326 0.046251 0.166995
O1    O     O_3   0.749980 0.749980 0.500000 -0.498496
O2    O     O_3   0.749980 0.250020 0.500000 -0.498508
O3    O     O_3   0.249980 0.249980 0.500000 -0.498367
O4    O     O_3   0.249980 0.750020 0.500000 -0.498398
O5    O     O_R   0.887340 0.719630 0.543100 -0.613174
O6    O     O_R   0.887340 0.280370 0.543100 -0.613034
O7    O     O_R   0.387340 0.219630 0.543100 -0.613434
O8    O     O_R   0.387340 0.780370 0.543100 -0.613484
O9    O     O_R   0.612630 0.719610 0.456900 -0.643267
O10   O     O_R   0.612630 0.280390 0.456900 -0.643294
O11   O     O_R   0.112630 0.219610 0.456900 -0.643213
O12   O     O_R   0.112630 0.780390 0.456900 -0.643201
O13   O     O_R   0.698160 0.780350 0.335610 -0.624965
O14   O     O_R   0.698160 0.219650 0.335610 -0.625003
O15   O     O_R   0.198160 0.280350 0.335610 -0.625265
O16   O     O_R   0.198160 0.719650 0.335610 -0.625055
O17   O     O_R   0.801810 0.780340 0.664400 -0.630611
O18   O     O_R   0.801810 0.219660 0.664400 -0.630707
O19   O     O_R   0.301810 0.280340 0.664400 -0.630295
O20   O     O_R   0.301810 0.719660 0.664400 -0.630223
O21   O     O_R   0.637430 0.719620 0.335600 -0.640942
O22   O     O_R   0.637430 0.280380 0.335600 -0.640982
O23   O     O_R   0.137430 0.219620 0.335600 -0.640977
O24   O     O_R   0.137430 0.780380 0.335600 -0.640980
O25   O     O_R   0.862530 0.719620 0.664390 -0.609762
O26   O     O_R   0.862530 0.280380 0.664390 -0.609311
O27   O     O_R   0.362530 0.219620 0.664390 -0.610636
O28   O     O_R   0.362530 0.780380 0.664390 -0.610802
O29   O     O_R   0.844250 0.780360 0.456900 -0.629772
O30   O     O_R   0.844250 0.219640 0.456900 -0.629783
O31   O     O_R   0.344250 0.280360 0.456900 -0.630076
O32   O     O_R   0.344250 0.719640 0.456900 -0.629967
O33   O     O_R   0.655730 0.780340 0.543100 -0.628863
O34   O     O_R   0.655730 0.219660 0.543100 -0.628819
O35   O     O_R   0.155730 0.280340 0.543100 -0.629010
O36   O     O_R   0.155730 0.719660 0.543100 -0.629014
O37   O     O_R   0.758810 0.865800 0.456900 -0.607598
O38   O     O_R   0.758810 0.134200 0.456900 -0.607498
O39   O     O_R   0.258810 0.365800 0.456900 -0.607360
O40   O     O_R   0.258810 0.634200 0.456900 -0.607425
O41   O     O_R   0.698070 0.634180 0.456900 -0.641044
O42   O     O_R   0.698070 0.365820 0.456900 -0.641106
O43   O     O_R   0.198070 0.134180 0.456900 -0.640974
O44   O     O_R   0.198070 0.865820 0.456900 -0.640929
O45   O     O_R   0.741180 0.865790 0.543100 -0.615646
O46   O     O_R   0.741180 0.134210 0.543100 -0.615662
O47   O     O_R   0.241180 0.365790 0.543100 -0.615837
O48   O     O_R   0.241180 0.634210 0.543100 -0.615809
O49   O     O_R   0.801890 0.634180 0.543100 -0.635373
O50   O     O_R   0.801890 0.365820 0.543100 -0.635218
O51   O     O_R   0.301890 0.134180 0.543100 -0.635882
O52   O     O_R   0.301890 0.865820 0.543100 -0.635921
Zn1   Zn    Zn3+2 0.824150 0.706610 0.561580 1.019715
Zn2   Zn    Zn3+2 0.824150 0.293390 0.561580 1.020090
Zn3   Zn    Zn3+2 0.324150 0.206610 0.561580 1.018468
Zn4   Zn    Zn3+2 0.324150 0.793390 0.561580 1.018379
Zn5   Zn    Zn3+2 0.762580 0.793370 0.438420 1.025944
Zn6   Zn    Zn3+2 0.762580 0.206630 0.438420 1.025924
Zn7   Zn    Zn3+2 0.262580 0.293370 0.438420 1.025854
Zn8   Zn    Zn3+2 0.262580 0.706630 0.438420 1.026008
Zn9   Zn    Zn3+2 0.737390 0.793360 0.561580 1.020062
Zn10  Zn    Zn3+2 0.737390 0.206640 0.561580 1.020036
Zn11  Zn    Zn3+2 0.237390 0.293360 0.561580 1.020192
Zn12  Zn    Zn3+2 0.237390 0.706640 0.561580 1.020207
Zn13  Zn    Zn3+2 0.675820 0.706600 0.438420 0.976055
Zn14  Zn    Zn3+2 0.675820 0.293400 0.438420 0.976003
Zn15  Zn    Zn3+2 0.175820 0.206600 0.438420 0.975912
Zn16  Zn    Zn3+2 0.175820 0.793400 0.438420 0.975942
H29   H     H_    0.605771 0.744500 0.614275 0.177460
H30   H     H_    0.605771 0.255504 0.614277 0.177478
H31   H     H_    0.105772 0.244641 0.614279 0.177278
H32   H     H_    0.105771 0.755389 0.614277 0.177314
H33   H     H_    0.523118 0.769661 0.356929 0.148631
H34   H     H_    0.523123 0.230328 0.356935 0.148598
H35   H     H_    0.023090 0.269546 0.356876 0.149098
H36   H     H_    0.023093 0.730437 0.356883 0.148983
H37   H     H_    0.417595 0.781551 0.242663 0.147871
H38   H     H_    0.417601 0.218423 0.242672 0.147582
H39   H     H_    0.917557 0.281313 0.242587 0.149419
H40   H     H_    0.917561 0.718655 0.242597 0.149127
H41   H     H_    0.823027 0.281776 0.243713 0.151466
H42   H     H_    0.823031 0.718194 0.243723 0.151754
H43   H     H_    0.323066 0.782015 0.243790 0.149703
H44   H     H_    0.323072 0.217956 0.243800 0.148599
I1    I     I_    0.525058 0.740010 0.670604 -0.233259
I2    I     I_    0.525059 0.259984 0.670607 -0.233438
I3    I     I_    0.025078 0.240238 0.670631 -0.237300
I4    I     I_    0.025074 0.759819 0.670624 -0.235376
I5    I     I_    0.609449 0.931224 0.394783 -0.290737
I6    I     I_    0.609449 0.068777 0.394783 -0.290546
I7    I     I_    0.109528 0.431222 0.393950 -0.284642
I8    I     I_    0.109526 0.568777 0.393966 -0.285648
I9    I     I_    0.893570 0.864922 0.619252 -0.288750
I10   I     I_    0.893579 0.135080 0.619196 -0.290433
I11   I     I_    0.393509 0.364893 0.619515 -0.285601
I12   I     I_    0.393507 0.635107 0.619528 -0.285013
H45   H     H_    0.663652 0.595475 0.526847 0.176402
H46   H     H_    0.663652 0.404526 0.526848 0.176414
H47   H     H_    0.163657 0.095475 0.526855 0.176447
H48   H     H_    0.163655 0.904526 0.526853 0.176444
I13   I     I_    0.560647 0.571253 0.546886 -0.284070
I14   I     I_    0.560647 0.428747 0.546886 -0.284197
I15   I     I_    0.060657 0.071252 0.546905 -0.286320
I16   I     I_    0.060655 0.928749 0.546903 -0.286041
I17   I     I_    0.601469 0.143828 0.065194 -0.252406
I18   I     I_    0.604788 0.853954 0.065193 -0.252834
I19   I     I_    0.089118 0.636754 0.065097 -0.242914
I20   I     I_    0.077545 0.368306 0.065062 -0.242781
I21   I     I_    0.093949 0.745054 0.934916 -0.263531
I22   I     I_    0.092849 0.267469 0.934969 -0.261135
I23   I     I_    0.593754 0.259161 0.934872 -0.264144
I24   I     I_    0.593387 0.736880 0.934837 -0.264900

loop_
_geom_bond_atom_site_label_1
_geom_bond_atom_site_label_2
_ccdc_geom_bond_type
O5    Zn1   S    
O11   Zn15  S    
C142  C146  A    
C99   C103  A    
C2    O22   A    
C41   C61   S    
C10   H2    S    
C49   H21   S    
C145  C146  A    
C18   H14   S    
C43   C63   S    
O18   Zn10  S    
O30   Zn6   S    
C3    C28   S    
C133  O45   A    
C90   C107  S    
C144  C151  A    
C95   C99   A    
C46   O18   A    
C29   C33   S    
C100  C104  A    
O39   Zn7   S    
C40   H28   S    
C65   H33   S    
C70   C74   A    
C15   I19   S    
C132  O36   A    
C103  I3    S    
C16   C44   S    
C141  C145  A    
C136  O48   A    
O4    Zn16  S    
C19   H15   S    
C109  C118  A    
O21   Zn13  S    
C131  O35   A    
C20   C54   S    
C97   H29   S    
C90   O6    A    
C98   C102  A    
C44   C64   S    
C31   C37   S    
C1    O13   A    
C78   C82   A    
O48   Zn12  S    
C68   C72   A    
C48   O28   A    
C13   I17   S    
C35   C51   S    
O38   Zn6   S    
O20   Zn12  S    
C103  C107  A    
C139  O43   A    
C4    O16   A    
C76   H42   S    
C126  I6    S    
C84   C88   A    
C22   C58   T    
C39   C43   S    
C5    C137  S    
C8    C140  S    
O34   Zn10  S    
C19   C35   S    
C66   C70   A    
C89   C108  S    
O50   Zn2   S    
O1    Zn13  S    
C115  H11   S    
C114  H10   S    
O2    Zn2   S    
C113  H9    S    
C7    C152  A    
C123  C135  S    
C34   C58   S    
C73   C77   A    
O40   Zn8   S    
C139  O51   A    
C33   C49   S    
O4    Zn8   S    
C130  O10   A    
C75   H41   S    
C6    C138  S    
C147  C148  A    
C145  I13   S    
O27   Zn3   S    
C23   C59   T    
C94   C130  S    
C135  O47   A    
C32   C36   S    
C142  C149  A    
O15   Zn7   S    
O29   Zn5   S    
C31   I23   S    
O46   Zn10  S    
C138  O42   A    
C45   O17   A    
C115  C116  A    
O52   Zn4   S    
C122  C134  S    
C6    C149  A    
C85   C93   A    
C78   H6    S    
C129  O9    A    
C130  O34   A    
C9    C10   A    
C110  C114  A    
C36   C52   S    
C11   H3    S    
C82   C86   A    
C9    H1    S    
C110  I10   S    
C128  I8    S    
C47   O19   A    
O3    Zn11  S    
C12   H4    S    
O1    Zn9   S    
C141  C150  A    
C21   C45   S    
C81   C105  A    
O10   Zn14  S    
C23   C47   S    
C30   C34   S    
C24   C48   S    
C138  O50   A    
C91   O31   A    
C140  O44   A    
C89   O29   A    
O43   Zn15  S    
C49   C55   S    
C50   C56   S    
C87   C95   A    
C51   C53   S    
C117  C122  A    
C121  C125  A    
C92   C105  S    
C123  C127  A    
C8    C12   A    
O4    Zn12  S    
C14   C42   S    
O14   Zn6   S    
C41   C53   S    
C43   C55   S    
C39   C49   S    
C1    C26   S    
C92   O32   A    
C93   C97   A    
C112  C116  A    
C4    C27   S    
C69   H37   S    
O1    Zn5   S    
C46   O26   A    
C91   O7    A    
C89   O5    A    
C76   C80   A    
C66   C86   A    
C39   H27   S    
C92   O8    A    
C53   H17   S    
C37   H25   S    
O12   Zn16  S    
O26   Zn2   S    
C15   C43   S    
C117  C118  A    
C75   C79   A    
C14   I18   S    
C96   C100  A    
C82   C106  A    
C37   C41   S    
C40   C44   S    
O23   Zn15  S    
O51   Zn3   S    
C81   C85   A    
C73   H43   S    
O3    Zn3   S    
O6    Zn2   S    
C74   H44   S    
O36   Zn12  S    
C83   C87   A    
C88   C96   A    
O37   Zn5   S    
C3    O23   A    
C54   H18   S    
C80   C84   A    
C1    O21   A    
C142  H46   S    
C13   C41   S    
O19   Zn11  S    
O17   Zn9   S    
C5    C9    A    
C48   O20   A    
O2    Zn14  S    
C79   H7    S    
C80   H8    S    
C94   C98   A    
O45   Zn9   S    
C137  O41   A    
C35   C59   S    
O4    Zn4   S    
O44   Zn16  S    
C66   H34   S    
C151  C152  A    
C69   C73   A    
C52   H24   S    
C146  I14   S    
C120  C123  A    
C72   C76   A    
C132  O12   A    
C124  C128  A    
C56   H20   S    
C95   C131  S    
C17   C33   S    
C93   C129  S    
C110  C117  A    
C55   H19   S    
C15   C29   S    
O22   Zn14  S    
C13   C19   S    
C14   C20   S    
C137  O49   A    
C98   H30   S    
C124  C136  S    
C100  H32   S    
C134  O38   A    
C5    C150  A    
C2    O14   A    
C143  C147  A    
O28   Zn4   S    
C147  I15   S    
C44   C56   S    
C77   C81   A    
C25   C61   T    
C51   H23   S    
O32   Zn8   S    
C27   C63   T    
C28   C64   T    
C99   H31   S    
C143  C152  A    
C22   C46   S    
C140  O52   A    
C131  O11   A    
C125  C126  A    
C31   C35   S    
C127  C128  A    
C29   I21   S    
C104  C108  A    
C113  C114  A    
C15   C17   S    
C101  I1    S    
C45   O25   A    
C13   C31   S    
C112  I12   S    
C14   C32   S    
C6    C10   A    
C112  C119  A    
C119  C120  A    
C136  O40   A    
C67   H35   S    
O35   Zn11  S    
O33   Zn9   S    
C17   H13   S    
C149  C150  A    
C42   C54   S    
C79   C83   A    
O42   Zn14  S    
C65   C69   A    
C84   C108  A    
C2    C25   S    
C67   C71   A    
C3    O15   A    
C20   C36   S    
O1    Zn1   S    
C40   C50   S    
C70   H38   S    
C74   C78   A    
C16   C30   S    
C109  I9    S    
C7    C139  S    
C38   H26   S    
C144  C148  A    
C119  C124  A    
C7    C11   A    
C134  O46   A    
C38   C42   S    
O47   Zn11  S    
C37   C51   S    
C4    O24   A    
C38   C52   S    
C86   C94   A    
O3    Zn7   S    
C111  I11   S    
C16   I20   S    
C17   C55   S    
O8    Zn4   S    
C109  C113  A    
C96   C132  S    
C19   C53   S    
O49   Zn1   S    
C127  I7    S    
C91   C106  S    
O2    Zn10  S    
C52   C54   S    
C101  C105  A    
C20   H16   S    
C34   C50   S    
O9    Zn13  S    
C8    C151  A    
C90   O30   A    
O3    Zn15  S    
C133  O37   A    
C125  I5    S    
C111  C120  A    
C118  C121  A    
C122  C126  A    
C21   C57   T    
C68   H36   S    
C24   C60   T    
C135  O39   A    
C29   C39   S    
C143  H47   S    
C30   C40   S    
C144  H48   S    
C18   C34   S    
O13   Zn5   S    
O24   Zn16  S    
C129  O33   A    
C32   I24   S    
C72   H40   S    
C32   C38   S    
C68   C88   A    
O31   Zn7   S    
C71   H39   S    
O2    Zn6   S    
O16   Zn8   S    
C42   C62   S    
C33   C57   S    
C148  I16   S    
C116  H12   S    
C104  I4    S    
C36   C60   S    
C11   C12   A    
C65   C85   A    
C18   C56   S    
C67   C87   A    
C47   O27   A    
C50   H22   S    
O25   Zn1   S    
C26   C62   T    
C141  H45   S    
C71   C75   A    
O41   Zn13  S    
C83   C107  A    
C102  C106  A    
C97   C101  A    
C30   I22   S    
C16   C18   S    
C102  I2    S    
C111  C115  A    
C121  C133  S    
O7    Zn3   S    
C77   H5    S    
