data_mof_unit_28293.cif
_audit_creation_date              2012-10-26T18:27:30-0400
_audit_creation_method            fapswitch 2.2
_symmetry_space_group_name_H-M    P1
_symmetry_Int_Tables_number       1
_space_group_crystal_system       triclinic
_cell_length_a                    10.854103
_cell_length_b                    11.047657
_cell_length_c                    9.818496
_cell_angle_alpha                 111.277598
_cell_angle_beta                  98.189924
_cell_angle_gamma                 90.998117
_cell_volume                      1082.86050434

loop_
_atom_site_label
_atom_site_type_symbol
_atom_type_description
_atom_site_fract_x
_atom_site_fract_y
_atom_site_fract_z
_atom_type_partial_charge
C1    C     C_R   0.490682 0.254003 0.440492 0.554998
C2    C     C_2   0.496897 0.930432 0.483480 -0.161847
C3    C     C_2   0.503246 0.515615 0.080726 0.044802
C4    C     C_R   0.262464 0.506710 0.504049 0.545445
C5    C     C_2   0.489162 0.488852 0.916618 -0.021709
C6    C     C_R   0.509021 0.746008 0.559512 0.564506
C7    C     C_R   0.736715 0.488661 0.496617 0.547350
C8    C     C_R   0.149170 0.552602 0.783261 -0.096940
C9    C     C_R   0.101609 0.529139 0.896604 -0.133884
C10   C     C_R   0.984358 0.464899 0.868444 -0.130441
C11   C     C_R   0.909382 0.437250 0.731761 -0.086498
C12   C     C_R   0.078763 0.513080 0.638763 0.027452
C13   C     C_R   0.951376 0.474116 0.621065 0.029164
C14   C     C_3   0.271185 0.289982 0.052747 -0.238720
C15   C     C_R   0.128592 0.511256 0.511348 -0.009949
C16   C     C_R   0.047570 0.497661 0.381111 -0.163966
C17   C     C_R   0.919883 0.485922 0.375256 -0.162937
C18   C     C_R   0.870394 0.476283 0.495000 -0.009658
C19   C     C_2   0.485424 0.114590 0.406898 -0.133446
C20   C     C_2   0.501525 0.069613 0.516573 -0.160424
C21   C     C_2   0.513679 0.885448 0.593125 -0.129175
Cu1   Cu    Cu3+1 0.521920 0.521810 0.644910 0.917837
Cu2   Cu    Cu3+1 0.478080 0.478190 0.355090 0.931835
H1    H     H_    0.082730 0.498737 0.283631 0.128067
H2    H     H_    0.859866 0.485242 0.276803 0.132636
H3    H     H_    0.479733 0.864353 0.368216 0.151174
H4    H     H_    0.518470 0.135694 0.631847 0.156291
H5    H     H_    0.530854 0.951790 0.708203 0.098328
H6    H     H_    0.456437 0.251989 0.040158 0.256671
H7    H     H_    0.231165 0.203921 0.953769 0.109721
H8    H     H_    0.211674 0.371776 0.059124 0.147522
H9    H     H_    0.270563 0.264919 0.152240 0.175031
H10   H     H_    0.468417 0.048275 0.291809 0.095772
H11   H     H_    0.419642 0.414200 0.840761 0.185236
H12   H     H_    0.561672 0.601024 0.155777 0.107163
H13   H     H_    0.619912 0.625720 0.936328 0.202314
H14   H     H_    0.238189 0.607903 0.814470 0.148710
H15   H     H_    0.156727 0.559588 0.005934 0.112242
H16   H     H_    0.949762 0.440484 0.954111 0.101383
H17   H     H_    0.819187 0.386022 0.713764 0.142074
N1    N     N_2   0.445130 0.445430 0.137370 -0.137919
N2    N     N_2   0.554930 0.554500 0.862630 -0.376899
N3    N     N_2   0.396905 0.323590 0.039577 -0.440841
O1    O     O_R   0.511700 0.332330 0.577400 -0.500891
O2    O     O_R   0.474680 0.295500 0.332650 -0.502736
O3    O     O_R   0.338160 0.518420 0.622400 -0.512043
O4    O     O_R   0.301140 0.481590 0.377650 -0.504077
O5    O     O_R   0.525320 0.704500 0.667350 -0.488803
O6    O     O_R   0.488300 0.667670 0.422600 -0.506006
O7    O     O_R   0.698860 0.518410 0.622350 -0.497932
O8    O     O_R   0.661840 0.481580 0.377600 -0.505984

loop_
_geom_bond_atom_site_label_1
_geom_bond_atom_site_label_2
_ccdc_geom_bond_type
C8    C9    A    
Cu1   O5    S    
C5    N2    D    
Cu2   O2    S    
C20   H4    S    
C11   C13   A    
C9    C10   A    
C1    O1    A    
H13   N2    S    
C19   C20   D    
Cu2   N1    S    
C12   C15   A    
C3    H12   S    
C14   H8    S    
C8    C12   A    
C7    C18   S    
C17   H2    S    
C5    H11   S    
C2    C21   D    
C17   C18   A    
C7    O8    A    
C2    H3    S    
C4    O3    A    
H6    N3    S    
N1    N3    S    
C1    O2    A    
Cu1   N2    S    
C6    O5    A    
C13   C18   A    
C14   H7    S    
C9    H15   S    
Cu1   O3    S    
C21   H5    S    
C6    C21   S    
C4    C15   S    
C19   H10   S    
C11   H17   S    
Cu1   O1    S    
Cu2   O6    S    
Cu2   O4    S    
C8    H14   S    
C2    C20   S    
C15   C16   A    
Cu1   O7    S    
C12   C13   A    
C16   H1    S    
C10   C11   A    
Cu1   Cu2   S    
C16   C17   A    
C1    C19   S    
Cu2   O8    S    
C10   H16   S    
C3    N1    D    
C6    O6    A    
C7    O7    A    
C14   H9    S    
C14   N3    S    
C3    C5    S    
C4    O4    A    
