data_mof_unit_49443.cif
_audit_creation_date              2012-12-10T17:27:50-0500
_audit_creation_method            fapswitch 2.2
_symmetry_space_group_name_H-M    P1
_symmetry_Int_Tables_number       1
_space_group_crystal_system       triclinic
_cell_length_a                    10.372021
_cell_length_b                    11.925055
_cell_length_c                    12.631312
_cell_angle_alpha                 93.365537
_cell_angle_beta                  89.858079
_cell_angle_gamma                 85.178548
_cell_volume                      1554.07161104

loop_
_atom_site_label
_atom_site_type_symbol
_atom_type_description
_atom_site_fract_x
_atom_site_fract_y
_atom_site_fract_z
_atom_type_partial_charge
C1    C     C_R   0.498653 0.522196 0.702223 0.818285
C2    C     C_R   0.528998 0.640395 0.866230 -0.215790
C3    C     C_R   0.528148 0.437966 0.872390 -0.256136
C4    C     C_R   0.734713 0.502899 0.527639 0.868711
C5    C     C_R   0.561104 0.442666 0.979110 0.076740
C6    C     C_R   0.577707 0.550093 0.030130 0.125738
C7    C     C_R   0.605069 0.557367 0.138580 -0.008511
C8    C     C_R   0.608034 0.353892 0.144551 0.100211
C9    C     C_R   0.583039 0.342565 0.034928 0.120457
C10   C     C_R   0.421260 0.951108 0.376341 -0.351848
C11   C     C_R   0.424517 0.835459 0.391320 0.004912
C12   C     C_R   0.940743 0.412057 0.602244 0.091402
C13   C     C_R   0.524933 0.860711 0.558462 -0.073675
C14   C     C_R   0.525018 0.977260 0.546463 0.101187
C15   C     C_R   0.472751 0.022934 0.453972 0.097802
C16   C     C_R   0.534086 0.477953 0.304128 0.936237
C17   C     C_R   0.472326 0.139772 0.442386 -0.058156
C18   C     C_R   0.572436 0.164433 0.609723 0.006865
C19   C     C_R   0.575170 0.048963 0.624677 -0.337898
C20   C     C_R   0.259701 0.504159 0.519578 0.910656
C21   C     C_R   0.887018 0.316024 0.638095 -0.138503
C22   C     C_R   0.966054 0.225099 0.672195 -0.161391
C23   C     C_R   0.863835 0.508510 0.574172 -0.238598
C24   C     C_R   0.099308 0.230361 0.675508 -0.153058
C25   C     C_R   0.153893 0.325759 0.643144 -0.139129
C26   C     C_R   0.075857 0.416417 0.602187 0.073714
C27   C     C_3   0.824743 0.714618 0.636784 -0.360995
C28   C     C_3   0.868960 0.765809 0.743128 -0.918537
C29   C     C_3   0.570953 0.225919 0.980844 -0.418570
C30   C     C_3   0.693082 0.183913 0.917471 -0.885943
C31   C     C_3   0.098975 0.734243 0.561474 -0.351941
C32   C     C_3   0.185421 0.769417 0.654595 -0.320305
C33   C     C_3   0.204488 0.895184 0.656936 -0.913322
C34   C     C_R   0.914096 0.613842 0.592462 0.135380
C35   C     C_3   0.661003 0.660847 0.192163 -0.381844
C36   C     C_3   0.793926 0.679754 0.145405 -0.361060
C37   C     C_3   0.850829 0.780644 0.202279 -0.893208
C38   C     C_3   0.671838 0.255932 0.204107 -0.389872
C39   C     C_3   0.797122 0.287002 0.257760 -0.820496
C40   C     C_R   0.047720 0.618885 0.573556 0.076386
C41   C     C_R   0.127015 0.513718 0.563988 -0.245116
C42   C     C_R   0.585792 0.462495 0.195665 -0.185771
C43   C     C_R   0.514494 0.535111 0.815917 -0.041062
C44   C     C_R   0.559815 0.648038 0.972780 -0.204372
H1    H     H_    0.518745 0.716453 0.823017 0.149510
H2    H     H_    0.923383 0.152538 0.700527 0.134568
H3    H     H_    0.160350 0.161909 0.706467 0.140097
H4    H     H_    0.256178 0.329582 0.656820 0.164287
H5    H     H_    0.567554 0.731336 0.009519 0.141413
H6    H     H_    0.916835 0.699891 0.791767 0.270366
H7    H     H_    0.934482 0.832532 0.731058 0.266323
H8    H     H_    0.783893 0.806830 0.788316 0.238912
H9    H     H_    0.809849 0.780015 0.577953 0.195690
H10   H     H_    0.728489 0.686625 0.655052 0.226899
H11   H     H_    0.711726 0.241628 0.854433 0.254379
H12   H     H_    0.516553 0.358246 0.830518 0.167125
H13   H     H_    0.778336 0.177916 0.970420 0.264799
H14   H     H_    0.681291 0.098993 0.879738 0.239051
H15   H     H_    0.550309 0.163196 0.038658 0.191158
H16   H     H_    0.484556 0.225617 0.929360 0.190679
H17   H     H_    0.242667 0.917738 0.579538 0.280276
H18   H     H_    0.111243 0.945911 0.673969 0.251818
H19   H     H_    0.274412 0.916424 0.719924 0.246743
H20   H     H_    0.142870 0.749891 0.731363 0.216839
H21   H     H_    0.281364 0.722213 0.648409 0.261084
H22   H     H_    0.148863 0.737619 0.484230 0.205507
H23   H     H_    0.429305 0.176844 0.373265 0.121262
H24   H     H_    0.018446 0.800466 0.555512 0.197891
H25   H     H_    0.785758 0.858476 0.193988 0.262367
H26   H     H_    0.864367 0.766329 0.287830 0.262305
H27   H     H_    0.946410 0.792568 0.166790 0.250258
H28   H     H_    0.861276 0.603291 0.154199 0.228515
H29   H     H_    0.786974 0.694884 0.059722 0.229458
H30   H     H_    0.592112 0.736738 0.186637 0.191119
H31   H     H_    0.678562 0.649876 0.277569 0.238079
H32   H     H_    0.779308 0.359917 0.315839 0.265979
H33   H     H_    0.840420 0.214270 0.300323 0.245558
H34   H     H_    0.607084 0.219609 0.672017 0.122994
H35   H     H_    0.867478 0.308449 0.197208 0.246256
H36   H     H_    0.604784 0.226689 0.262656 0.218046
H37   H     H_    0.701062 0.181173 0.150906 0.206905
H38   H     H_    0.379798 0.983769 0.304580 0.142703
H39   H     H_    0.614842 0.016320 0.697058 0.142594
H40   H     H_    0.385860 0.780050 0.330812 0.140144
H41   H     H_    0.562965 0.824747 0.629628 0.118544
H42   H     H_    0.784288 0.313469 0.647619 0.150985
N1    N     N_R   0.523130 0.207800 0.519340 -0.095613
N2    N     N_R   0.476870 0.792180 0.480660 -0.094265
O1    O     O_R   0.506170 0.421690 0.658830 -0.652129
O2    O     O_R   0.491330 0.609320 0.646410 -0.658152
O3    O     O_R   0.690660 0.406170 0.506210 -0.622932
O4    O     O_R   0.675810 0.593790 0.493790 -0.634924
O5    O     O_R   0.508670 0.390680 0.353590 -0.606913
O6    O     O_R   0.493830 0.578310 0.341170 -0.626431
O7    O     O_R   0.324190 0.406210 0.506210 -0.605649
O8    O     O_R   0.309340 0.593830 0.493790 -0.614213
Zn1   Zn    Zn3+2 0.509910 0.374720 0.508290 0.915085
Zn2   Zn    Zn3+2 0.490090 0.625280 0.491710 0.897076

loop_
_geom_bond_atom_site_label_1
_geom_bond_atom_site_label_2
_ccdc_geom_bond_type
C44   H5    S    
C31   H22   S    
C35   H30   S    
C1    O2    A    
C37   H25   S    
C35   C36   S    
C20   C41   S    
C27   H10   S    
O4    Zn2   S    
C12   C23   A    
C35   H31   S    
C16   O5    A    
C34   C40   A    
C39   H33   S    
C36   C37   S    
C8    C42   A    
C10   C15   A    
C38   C39   S    
C28   H7    S    
O6    Zn2   S    
C30   H13   S    
C31   C40   S    
C18   C19   A    
C7    C42   A    
C28   H6    S    
C1    C43   S    
C29   H15   S    
C2    C44   A    
C8    C9    A    
O8    Zn2   S    
C13   C14   A    
C2    C43   A    
C33   H19   S    
C4    O3    A    
C20   O8    A    
C2    H1    S    
C6    C44   A    
C21   C22   A    
C8    C38   S    
C19   H39   S    
C27   C34   S    
C31   H24   S    
C17   H23   S    
C24   C25   A    
C32   H20   S    
C36   H29   S    
C4    C23   S    
C33   H18   S    
C25   C26   A    
C12   C21   A    
C10   H38   S    
C12   C26   A    
C39   H35   S    
C5    C9    A    
C29   C30   S    
C3    H12   S    
C31   C32   S    
C29   H16   S    
C11   N2    A    
C18   H34   S    
C23   C34   A    
C3    C43   A    
O7    Zn1   S    
C39   H32   S    
O3    Zn1   S    
C25   H4    S    
C40   C41   A    
C22   H2    S    
C20   O7    A    
C37   H27   S    
C38   H37   S    
C22   C24   A    
C13   H41   S    
O5    Zn1   S    
C15   C17   A    
C21   H42   S    
C1    O1    A    
C17   N1    A    
C24   H3    S    
C7    C35   S    
C14   C19   A    
C3    C5    A    
C27   H9    S    
C6    C7    A    
C9    C29   S    
C11   H40   S    
C30   H11   S    
C16   O6    A    
C18   N1    A    
C32   C33   S    
C28   H8    S    
C5    C6    A    
C38   H36   S    
C30   H14   S    
C13   N2    A    
C16   C42   S    
C10   C11   A    
C33   H17   S    
O1    Zn1   S    
C27   C28   S    
C14   C15   A    
N1    Zn1   S    
C37   H26   S    
O2    Zn2   S    
N2    Zn2   S    
C36   H28   S    
C26   C41   A    
C32   H21   S    
C4    O4    A    
