data_mof_unit_68539.cif
_audit_creation_date              2012-12-11T14:17:45-0500
_audit_creation_method            fapswitch 2.2
_symmetry_space_group_name_H-M    P1
_symmetry_Int_Tables_number       1
_space_group_crystal_system       triclinic
_cell_length_a                    11.688551
_cell_length_b                    11.653603
_cell_length_c                    18.595474
_cell_angle_alpha                 91.272351
_cell_angle_beta                  89.146711
_cell_angle_gamma                 120.252402
_cell_volume                      2187.44675572

loop_
_atom_site_label
_atom_site_type_symbol
_atom_type_description
_atom_site_fract_x
_atom_site_fract_y
_atom_site_fract_z
_atom_type_partial_charge
C1    C     C_R   0.522652 0.451625 0.146529 0.589298
C2    C     C_R   0.550812 0.077636 0.143313 0.635149
C3    C     C_R   0.935478 0.477709 0.147269 0.543077
C4    C     C_R   0.451351 0.529716 0.855668 0.551002
C5    C     C_R   0.066589 0.542821 0.853264 0.533433
C6    C     C_R   0.478142 0.937755 0.851148 0.509509
C7    C     C_R   0.395165 0.959120 0.456585 0.256153
C8    C     C_R   0.100666 0.501319 0.447306 0.248082
C9    C     C_R   0.607233 0.552824 0.469163 0.202963
C10   C     C_R   0.126065 0.507569 0.522076 0.241444
C11   C     C_R   0.382272 0.932516 0.529224 0.294227
C12   C     C_R   0.583914 0.592737 0.535287 0.313845
C13   C     C_R   0.746506 0.080939 0.571887 0.247813
C14   C     C_R   0.856945 0.559870 0.596899 0.251156
C15   C     C_R   0.348631 0.239578 0.577241 0.180642
C16   C     C_R   0.973120 0.693415 0.470954 0.302970
C17   C     C_R   0.717373 0.991162 0.430449 0.211723
C18   C     C_R   0.271222 0.273345 0.441213 0.232700
C19   C     C_R   0.857554 0.095822 0.531202 0.312096
C20   C     C_R   0.862569 0.682264 0.584889 0.346765
C21   C     C_R   0.243701 0.129923 0.540368 0.347856
C22   C     C_R   0.915919 0.744655 0.518773 0.423389
C23   C     C_R   0.845349 0.069228 0.457178 0.352275
C24   C     C_R   0.213309 0.145307 0.469230 0.406728
C25   C     C_R   0.517886 0.452993 0.353903 0.527207
C26   C     C_R   0.546230 0.064559 0.352738 0.546711
C27   C     C_R   0.933731 0.481153 0.353896 0.514949
C28   C     C_R   0.455436 0.517280 0.648061 0.562289
C29   C     C_R   0.074135 0.547726 0.645360 0.586905
C30   C     C_R   0.479951 0.932394 0.646281 0.582430
C31   C     C_R   0.497788 0.025009 0.914377 -0.076152
C32   C     C_R   0.013241 0.494597 0.927269 -0.043195
C33   C     C_R   0.505244 0.523409 0.925550 -0.046900
C34   C     C_R   0.007662 0.494171 0.078055 -0.004924
C35   C     C_R   0.523910 0.053031 0.064105 -0.005294
C36   C     C_R   0.509212 0.481684 0.072002 -0.050781
C37   C     C_R   0.387146 0.005115 0.957035 -0.035410
C38   C     C_R   0.018547 0.387793 0.963932 0.000772
C39   C     C_R   0.585034 0.634885 0.972775 -0.043741
C40   C     C_R   0.020260 0.392781 0.041936 -0.012201
C41   C     C_R   0.395730 0.999077 0.033230 0.026674
C42   C     C_R   0.568385 0.612231 0.048026 -0.104835
C43   C     C_R   0.635142 0.113159 0.017624 0.251244
C44   C     C_R   0.052986 0.607785 0.040292 0.282885
C45   C     C_R   0.473467 0.378055 0.021079 0.247228
C46   C     C_R   0.000717 0.586626 0.970806 0.246968
C47   C     C_R   0.623981 0.100621 0.942632 0.256911
C48   C     C_R   0.472132 0.398640 0.948265 0.251411
C49   C     C_R   0.266020 0.983136 0.926734 0.317412
C50   C     C_R   0.023211 0.278602 0.929188 0.350628
C51   C     C_R   0.703361 0.753124 0.951678 0.250750
C52   C     C_R   0.045533 0.304648 0.080417 0.284081
C53   C     C_R   0.276215 0.941070 0.074476 0.317351
C54   C     C_R   0.646127 0.717494 0.096215 0.256609
C55   C     C_R   0.153431 0.930678 0.968245 -0.054771
C56   C     C_R   0.036114 0.187803 0.970572 -0.147868
C57   C     C_R   0.804316 0.818113 0.003464 -0.158286
C58   C     C_R   0.041331 0.198096 0.044514 -0.140311
C59   C     C_R   0.156059 0.908070 0.040733 -0.133675
C60   C     C_R   0.775946 0.800131 0.076249 -0.088162
C61   C     C_R   0.497585 0.980225 0.572625 0.005494
C62   C     C_R   0.032165 0.508871 0.572203 -0.026515
C63   C     C_R   0.496866 0.487799 0.579447 0.036746
C64   C     C_R   0.988281 0.504853 0.427263 -0.032656
C65   C     C_R   0.514782 0.000722 0.423345 -0.057813
C66   C     C_R   0.494068 0.477355 0.429380 -0.032787
C67   C     C_R   0.621988 0.029032 0.537338 -0.051181
C68   C     C_R   0.927213 0.521563 0.548327 -0.104983
C69   C     C_R   0.412789 0.364897 0.543909 -0.094706
C70   C     C_R   0.944131 0.563165 0.478278 -0.051541
C71   C     C_R   0.616717 0.003799 0.463671 -0.117131
C72   C     C_R   0.389137 0.373978 0.470693 -0.106978
Cr1   Cr    Cr6+3 0.768550 0.541320 0.250660 1.041821
Cr2   Cr    Cr6+3 0.458680 0.227230 0.250660 1.013610
Cr3   Cr    Cr6+3 0.772770 0.231450 0.250660 1.042129
Cr4   Cr    Cr6+3 0.541320 0.768550 0.749340 1.068469
Cr5   Cr    Cr6+3 0.227230 0.458680 0.749340 1.038136
Cr6   Cr    Cr6+3 0.231450 0.772770 0.749340 1.043042
H1    H     H_    0.063928 0.910501 0.942240 0.166513
H2    H     H_    0.036454 0.103798 0.945129 0.081505
H3    H     H_    0.898521 0.899236 0.988895 0.068710
H4    H     H_    0.043249 0.121043 0.075044 0.083006
H5    H     H_    0.064118 0.864071 0.070856 0.111818
H6    H     H_    0.848995 0.864648 0.115432 0.109515
O1    O     O_R   0.910960 0.572410 0.171010 -0.520429
O2    O     O_R   0.427590 0.338550 0.171010 -0.502875
O3    O     O_R   0.661450 0.089040 0.171010 -0.479783
O4    O     O_R   0.572410 0.910960 0.828990 -0.450053
O5    O     O_R   0.338550 0.427590 0.828990 -0.464891
O6    O     O_R   0.089040 0.661450 0.828990 -0.471565
O7    O     O_R   0.639750 0.528530 0.175600 -0.459465
O8    O     O_R   0.471470 0.111220 0.175600 -0.449238
O9    O     O_R   0.888780 0.360250 0.175600 -0.450492
O10   O     O_R   0.528530 0.639750 0.824400 -0.462317
O11   O     O_R   0.111220 0.471470 0.824400 -0.461769
O12   O     O_R   0.360250 0.888780 0.824400 -0.502440
O13   O     O_R   0.909330 0.572400 0.331540 -0.512941
O14   O     O_R   0.427600 0.336930 0.331540 -0.534874
O15   O     O_R   0.663070 0.090670 0.331540 -0.504138
O16   O     O_R   0.572400 0.909330 0.668460 -0.468634
O17   O     O_R   0.336930 0.427600 0.668460 -0.502122
O18   O     O_R   0.090670 0.663070 0.668460 -0.521128
O19   O     O_R   0.638240 0.528520 0.324410 -0.493995
O20   O     O_R   0.471480 0.109720 0.324410 -0.534366
O21   O     O_R   0.890280 0.361760 0.324410 -0.536755
O22   O     O_R   0.528520 0.638240 0.675590 -0.463213
O23   O     O_R   0.109720 0.471480 0.675590 -0.501613
O24   O     O_R   0.361760 0.890280 0.675590 -0.482098
O25   O     O_3   0.666667 0.333333 0.250630 -0.311386
O26   O     O_3   0.333333 0.666667 0.749370 -0.323313
O27   O     O_3   0.756176 0.154197 0.046210 -0.538423
C73   C     C_3   0.761712 0.037559 0.052623 -0.062359
H7    H     H_    0.798869 0.021913 0.001031 0.167320
H8    H     H_    0.665413 0.945584 0.064008 0.110340
H9    H     H_    0.823818 0.048346 0.099348 0.165793
O28   O     O_3   0.187369 0.692017 0.052821 -0.561304
C74   C     C_3   0.273111 0.681911 0.001632 -0.114888
H10   H     H_    0.263415 0.715774 0.948008 0.137122
H11   H     H_    0.260160 0.580979 0.998975 0.093870
H12   H     H_    0.376720 0.748731 0.019178 0.137090
O29   O     O_3   0.422774 0.251252 0.043983 -0.549944
C75   C     C_3   0.288966 0.206317 0.057979 -0.078215
H13   H     H_    0.253187 0.135991 0.102767 0.148005
H14   H     H_    0.234451 0.164084 0.007785 0.143286
H15   H     H_    0.269373 0.285277 0.078614 0.144369
O30   O     O_3   0.960094 0.669393 0.943770 -0.570646
C76   C     C_3   0.838876 0.593201 0.907048 -0.096587
H16   H     H_    0.757038 0.545584 0.946593 0.122330
H17   H     H_    0.834559 0.515935 0.869682 0.081462
H18   H     H_    0.825000 0.659115 0.871294 0.180167
O31   O     O_3   0.737090 0.133031 0.902075 -0.529373
C77   C     C_3   0.741887 0.194326 0.836009 -0.022471
H19   H     H_    0.802083 0.303499 0.842410 0.122920
H20   H     H_    0.645706 0.167765 0.812256 0.073367
H21   H     H_    0.790126 0.162513 0.794852 0.197922
O32   O     O_3   0.435542 0.295111 0.899437 -0.525341
C78   C     C_3   0.546775 0.324512 0.855708 -0.115570
H22   H     H_    0.516209 0.254378 0.809508 0.135423
H23   H     H_    0.621377 0.317937 0.888425 0.103449
H24   H     H_    0.593781 0.423538 0.830454 0.104098
O33   O     O_3   0.252594 0.019588 0.858608 -0.673018
H25   H     H_    0.340673 0.075867 0.837501 0.360435
O34   O     O_3   0.000041 0.249906 0.856705 -0.668894
H26   H     H_    0.010543 0.173174 0.842343 0.308296
O35   O     O_3   0.728834 0.796550 0.881827 -0.676547
H27   H     H_    0.814709 0.881083 0.879224 0.308673
O36   O     O_3   0.084635 0.323738 0.151460 -0.711124
H28   H     H_    0.130419 0.420226 0.162845 0.324637
O37   O     O_3   0.273715 0.901504 0.144360 -0.660335
H29   H     H_    0.182916 0.863555 0.164462 0.318797
O38   O     O_3   0.604983 0.730123 0.164387 -0.671027
H30   H     H_    0.507063 0.673953 0.166158 0.322942
O39   O     O_3   0.285101 0.920748 0.417234 -0.637209
H31   H     H_    0.298981 0.895148 0.367970 0.307154
O40   O     O_3   0.199731 0.527165 0.398337 -0.743796
H32   H     H_    0.171594 0.534012 0.349392 0.323052
O41   O     O_3   0.695071 0.507042 0.470505 -0.764209
H33   H     H_    0.668754 0.428766 0.438215 0.333380
O42   O     O_3   0.246581 0.531128 0.547510 -0.741022
H34   H     H_    0.307404 0.546854 0.506653 0.353203
O43   O     O_3   0.258522 0.838718 0.552322 -0.589682
H35   H     H_    0.267767 0.763479 0.568267 0.328418
O44   O     O_3   0.606899 0.720597 0.543434 -0.668602
H36   H     H_    0.522701 0.715448 0.558287 0.323457
O45   O     O_3   0.760729 0.127409 0.642002 -0.722102
H37   H     H_    0.823347 0.107661 0.666473 0.336551
O46   O     O_3   0.794731 0.486368 0.657087 -0.737913
H38   H     H_    0.794776 0.401311 0.653495 0.341014
O47   O     O_3   0.395088 0.218101 0.640622 -0.691534
H39   H     H_    0.482603 0.296145 0.652290 0.341390
O48   O     O_3   0.043387 0.769630 0.413853 -0.629780
H40   H     H_    0.093817 0.732191 0.390352 0.350169
O49   O     O_3   0.693422 0.915159 0.367759 -0.731167
H41   H     H_    0.597171 0.849763 0.364520 0.342002
O50   O     O_3   0.212757 0.295661 0.384036 -0.670003
H42   H     H_    0.268514 0.386677 0.366718 0.378343
O51   O     O_3   0.967420 0.106325 0.564270 -0.555058
C79   C     C_3   0.041981 0.230669 0.597959 -0.085272
H43   H     H_    0.068668 0.217510 0.652791 0.125932
H44   H     H_    0.987902 0.284737 0.603819 0.146017
H45   H     H_    0.133595 0.289987 0.566864 0.189264
O52   O     O_3   0.805109 0.735990 0.630331 -0.516604
C80   C     C_3   0.831410 0.731257 0.703809 -0.047719
H46   H     H_    0.929511 0.740732 0.713316 0.123644
H47   H     H_    0.750833 0.639496 0.728274 0.183671
H48   H     H_    0.831902 0.816177 0.732267 0.120273
O53   O     O_3   0.177640 0.003632 0.568801 -0.442963
C81   C     C_3   0.127917 0.000033 0.639105 -0.002850
H49   H     H_    0.019839 0.957903 0.636230 0.175681
H50   H     H_    0.168359 0.096290 0.668398 0.131682
H51   H     H_    0.147047 0.933431 0.672068 0.165833
O54   O     O_3   0.896572 0.845087 0.496346 -0.453093
C82   C     C_3   0.833800 0.809438 0.428008 0.045946
H52   H     H_    0.732894 0.787241 0.435850 0.182360
H53   H     H_    0.819930 0.718877 0.399668 0.152797
H54   H     H_    0.889839 0.887436 0.389161 0.202268
O55   O     O_3   0.959736 0.114969 0.415298 -0.505966
C83   C     C_3   0.939844 0.127583 0.341285 -0.010756
H55   H     H_    0.029545 0.205579 0.314941 0.168291
H56   H     H_    0.873587 0.163691 0.333915 0.206162
H57   H     H_    0.907653 0.034158 0.310157 0.118387
O56   O     O_3   0.125679 0.033488 0.428851 -0.406427
C84   C     C_3   0.165014 0.041306 0.355205 0.024594
H58   H     H_    0.123541 0.941290 0.330494 0.138214
H59   H     H_    0.272657 0.093442 0.348692 0.179128
H60   H     H_    0.128823 0.090962 0.321119 0.111872

loop_
_geom_bond_atom_site_label_1
_geom_bond_atom_site_label_2
_ccdc_geom_bond_type
C2    C35   S    
C39   C51   A    
C84   H58   S    
O45   H37   S    
C55   C59   A    
C3    O1    A    
C74   H10   S    
O47   H39   S    
C36   C42   A    
O27   C73   S    
O48   H40   S    
Cr2   O25   S    
C73   H8    S    
O35   H27   S    
C53   C59   A    
C20   O52   S    
Cr2   O14   S    
C54   C60   A    
O49   H41   S    
Cr6   O6    S    
Cr1   O13   S    
C84   H59   S    
C24   O56   S    
C55   H1    S    
C17   C23   A    
C81   H51   S    
C34   C40   A    
C81   H50   S    
C59   H5    S    
C74   H11   S    
C13   C67   A    
Cr6   O18   S    
C27   O21   A    
O34   H26   S    
C30   O16   A    
C11   O43   S    
C6    O4    A    
O28   C74   S    
C15   O47   S    
Cr6   O24   S    
Cr2   O8    S    
C8    O40   S    
C9    C66   A    
O36   H28   S    
Cr4   O10   S    
O52   C80   S    
Cr5   O17   S    
C28   O17   A    
O41   H33   S    
C66   C72   A    
O44   H36   S    
C44   C46   A    
C77   H19   S    
C82   H53   S    
C49   O33   S    
C16   C22   A    
O38   H30   S    
C83   H55   S    
C51   C57   A    
C32   C38   A    
O55   C83   S    
C35   C43   A    
C19   O51   S    
C67   C71   A    
C5    O6    A    
C48   O32   S    
C26   O15   A    
C5    C32   S    
C26   O20   A    
C18   O50   S    
C43   C47   A    
C6    C31   S    
C1    O7    A    
C31   C47   A    
C53   O37   S    
C10   C62   A    
C43   O27   S    
C73   H7    S    
C5    O11   A    
C17   O49   S    
C21   O53   S    
C39   C42   A    
C18   C72   A    
C15   C69   A    
C84   H60   S    
Cr3   O25   S    
O56   C84   S    
C13   C19   A    
C63   C69   A    
Cr5   O23   S    
C16   C70   A    
Cr1   O7    S    
Cr6   O26   S    
C74   H12   S    
C28   O22   A    
O46   H38   S    
C12   C63   A    
C19   C23   A    
C25   O19   A    
C57   C60   A    
C3    C34   S    
C45   O29   S    
C65   C71   A    
Cr5   O11   S    
C50   C56   A    
C31   C37   A    
C47   O31   S    
C81   H49   S    
C69   C72   A    
C7    C11   A    
C80   H46   S    
C76   H17   S    
C14   C20   A    
C7    C65   A    
C80   H47   S    
C37   C49   A    
C61   C67   A    
C13   O45   S    
O42   H34   S    
C7    O39   S    
C9    O41   S    
C82   H54   S    
Cr5   O5    S    
C83   H57   S    
Cr3   O15   S    
C34   C44   A    
C36   C45   A    
C3    O9    A    
C33   C39   A    
Cr2   O2    S    
C2    O8    A    
C78   H23   S    
C41   C53   A    
O29   C75   S    
C52   C58   A    
C8    C64   A    
C4    O10   A    
Cr4   O26   S    
C20   C22   A    
C17   C71   A    
C52   O36   S    
C64   C70   A    
C18   C24   A    
C80   H48   S    
C21   C24   A    
C22   O54   S    
C76   H16   S    
C50   O34   S    
Cr3   O9    S    
Cr2   O20   S    
C4    O5    A    
Cr1   O1    S    
C45   C48   A    
Cr3   O3    S    
C1    O2    A    
C33   C48   A    
C4    C33   S    
Cr4   O4    S    
C29   C62   S    
C27   O13   A    
Cr4   O22   S    
C30   O24   A    
C26   C65   S    
C32   C46   A    
C46   O30   S    
C8    C10   A    
C25   C66   S    
C14   C68   A    
O32   C78   S    
C11   C61   A    
C49   C55   A    
C79   H44   S    
Cr1   O25   S    
C54   O38   S    
C38   C50   A    
Cr4   O16   S    
C78   H22   S    
C23   O55   S    
C6    O12   A    
C56   H2    S    
C62   C68   A    
O54   C82   S    
C75   H15   S    
C58   H4    S    
O39   H31   S    
C76   H18   S    
O53   C81   S    
O50   H42   S    
C40   C52   A    
O37   H29   S    
C42   C54   A    
C12   O44   S    
C38   C40   A    
C60   H6    S    
C16   O48   S    
Cr6   O12   S    
C15   C21   A    
O43   H35   S    
O30   C76   S    
C78   H24   S    
C77   H21   S    
C56   C58   A    
C29   O18   A    
C57   H3    S    
C37   C41   A    
Cr5   O26   S    
C35   C41   A    
C9    C12   A    
C79   H45   S    
C27   C64   S    
O51   C79   S    
C28   C63   S    
C2    O3    A    
C25   O14   A    
Cr1   O19   S    
C44   O28   S    
C77   H20   S    
C82   H52   S    
C30   C61   S    
O40   H32   S    
C75   H13   S    
C68   C70   A    
C51   O35   S    
C29   O23   A    
C83   H56   S    
Cr3   O21   S    
C14   O46   S    
O33   H25   S    
C75   H14   S    
C10   O42   S    
C73   H9    S    
O31   C77   S    
C1    C36   S    
C79   H43   S    
