data_mof_unit_28142.cif
_audit_creation_date              2012-12-11T15:43:05-0500
_audit_creation_method            fapswitch 2.2
_symmetry_space_group_name_H-M    P1
_symmetry_Int_Tables_number       1
_space_group_crystal_system       triclinic
_cell_length_a                    19.056088
_cell_length_b                    10.970857
_cell_length_c                    18.84467
_cell_angle_alpha                 90.061168
_cell_angle_beta                  90.580322
_cell_angle_gamma                 89.916866
_cell_volume                      3939.48876117

loop_
_atom_site_label
_atom_site_type_symbol
_atom_type_description
_atom_site_fract_x
_atom_site_fract_y
_atom_site_fract_z
_atom_type_partial_charge
C1    C     C_R   0.729463 0.377167 0.145740 0.553161
C2    C     C_R   0.990234 0.998442 0.035593 -0.025286
C3    C     C_R   0.769023 0.500376 0.562337 0.035270
C4    C     C_R   0.730410 0.381349 0.351636 0.520996
C5    C     C_R   0.270045 0.377618 0.647373 0.538952
C6    C     C_R   0.230410 0.881349 0.351636 0.520996
C7    C     C_R   0.770045 0.877617 0.647373 0.538952
C8    C     C_R   0.531285 0.156976 0.352675 0.569736
C9    C     C_R   0.465153 0.157959 0.644858 0.574593
C10   C     C_R   0.031285 0.656976 0.352675 0.569735
C11   C     C_R   0.965152 0.657959 0.644858 0.574595
C12   C     C_R   0.741847 0.972237 0.354556 0.543564
C13   C     C_R   0.509788 0.498335 0.964744 -0.025824
C14   C     C_R   0.272226 0.022112 0.638795 0.570793
C15   C     C_R   0.241847 0.472237 0.354556 0.543566
C16   C     C_R   0.772226 0.522111 0.638795 0.570793
C17   C     C_R   0.498836 0.163782 0.925439 0.027020
C18   C     C_R   0.501045 0.163866 0.074639 0.026481
C19   C     C_R   0.998836 0.663782 0.925439 0.027020
C20   C     C_R   0.001045 0.663867 0.074639 0.026481
C21   C     C_R   0.503773 0.276299 0.962600 -0.022399
C22   C     C_R   0.496157 0.276370 0.037561 -0.022753
C23   C     C_R   0.003773 0.776299 0.962600 -0.022399
C24   C     C_R   0.490234 0.498442 0.035593 -0.025286
C25   C     C_R   0.996157 0.776370 0.037561 -0.022753
C26   C     C_R   0.499563 0.054590 0.036384 -0.160584
C27   C     C_R   0.500208 0.054541 0.963630 -0.160585
C28   C     C_R   0.999563 0.554590 0.036384 -0.160584
C29   C     C_R   0.000208 0.554541 0.963630 -0.160585
C30   C     C_R   0.753614 0.923171 0.924610 0.028984
C31   C     C_R   0.246387 0.923068 0.075418 0.028334
C32   C     C_R   0.253614 0.423171 0.924610 0.028985
C33   C     C_R   0.746387 0.423068 0.075418 0.028334
C34   C     C_R   0.690741 0.897486 0.959338 -0.044405
C35   C     C_R   0.309273 0.897190 0.040650 -0.044856
C36   C     C_R   0.190741 0.397486 0.959338 -0.044405
C37   C     C_R   0.270541 0.377196 0.854253 0.555010
C38   C     C_R   0.809273 0.397190 0.040650 -0.044856
C39   C     C_R   0.686730 0.906724 0.032814 -0.004706
C40   C     C_R   0.313308 0.906546 0.967185 -0.006463
C41   C     C_R   0.186730 0.406724 0.032814 -0.004706
C42   C     C_R   0.813308 0.406546 0.967185 -0.006463
C43   C     C_R   0.807314 0.969268 0.038194 -0.124015
C44   C     C_R   0.192723 0.969675 0.961878 -0.123876
C45   C     C_R   0.307314 0.469268 0.038194 -0.124015
C46   C     C_R   0.692723 0.469675 0.961878 -0.123875
C47   C     C_R   0.809262 0.972289 0.965320 0.308788
C48   C     C_R   0.229463 0.877167 0.145740 0.553161
C49   C     C_R   0.190746 0.972516 0.034774 0.309261
C50   C     C_R   0.309262 0.472289 0.965320 0.308788
C51   C     C_R   0.690746 0.472516 0.034774 0.309261
C52   C     C_3   0.645535 0.787188 0.956947 -0.257880
C53   C     C_3   0.354534 0.786740 0.042865 -0.256928
C54   C     C_3   0.145535 0.287187 0.956947 -0.257880
C55   C     C_3   0.854534 0.286740 0.042865 -0.256928
C56   C     C_3   0.641761 0.796113 0.037118 -0.231769
C57   C     C_3   0.358339 0.795787 0.962706 -0.231597
C58   C     C_3   0.141761 0.296113 0.037118 -0.231769
C59   C     C_R   0.770541 0.877196 0.854253 0.555010
C60   C     C_3   0.858339 0.295787 0.962706 -0.231597
C61   C     C_R   0.746763 0.933660 0.073426 -0.035901
C62   C     C_R   0.253287 0.933824 0.926589 -0.036901
C63   C     C_R   0.246763 0.433660 0.073426 -0.035901
C64   C     C_R   0.753286 0.433824 0.926589 -0.036901
C65   C     C_R   0.530738 0.155547 0.146905 0.590711
C66   C     C_R   0.469236 0.155514 0.853122 0.592093
C67   C     C_R   0.030738 0.655547 0.146905 0.590711
C68   C     C_R   0.969236 0.655514 0.853122 0.592093
C69   C     C_R   0.483589 0.168801 0.570099 0.007905
C70   C     C_R   0.516157 0.388580 0.927935 0.406958
C71   C     C_R   0.496974 0.162998 0.421340 -0.014891
C72   C     C_R   0.983587 0.668800 0.570098 0.007904
C73   C     C_R   0.996972 0.662998 0.421339 -0.014888
C74   C     C_R   0.488333 0.059775 0.533365 -0.047042
C75   C     C_R   0.494437 0.056080 0.461443 -0.026241
C76   C     C_R   0.988327 0.559774 0.533363 -0.047045
C77   C     C_R   0.994430 0.556080 0.461441 -0.026244
C78   C     C_R   0.479345 0.273770 0.454770 0.196342
C79   C     C_R   0.475221 0.278142 0.529722 0.255343
C80   C     C_R   0.979345 0.773771 0.454770 0.196343
C81   C     C_R   0.483838 0.388779 0.072319 0.406826
C82   C     C_R   0.975221 0.778143 0.529721 0.255343
C83   C     C_3   0.535716 0.953767 0.545597 -0.263324
C84   C     C_3   0.543466 0.949385 0.465883 -0.245972
C85   C     C_3   0.035703 0.453755 0.545594 -0.263322
C86   C     C_3   0.043451 0.449373 0.465880 -0.245975
C87   C     C_R   0.753617 0.909829 0.574689 -0.012010
C88   C     C_R   0.252190 0.942339 0.417473 0.008439
C89   C     C_R   0.253617 0.409831 0.574690 -0.012007
C90   C     C_R   0.752189 0.442339 0.417474 0.008440
C91   C     C_R   0.801120 0.984670 0.540802 0.040103
C92   C     C_R   0.016156 0.888580 0.927935 0.406958
C93   C     C_R   0.201712 0.010480 0.453894 -0.054206
C94   C     C_R   0.301119 0.484672 0.540802 0.040103
C95   C     C_R   0.701712 0.510479 0.453894 -0.054206
C96   C     C_R   0.802213 0.993172 0.468434 0.159277
C97   C     C_R   0.209732 0.037243 0.524685 -0.005439
C98   C     C_R   0.302212 0.493173 0.468435 0.159278
C99   C     C_R   0.709732 0.537242 0.524685 -0.005440
C100  C     C_R   0.710215 0.843583 0.458628 -0.188497
C101  C     C_R   0.325319 0.949655 0.524022 -0.154230
C102  C     C_R   0.210213 0.343586 0.458629 -0.188498
C103  C     C_R   0.983838 0.888779 0.072319 0.406826
C104  C     C_R   0.825318 0.449652 0.524023 -0.154229
C105  C     C_R   0.709310 0.835447 0.532876 -0.182505
C106  C     C_R   0.317283 0.922241 0.451248 -0.140708
C107  C     C_R   0.209308 0.335449 0.532877 -0.182506
C108  C     C_R   0.817283 0.422239 0.451248 -0.140709
C109  C     C_3   0.814436 0.117032 0.552154 -0.215806
C110  C     C_3   0.124784 0.987367 0.461999 -0.152014
C111  C     C_3   0.314435 0.617034 0.552155 -0.215805
C112  C     C_3   0.624784 0.487366 0.461999 -0.152015
C113  C     C_R   0.740536 0.970885 0.146868 0.564263
C114  C     C_R   0.009788 0.998335 0.964744 -0.025823
C115  C     C_R   0.259488 0.970913 0.853147 0.577424
C116  C     C_R   0.240536 0.470885 0.146868 0.564263
C117  C     C_R   0.759488 0.470913 0.853147 0.577424
C118  C     C_3   0.816336 0.127076 0.472267 0.269449
C119  C     C_3   0.134149 0.014236 0.539948 0.292232
C120  C     C_3   0.316336 0.627078 0.472267 0.269450
C121  C     C_3   0.634148 0.514235 0.539948 0.292231
C122  C     C_R   0.754316 0.928725 0.426112 -0.010955
C123  C     C_R   0.269024 0.000378 0.562337 0.035268
C124  C     C_R   0.254315 0.428726 0.426113 -0.010953
Cl1   Cl    Cl    0.463161 0.406198 0.403754 -0.480873
Cl2   Cl    Cl    0.465457 0.422267 0.570362 -0.478672
Cl3   Cl    Cl    0.963163 0.906201 0.403755 -0.480874
Cl4   Cl    Cl    0.965459 0.922268 0.570362 -0.478673
Cr1   Cr    Cr6+3 0.772010 0.169670 0.250090 1.088857
Cr2   Cr    Cr6+3 0.383290 0.010760 0.749160 1.030427
Cr3   Cr    Cr6+3 0.116710 0.510760 0.250840 1.030816
Cr4   Cr    Cr6+3 0.883290 0.510760 0.749160 1.030426
Cr5   Cr    Cr6+3 0.227990 0.169670 0.749910 1.052195
Cr6   Cr    Cr6+3 0.272010 0.669670 0.250090 1.088859
Cr7   Cr    Cr6+3 0.727990 0.669670 0.749910 1.052194
Cr8   Cr    Cr6+3 0.615000 0.323260 0.249260 1.152306
Cr9   Cr    Cr6+3 0.385000 0.323260 0.750740 1.168044
Cr10  Cr    Cr6+3 0.115000 0.823260 0.249260 1.152307
Cr11  Cr    Cr6+3 0.885000 0.823260 0.750740 1.168044
Cr12  Cr    Cr6+3 0.616710 0.010760 0.250840 1.030817
F1    F     F_    0.882687 0.154344 0.447696 -0.584093
F2    F     F_    0.131086 0.014171 0.064626 -0.665761
F3    F     F_    0.368921 0.513703 0.935546 -0.666259
F4    F     F_    0.631086 0.514171 0.064626 -0.665761
F5    F     F_    0.125114 0.910970 0.581161 -0.579458
F6    F     F_    0.382687 0.654345 0.447697 -0.584090
F7    F     F_    0.625113 0.410969 0.581161 -0.579460
F8    F     F_    0.539909 0.392839 0.860304 -0.613899
F9    F     F_    0.460086 0.393280 0.139955 -0.613955
F10   F     F_    0.039909 0.892840 0.860304 -0.613899
F11   F     F_    0.960086 0.893280 0.139955 -0.613956
F12   F     F_    0.868921 0.013704 0.935546 -0.666259
H1    H     H_    0.501048 0.967085 0.062753 0.136438
H2    H     H_    0.520920 0.865728 0.441381 0.181765
H3    H     H_    0.084829 0.479233 0.574268 0.151549
H4    H     H_    0.020899 0.365721 0.441378 0.181772
H5    H     H_    0.673192 0.790560 0.427459 0.138655
H6    H     H_    0.373179 0.923279 0.551136 0.156326
H7    H     H_    0.173190 0.290563 0.427460 0.138654
H8    H     H_    0.873178 0.423274 0.551137 0.156323
H9    H     H_    0.673897 0.772111 0.557621 0.128006
H10   H     H_    0.359174 0.876311 0.423599 0.196106
H11   H     H_    0.173896 0.272113 0.557622 0.128005
H12   H     H_    0.498646 0.966997 0.937212 0.136117
H13   H     H_    0.859174 0.376309 0.423599 0.196104
H14   H     H_    0.865893 0.134763 0.578419 0.215925
H15   H     H_    0.110449 0.890935 0.451202 0.197753
H16   H     H_    0.365892 0.634764 0.578419 0.215926
H17   H     H_    0.610449 0.390934 0.451202 0.197752
H18   H     H_    0.768987 0.165169 0.576034 0.106433
H19   H     H_    0.092404 0.056822 0.433840 0.157416
H20   H     H_    0.268986 0.665171 0.576034 0.106435
H21   H     H_    0.592403 0.556821 0.433840 0.157415
H22   H     H_    0.773359 0.183291 0.449311 0.102593
H23   H     H_    0.001048 0.467085 0.062753 0.136438
H24   H     H_    0.104800 0.095487 0.558622 0.140756
H25   H     H_    0.273358 0.683293 0.449311 0.102593
H26   H     H_    0.604800 0.595487 0.558622 0.140755
H27   H     H_    0.018487 0.083985 0.937752 0.139298
H28   H     H_    0.981554 0.084178 0.062651 0.140361
H29   H     H_    0.518487 0.583985 0.937752 0.139298
H30   H     H_    0.481554 0.584178 0.062651 0.140361
H31   H     H_    0.852934 0.000485 0.067229 0.182686
H32   H     H_    0.147094 0.001108 0.932883 0.182353
H33   H     H_    0.352934 0.500485 0.067229 0.182686
H34   H     H_    0.998646 0.466997 0.937212 0.136117
H35   H     H_    0.647094 0.501108 0.932883 0.182353
H36   H     H_    0.174540 0.206315 0.938157 0.169211
H37   H     H_    0.825560 0.205945 0.061509 0.169135
H38   H     H_    0.674540 0.706315 0.938157 0.169211
H39   H     H_    0.325560 0.705945 0.061509 0.169134
H40   H     H_    0.594443 0.804536 0.929855 0.134090
H41   H     H_    0.405605 0.803886 0.070010 0.134743
H42   H     H_    0.094443 0.304536 0.929855 0.134090
H43   H     H_    0.905605 0.303886 0.070010 0.134743
H44   H     H_    0.588317 0.816561 0.056696 0.144942
H45   H     H_    0.007487 0.373574 0.567227 0.166868
H46   H     H_    0.411785 0.816095 0.943198 0.144099
H47   H     H_    0.088317 0.316561 0.056696 0.144942
H48   H     H_    0.911785 0.316095 0.943198 0.144099
H49   H     H_    0.669436 0.721788 0.065705 0.206617
H50   H     H_    0.330727 0.721592 0.933967 0.207464
H51   H     H_    0.169436 0.221788 0.065705 0.206617
H52   H     H_    0.830727 0.221592 0.933967 0.207465
H53   H     H_    0.096841 0.474312 0.448436 0.161522
H54   H     H_    0.507506 0.873579 0.567230 0.166867
H55   H     H_    0.596853 0.974337 0.448440 0.161517
H56   H     H_    0.584840 0.979254 0.574272 0.151549
O1    O     O_R   0.787520 0.042810 0.170440 -0.501457
O2    O     O_R   0.454050 0.051210 0.669140 -0.540772
O3    O     O_R   0.045950 0.551210 0.330860 -0.526934
O4    O     O_R   0.954050 0.551210 0.669140 -0.540773
O5    O     O_R   0.681390 0.959480 0.325510 -0.521807
O6    O     O_R   0.318610 0.959480 0.674490 -0.504211
O7    O     O_R   0.181390 0.459480 0.325510 -0.521807
O8    O     O_R   0.818610 0.459480 0.674490 -0.504212
O9    O     O_3   0.667900 0.167900 0.250060 -0.295663
O10   O     O_3   0.332100 0.167900 0.749940 -0.317463
O11   O     O_3   0.167900 0.667900 0.250060 -0.295663
O12   O     O_R   0.212480 0.042810 0.829560 -0.498401
O13   O     O_3   0.832100 0.667900 0.749940 -0.317462
O14   O     O_R   0.765640 0.292100 0.175020 -0.526611
O15   O     O_R   0.234360 0.292100 0.824980 -0.527842
O16   O     O_R   0.265640 0.792100 0.175020 -0.526611
O17   O     O_R   0.734360 0.792100 0.824980 -0.527842
O18   O     O_R   0.670190 0.408840 0.168540 -0.423828
O19   O     O_R   0.329810 0.408840 0.831460 -0.424275
O20   O     O_R   0.170190 0.908840 0.168540 -0.423828
O21   O     O_R   0.829810 0.908840 0.831460 -0.424275
O22   O     O_R   0.556620 0.251410 0.175160 -0.416745
O23   O     O_R   0.287520 0.542810 0.170440 -0.501457
O24   O     O_R   0.443380 0.251410 0.824840 -0.417138
O25   O     O_R   0.056620 0.751410 0.175160 -0.416745
O26   O     O_R   0.943380 0.751410 0.824840 -0.417138
O27   O     O_R   0.545960 0.049620 0.170320 -0.538376
O28   O     O_R   0.454040 0.049620 0.829680 -0.539816
O29   O     O_R   0.045960 0.549620 0.170320 -0.538376
O30   O     O_R   0.954040 0.549620 0.829680 -0.539815
O31   O     O_R   0.681390 0.958010 0.176690 -0.495472
O32   O     O_R   0.318610 0.958010 0.823310 -0.490859
O33   O     O_R   0.181390 0.458010 0.176690 -0.495472
O34   O     O_R   0.712480 0.542810 0.829560 -0.498401
O35   O     O_R   0.818610 0.458010 0.823310 -0.490859
O36   O     O_R   0.787510 0.044390 0.330970 -0.442395
O37   O     O_R   0.212490 0.044390 0.669030 -0.440522
O38   O     O_R   0.287510 0.544390 0.330970 -0.442394
O39   O     O_R   0.712490 0.544390 0.669030 -0.440524
O40   O     O_R   0.765630 0.293570 0.323840 -0.498060
O41   O     O_R   0.234370 0.293570 0.676160 -0.537960
O42   O     O_R   0.265630 0.793570 0.323840 -0.498059
O43   O     O_R   0.734370 0.793570 0.676160 -0.537960
O44   O     O_R   0.670190 0.410420 0.329080 -0.514670
O45   O     O_R   0.556610 0.252880 0.323980 -0.452043
O46   O     O_R   0.329810 0.410420 0.670920 -0.473282
O47   O     O_R   0.170190 0.910420 0.329080 -0.514669
O48   O     O_R   0.829810 0.910420 0.670920 -0.473283
O49   O     O_R   0.443390 0.252880 0.676020 -0.430036
O50   O     O_R   0.056610 0.752880 0.323980 -0.452042
O51   O     O_R   0.943390 0.752880 0.676020 -0.430036
O52   O     O_R   0.545950 0.051210 0.330860 -0.526932

loop_
_geom_bond_atom_site_label_1
_geom_bond_atom_site_label_2
_ccdc_geom_bond_type
C3    C104  A    
C44   C49   A    
C55   H43   S    
C108  H13   S    
Cr10  O50   S    
C120  F6    S    
C54   H42   S    
C87   C91   A    
C57   H46   S    
C35   C53   S    
C53   H41   S    
C8    O45   A    
C20   C67   S    
Cr4   O4    S    
C74   C83   S    
C72   C76   A    
C118  F1    S    
C112  C121  S    
Cr9   O49   S    
C1    C33   S    
C90   C95   A    
C51   F4    S    
C68   O26   A    
C18   C65   S    
C98   C124  A    
Cr2   O32   S    
C100  C105  A    
C101  C123  A    
C65   O22   A    
C55   H37   S    
Cr7   O34   S    
C96   C118  S    
C28   C29   A    
C9    C69   S    
C41   C58   S    
C38   C42   A    
C83   H54   S    
C9    O49   A    
C95   C112  S    
C52   H40   S    
C115  O32   A    
C27   H12   S    
C10   C73   S    
C95   C99   A    
C75   C84   S    
C20   C25   A    
C94   C98   A    
Cr6   O11   S    
C66   O24   A    
C94   C111  S    
C40   C62   A    
C29   H34   S    
C14   O6    A    
Cr2   O10   S    
C111  H20   S    
C85   H3    S    
C43   H31   S    
C89   C94   A    
C16   O8    A    
Cr4   O30   S    
C4    O40   A    
Cr1   O9    S    
C91   C96   A    
C56   H44   S    
C84   H2    S    
C100  H5    S    
C60   H52   S    
C7    C87   S    
C38   C55   S    
C83   C84   S    
C12   O36   A    
C18   C26   A    
C57   H50   S    
Cr12  O27   S    
C10   O50   A    
Cr2   O6    S    
C26   H1    S    
Cr4   O8    S    
C71   C78   A    
C46   H35   S    
Cr12  O52   S    
C44   H32   S    
Cr9   O46   S    
C103  F11   S    
C93   C110  S    
C99   C121  S    
C14   O37   A    
C86   H4    S    
C117  O34   A    
Cr11  O13   S    
C23   C25   A    
C112  H21   S    
C54   H36   S    
C55   C60   S    
C30   C59   S    
C36   C41   A    
C2    H28   S    
C12   O5    A    
C31   C49   A    
Cr9   O24   S    
C102  C124  A    
Cr6   O23   S    
C86   H53   S    
C109  C118  S    
C4    C90   S    
C5    C89   S    
C39   C61   A    
C58   H47   S    
C71   C75   A    
Cr5   O12   S    
C74   C75   A    
C30   C34   A    
C24   H30   S    
C34   C39   A    
C17   C27   A    
C22   C81   A    
Cr7   O39   S    
C30   C47   A    
C19   C68   S    
Cr3   O11   S    
C36   C54   S    
C76   C77   A    
C4    O44   A    
C15   O7    A    
Cr3   O33   S    
C42   C60   S    
C6    O42   A    
C11   C72   S    
C25   C103  A    
C26   C27   A    
C56   H49   S    
C20   C28   A    
C44   C62   A    
C85   C86   S    
C102  H7    S    
Cr8   O22   S    
C46   C51   A    
C67   O29   A    
Cr12  O31   S    
C17   C21   A    
C64   C117  S    
Cr4   O13   S    
C13   C24   A    
C7    O43   A    
C111  C120  S    
C11   O51   A    
C5    O46   A    
C97   C119  S    
C73   C80   A    
C19   C23   A    
C120  H25   S    
Cr3   O7    S    
C1    O18   A    
C83   H56   S    
C5    O41   A    
C11   O4    A    
C88   C106  A    
C110  H15   S    
Cr8   O45   S    
Cr4   O35   S    
C112  H17   S    
C87   C105  A    
C15   O38   A    
C37   O19   A    
C9    O2    A    
C32   C50   A    
C49   F2    S    
C89   C107  A    
Cr11  O26   S    
C121  F7    S    
C104  H8    S    
C1    O14   A    
C69   C74   A    
Cr11  O21   S    
C39   C56   S    
C52   H38   S    
C32   C37   S    
Cr10  O20   S    
C33   C51   A    
C53   H39   S    
C82   Cl4   S    
C121  H26   S    
C24   C81   A    
Cr12  O5    S    
C63   C116  S    
C117  O35   A    
Cr9   O10   S    
C80   C82   A    
C15   C124  S    
Cr1   O36   S    
C7    O48   A    
C107  H11   S    
Cr10  O11   S    
C66   O28   A    
C37   O15   A    
C13   H29   S    
C31   C48   S    
C116  O23   A    
C92   F10   S    
C105  H9    S    
C115  O12   A    
C69   C79   A    
C70   F8    S    
C101  H6    S    
C41   C63   A    
Cr5   O41   S    
Cr1   O1    S    
Cr10  O47   S    
C19   C29   A    
C102  C107  A    
C104  C108  A    
C109  H18   S    
C43   C61   A    
C54   C58   S    
C16   O39   A    
C85   H45   S    
C101  C106  A    
C48   O20   A    
Cr8   O18   S    
C116  O33   A    
C67   O25   A    
Cr7   O13   S    
C53   C57   S    
C14   C123  S    
Cr7   O17   S    
C58   H51   S    
C78   C79   A    
C34   C52   S    
C65   O27   A    
Cr5   O10   S    
Cr7   O43   S    
Cr1   O14   S    
C40   C57   S    
C79   Cl2   S    
C110  C119  S    
C77   C86   S    
C42   C64   A    
C10   O3    A    
C32   C36   A    
C28   H23   S    
C98   C120  S    
C50   F3    S    
Cr8   O9    S    
C80   Cl3   S    
Cr11  O51   S    
C119  F5    S    
C48   O16   A    
Cr6   O16   S    
C33   C38   A    
C96   C122  A    
C21   C70   A    
C91   C109  S    
C18   C22   A    
C35   C40   A    
C113  O1    A    
C62   C115  S    
Cr9   O19   S    
C6    C88   S    
C110  H19   S    
Cr3   O3    S    
C2    C114  A    
C84   H55   S    
C45   H33   S    
C45   C63   A    
C45   C50   A    
Cr3   O29   S    
C81   F9    S    
C31   C35   A    
Cr2   O28   S    
Cr5   O15   S    
C93   C97   A    
C88   C93   A    
C6    O47   A    
Cr11  O48   S    
C100  C122  A    
C106  H10   S    
C17   C66   S    
C59   O17   A    
C2    C103  A    
C43   C47   A    
Cr2   O2    S    
C109  H14   S    
C60   H48   S    
C61   C113  S    
C90   C108  A    
C3    C99   A    
Cr12  O9    S    
C113  O31   A    
C12   C122  S    
C47   F12   S    
C118  H22   S    
C73   C77   A    
C97   C123  A    
C114  H27   S    
C13   C70   A    
C46   C64   A    
Cr6   O42   S    
C23   C92   A    
Cr8   O44   S    
Cr10  O25   S    
C68   O30   A    
C111  H16   S    
C21   C22   A    
C78   Cl1   S    
C92   C114  A    
C76   C85   S    
Cr6   O38   S    
C119  H24   S    
C72   C82   A    
C3    C16   S    
C52   C56   S    
Cr5   O37   S    
C8    O52   A    
C8    C71   S    
Cr1   O40   S    
C59   O21   A    
