data_mof_unit_14315.cif
_audit_creation_date              2012-12-11T15:07:00-0500
_audit_creation_method            fapswitch 2.2
_symmetry_space_group_name_H-M    P1
_symmetry_Int_Tables_number       1
_space_group_crystal_system       triclinic
_cell_length_a                    19.896449
_cell_length_b                    11.433366
_cell_length_c                    18.692844
_cell_angle_alpha                 90.108161
_cell_angle_beta                  89.891737
_cell_angle_gamma                 89.950053
_cell_volume                      4252.29460363

loop_
_atom_site_label
_atom_site_type_symbol
_atom_type_description
_atom_site_fract_x
_atom_site_fract_y
_atom_site_fract_z
_atom_type_partial_charge
C1    C     C_R   0.761217 0.524156 0.640292 0.526935
C2    C     C_3   0.249297 0.068935 0.567687 0.082779
C3    C     C_R   0.739034 0.032128 0.150844 0.535206
C4    C     C_R   0.774085 0.132117 0.858308 0.536073
C5    C     C_R   0.225448 0.133633 0.141037 0.537421
C6    C     C_R   0.274085 0.632116 0.858308 0.535512
C7    C     C_R   0.725448 0.633633 0.141037 0.536700
C8    C     C_R   0.968794 0.353369 0.853405 0.530276
C9    C     C_R   0.032903 0.353328 0.145538 0.529786
C10   C     C_R   0.468795 0.853369 0.853404 0.530107
C11   C     C_R   0.532903 0.853328 0.145538 0.532268
C12   C     C_3   0.689585 0.135570 0.465357 -0.015567
C13   C     C_3   0.250466 0.564635 0.433414 0.073451
C14   C     C_3   0.309685 0.137337 0.535560 -0.014539
C15   C     C_3   0.187383 0.615664 0.470639 -0.028016
C16   C     C_3   0.809283 0.636593 0.535282 -0.015814
C17   C     C_3   0.705347 0.164072 0.543169 -0.173127
C18   C     C_3   0.295485 0.163767 0.457072 -0.171422
C19   C     C_3   0.205878 0.662640 0.543737 -0.206616
C20   C     C_3   0.794220 0.664049 0.457252 -0.174162
C21   C     C_3   0.767478 0.960478 0.479065 -0.216248
C22   C     C_3   0.233287 0.961799 0.519595 -0.240507
C23   C     C_3   0.274478 0.458836 0.478678 -0.220106
C24   C     C_3   0.749088 0.568238 0.567636 0.074325
C25   C     C_3   0.732828 0.460134 0.519988 -0.219777
C26   C     C_R   0.926762 0.500662 0.391758 0.022259
C27   C     C_R   0.899061 0.475895 0.323586 -0.050799
C28   C     C_R   0.893528 0.562412 0.271254 -0.039277
C29   C     C_R   0.916318 0.675383 0.285136 -0.055616
C30   C     C_R   0.944652 0.701909 0.351355 -0.110088
C31   C     C_R   0.950473 0.615519 0.403884 -0.089784
C32   C     C_R   0.073099 0.497581 0.606038 0.027556
C33   C     C_R   0.101309 0.471993 0.673824 -0.046266
C34   C     C_R   0.106724 0.557642 0.726913 -0.041344
C35   C     C_3   0.775566 0.123021 0.565894 0.060299
C36   C     C_R   0.083043 0.670452 0.714323 -0.057446
C37   C     C_R   0.054198 0.697814 0.648531 -0.119554
C38   C     C_R   0.048919 0.612428 0.595103 -0.096204
C39   C     C_R   0.427358 0.001209 0.391862 0.022461
C40   C     C_R   0.399807 0.976308 0.323635 -0.049696
C41   C     C_R   0.394015 0.062909 0.271389 -0.036996
C42   C     C_R   0.416285 0.176138 0.285447 -0.055740
C43   C     C_R   0.444286 0.202912 0.351790 -0.119579
C44   C     C_R   0.450379 0.116497 0.404266 -0.098262
C45   C     C_R   0.572505 0.999082 0.607469 0.028795
C46   C     C_3   0.224030 0.126955 0.434638 0.073722
C47   C     C_R   0.600081 0.973540 0.675551 -0.044732
C48   C     C_R   0.606033 0.059714 0.728238 -0.039670
C49   C     C_R   0.583672 0.173092 0.714878 -0.056297
C50   C     C_R   0.555478 0.200472 0.648771 -0.119501
C51   C     C_R   0.549368 0.114527 0.595806 -0.098092
C52   C     C_3   0.276251 0.622538 0.566250 0.065123
C53   C     C_3   0.723705 0.624416 0.434385 0.060746
C54   C     C_3   0.778051 0.990621 0.558624 0.000956
C55   C     C_3   0.219045 0.994674 0.441415 -0.023018
C56   C     C_3   0.280663 0.489719 0.558863 0.007754
C57   C     C_R   0.238459 0.522810 0.360236 0.547632
C58   C     C_3   0.720211 0.491900 0.441123 0.001492
C59   C     C_3   0.829066 0.168909 0.513202 -0.278218
C60   C     C_3   0.172528 0.176757 0.488271 -0.276396
C61   C     C_3   0.328328 0.670715 0.512883 -0.290933
C62   C     C_3   0.670656 0.671284 0.487468 -0.277068
C63   C     C_3   0.999248 0.209452 0.457924 -0.253942
C64   C     C_3   0.996176 0.210086 0.540210 -0.254277
C65   C     C_3   0.500340 0.711114 0.458273 -0.254805
C66   C     C_3   0.496280 0.711188 0.540386 -0.255778
C67   C     C_3   0.062095 0.410394 0.473235 -0.211030
C68   C     C_R   0.261304 0.024032 0.640213 0.527611
C69   C     C_3   0.935734 0.415082 0.524680 -0.211110
C70   C     C_3   0.562893 0.913793 0.474677 -0.210656
C71   C     C_3   0.436033 0.916024 0.524756 -0.212070
C72   C     C_3   0.940280 0.396557 0.442411 -0.138564
C73   C     C_3   0.057640 0.393572 0.555683 -0.141253
C74   C     C_3   0.440876 0.897143 0.442540 -0.138376
C75   C     C_3   0.557756 0.895150 0.556778 -0.136594
C76   C     C_3   0.008435 0.337214 0.429710 0.062825
C77   C     C_3   0.988382 0.338071 0.568481 0.064099
C78   C     C_3   0.509732 0.838729 0.430395 0.065169
C79   C     C_R   0.738797 0.024913 0.359480 0.529409
C80   C     C_3   0.488482 0.838963 0.568747 0.063399
C81   C     C_3   0.811925 0.009494 0.043493 -0.226752
C82   C     C_3   0.180844 0.030830 0.952091 -0.231773
C83   C     C_3   0.311926 0.509492 0.043492 -0.226713
C84   C     C_3   0.680844 0.530829 0.952091 -0.231713
C85   C     C_R   0.789577 0.158114 0.641416 0.565556
C86   C     C_R   0.209767 0.160589 0.358646 0.569314
C87   C     C_R   0.289862 0.658461 0.641508 0.567913
C88   C     C_R   0.710021 0.659249 0.358631 0.567816
C89   C     C_3   0.814838 0.017319 0.963311 -0.232721
C90   C     C_3   0.811473 0.147072 0.434356 -0.242227
C91   C     C_3   0.178081 0.038242 0.032345 -0.225581
C92   C     C_3   0.314840 0.517319 0.963310 -0.232746
C93   C     C_3   0.678081 0.538241 0.032345 -0.225589
C94   C     C_3   0.682915 0.033790 0.031004 -0.210478
C95   C     C_3   0.306478 0.012106 0.968270 -0.217441
C96   C     C_3   0.182915 0.533784 0.031001 -0.210702
C97   C     C_3   0.806478 0.512107 0.968270 -0.217353
C98   C     C_3   0.755681 0.198546 0.062339 -0.259145
C99   C     C_3   0.255398 0.202920 0.938729 -0.253932
C100  C     C_3   0.255680 0.698542 0.062336 -0.258819
C101  C     C_3   0.186855 0.144426 0.566468 -0.233611
C102  C     C_3   0.755397 0.702920 0.938729 -0.253951
C103  C     C_3   0.747134 0.067782 0.074208 0.063747
C104  C     C_3   0.250603 0.072146 0.924299 0.061570
C105  C     C_3   0.247133 0.567778 0.074206 0.063837
C106  C     C_3   0.750602 0.572146 0.924299 0.061523
C107  C     C_3   0.759918 0.102451 0.935306 0.059364
C108  C     C_3   0.239312 0.106019 0.063603 0.061286
C109  C     C_3   0.259919 0.602447 0.935304 0.059508
C110  C     C_3   0.739312 0.606019 0.063603 0.061520
C111  C     C_3   0.692070 0.044965 0.948964 -0.253906
C112  C     C_3   0.307014 0.653117 0.434717 -0.262460
C113  C     C_3   0.299940 0.027227 0.050517 -0.261195
C114  C     C_3   0.192073 0.544953 0.948960 -0.253856
C115  C     C_3   0.799940 0.527228 0.050517 -0.261275
C116  C     C_3   0.761867 0.216563 0.980378 -0.225991
C117  C     C_3   0.254396 0.220818 0.021010 -0.215878
C118  C     C_3   0.261866 0.716560 0.980376 -0.226298
C119  C     C_3   0.754395 0.720818 0.021010 -0.215792
C120  C     C_3   0.008981 0.477928 0.038541 -0.225815
C121  C     C_3   0.004429 0.477965 0.957608 -0.232841
C122  C     C_3   0.508982 0.977929 0.038540 -0.225898
C123  C     C_3   0.686920 0.644634 0.566107 -0.237967
C124  C     C_3   0.504430 0.977967 0.957606 -0.232850
C125  C     C_3   0.062296 0.271563 0.025920 -0.210784
C126  C     C_3   0.932797 0.297282 0.973984 -0.221073
C127  C     C_3   0.562298 0.771564 0.025918 -0.210849
C128  C     C_3   0.432798 0.797282 0.973982 -0.221065
C129  C     C_3   0.943219 0.298540 0.055914 -0.261868
C130  C     C_3   0.053510 0.279778 0.944027 -0.255082
C131  C     C_3   0.443221 0.798540 0.055912 -0.261968
C132  C     C_3   0.553512 0.779780 0.944026 -0.255093
C133  C     C_R   0.967046 0.342919 0.644321 0.537240
C134  C     C_3   0.750311 0.068946 0.432290 0.074964
C135  C     C_R   0.030930 0.342598 0.354325 0.532323
C136  C     C_R   0.466888 0.843068 0.644341 0.536798
C137  C     C_R   0.532108 0.843017 0.355065 0.537323
C138  C     C_3   0.012349 0.351085 0.068736 0.064944
C139  C     C_3   0.990743 0.352004 0.929890 0.061532
C140  C     C_3   0.512350 0.851086 0.068735 0.064828
C141  C     C_3   0.490744 0.852006 0.929888 0.061607
C142  C     C_R   0.759843 0.535382 0.847781 0.530995
C143  C     C_R   0.239033 0.532124 0.150842 0.534019
C144  C     C_R   0.259843 0.035382 0.847781 0.530677
Cr1   Cr    Cr6+3 0.885690 0.492860 0.745310 0.986315
Cr2   Cr    Cr6+3 0.111880 0.178590 0.246990 0.984410
Cr3   Cr    Cr6+3 0.388120 0.678590 0.753010 0.980839
Cr4   Cr    Cr6+3 0.611880 0.678590 0.246990 0.982684
Cr5   Cr    Cr6+3 0.114310 0.492860 0.254690 1.015320
Cr6   Cr    Cr6+3 0.385690 0.992860 0.745310 0.986141
Cr7   Cr    Cr6+3 0.614310 0.992860 0.254690 0.986421
Cr8   Cr    Cr6+3 0.729880 0.332270 0.748190 0.973004
Cr9   Cr    Cr6+3 0.270120 0.332270 0.251810 0.970617
Cr10  Cr    Cr6+3 0.229880 0.832270 0.748190 0.974055
Cr11  Cr    Cr6+3 0.770120 0.832270 0.251810 0.972997
Cr12  Cr    Cr6+3 0.888120 0.178590 0.753010 0.981626
H1    H     H_    0.646478 0.078666 0.464815 0.128294
H2    H     H_    0.184963 0.926302 0.539639 0.117031
H3    H     H_    0.891703 0.353561 0.962157 0.108851
H4    H     H_    0.598252 0.820606 0.918841 0.099219
H5    H     H_    0.403647 0.851088 0.083038 0.100893
H6    H     H_    0.098251 0.320603 0.918843 0.099235
H7    H     H_    0.903646 0.351087 0.083040 0.100709
H8    H     H_    0.939992 0.208292 0.077742 0.110969
H9    H     H_    0.047051 0.191092 0.920634 0.115236
H10   H     H_    0.439993 0.708293 0.077740 0.110918
H11   H     H_    0.547053 0.691095 0.920632 0.115219
H12   H     H_    0.922892 0.206862 0.955869 0.131499
H13   H     H_    0.325527 0.432794 0.459956 0.120167
H14   H     H_    0.048880 0.180972 0.040676 0.123190
H15   H     H_    0.422894 0.706862 0.955868 0.131522
H16   H     H_    0.548882 0.680974 0.040674 0.123019
H17   H     H_    0.669813 0.119846 0.577341 0.167875
H18   H     H_    0.329271 0.112936 0.424441 0.163842
H19   H     H_    0.170050 0.631810 0.583265 0.181100
H20   H     H_    0.829375 0.617553 0.423649 0.163079
H21   H     H_    0.729934 0.893206 0.470667 0.106467
H22   H     H_    0.273230 0.897182 0.524298 0.097179
H23   H     H_    0.240633 0.387242 0.469287 0.110885
H24   H     H_    0.683861 0.426251 0.539201 0.121764
H25   H     H_    0.771406 0.393385 0.526410 0.106668
H26   H     H_    0.854231 0.104202 0.406284 0.113639
H27   H     H_    0.143300 0.095937 0.589097 0.114492
H28   H     H_    0.350291 0.622760 0.401825 0.120271
H29   H     H_    0.643750 0.598793 0.591521 0.113893
H30   H     H_    0.801513 0.226677 0.404407 0.136786
H31   H     H_    0.193514 0.219880 0.602011 0.126318
H32   H     H_    0.289044 0.732713 0.410279 0.123107
H33   H     H_    0.695088 0.722309 0.599020 0.132222
H34   H     H_    0.839870 0.258327 0.522777 0.102792
H35   H     H_    0.829068 0.959702 0.574030 0.169392
H36   H     H_    0.170193 0.268374 0.484727 0.094779
H37   H     H_    0.339944 0.759317 0.524059 0.102133
H38   H     H_    0.662739 0.761894 0.480536 0.101135
H39   H     H_    0.883280 0.387880 0.310207 0.088121
H40   H     H_    0.872214 0.541335 0.219572 0.097916
H41   H     H_    0.911950 0.742412 0.244593 0.098639
H42   H     H_    0.962040 0.789844 0.362219 0.093095
H43   H     H_    0.971013 0.641328 0.453900 0.069472
H44   H     H_    0.117273 0.383839 0.686504 0.087197
H45   H     H_    0.128398 0.535881 0.778281 0.096042
H46   H     H_    0.166554 0.966824 0.429044 0.144407
H47   H     H_    0.087146 0.736706 0.755516 0.098166
H48   H     H_    0.036201 0.785663 0.638605 0.089342
H49   H     H_    0.028223 0.638921 0.545384 0.067871
H50   H     H_    0.384328 0.888164 0.310167 0.089183
H51   H     H_    0.372867 0.041723 0.219646 0.098056
H52   H     H_    0.411688 0.243227 0.244970 0.098855
H53   H     H_    0.461119 0.291119 0.362825 0.089253
H54   H     H_    0.470396 0.142733 0.454534 0.069508
H55   H     H_    0.615361 0.885169 0.688623 0.086920
H56   H     H_    0.627247 0.038022 0.779834 0.095342
H57   H     H_    0.331190 0.459871 0.576514 0.170449
H58   H     H_    0.588322 0.239810 0.755722 0.098518
H59   H     H_    0.538579 0.288799 0.638266 0.088914
H60   H     H_    0.529407 0.141336 0.545679 0.068585
H61   H     H_    0.656117 0.224898 0.375193 0.258079
H62   H     H_    0.627479 0.275730 0.452046 0.200358
H63   H     H_    0.371689 0.275825 0.552787 0.200564
H64   H     H_    0.335699 0.229649 0.627420 0.256070
H65   H     H_    0.104517 0.719728 0.455074 0.206545
H66   H     H_    0.176258 0.775937 0.424468 0.228575
H67   H     H_    0.871139 0.775786 0.551623 0.200452
H68   H     H_    0.668496 0.462295 0.427180 0.168286
H69   H     H_    0.837116 0.728362 0.626923 0.257142
H70   H     H_    0.751718 0.879515 0.642021 0.258939
H71   H     H_    0.691766 0.899915 0.577815 0.222761
H72   H     H_    0.240445 0.880272 0.356687 0.242452
H73   H     H_    0.306471 0.909424 0.414319 0.217949
H74   H     H_    0.250875 0.379437 0.641337 0.258419
H75   H     H_    0.193870 0.397015 0.573559 0.222514
H76   H     H_    0.743938 0.376278 0.358697 0.261842
H77   H     H_    0.807195 0.405931 0.418039 0.219883
H78   H     H_    0.033923 0.145182 0.435154 0.128472
H79   H     H_    0.960763 0.148917 0.563801 0.130740
H80   H     H_    0.535673 0.648177 0.435780 0.129458
H81   H     H_    0.353722 0.082628 0.537697 0.127804
H82   H     H_    0.459614 0.650931 0.562816 0.130637
H83   H     H_    0.952408 0.171413 0.437310 0.100922
H84   H     H_    0.042657 0.169758 0.560760 0.098845
H85   H     H_    0.453763 0.672477 0.436826 0.100520
H86   H     H_    0.542331 0.670219 0.561652 0.100721
H87   H     H_    0.613718 0.904452 0.453243 0.083370
H88   H     H_    0.385142 0.908154 0.546023 0.084161
H89   H     H_    0.111415 0.392610 0.450415 0.084638
H90   H     H_    0.884859 0.407012 0.546134 0.082719
H91   H     H_    0.595712 0.829172 0.570577 0.092229
H92   H     H_    0.155503 0.543380 0.482254 0.144258
H93   H     H_    0.401625 0.832933 0.429101 0.094199
H94   H     H_    0.095831 0.328058 0.569533 0.093963
H95   H     H_    0.901383 0.332243 0.428890 0.091565
H96   H     H_    0.947965 0.506758 0.535523 0.133507
H97   H     H_    0.053519 0.503738 0.461668 0.150993
H98   H     H_    0.448359 0.007722 0.535659 0.133381
H99   H     H_    0.551316 0.005961 0.464031 0.134329
H100  H     H_    0.817195 0.918181 0.058786 0.137451
H101  H     H_    0.168589 0.939236 0.937744 0.137220
H102  H     H_    0.317196 0.418180 0.058785 0.137497
H103  H     H_    0.853228 0.581566 0.536580 0.128023
H104  H     H_    0.668588 0.439236 0.937743 0.137128
H105  H     H_    0.857049 0.052868 0.066682 0.115234
H106  H     H_    0.140831 0.085088 0.927870 0.114412
H107  H     H_    0.357049 0.552867 0.066683 0.115272
H108  H     H_    0.640831 0.585087 0.927871 0.114376
H109  H     H_    0.866670 0.044194 0.949335 0.134566
H110  H     H_    0.130111 0.076043 0.047510 0.134970
H111  H     H_    0.366673 0.544198 0.949335 0.134569
H112  H     H_    0.630111 0.576041 0.047511 0.134954
H113  H     H_    0.807769 0.929883 0.938989 0.118042
H114  H     H_    0.873568 0.116221 0.521584 0.104853
H115  H     H_    0.176730 0.948250 0.055070 0.116808
H116  H     H_    0.307775 0.429882 0.938988 0.117974
H117  H     H_    0.676731 0.448248 0.055070 0.116239
H118  H     H_    0.663766 0.947918 0.046124 0.109028
H119  H     H_    0.299656 0.921957 0.954632 0.108737
H120  H     H_    0.163764 0.447915 0.046122 0.108549
H121  H     H_    0.799656 0.421958 0.954631 0.108732
H122  H     H_    0.689631 0.957749 0.922943 0.099347
H123  H     H_    0.293110 0.941329 0.077105 0.105272
H124  H     H_    0.189640 0.457734 0.922943 0.099245
H125  H     H_    0.124601 0.139309 0.475320 0.109322
H126  H     H_    0.793111 0.441330 0.077105 0.104873
H127  H     H_    0.712057 0.248295 0.083949 0.112492
H128  H     H_    0.302947 0.237079 0.915511 0.114989
H129  H     H_    0.212055 0.748291 0.083946 0.113623
H130  H     H_    0.802946 0.737080 0.915511 0.115067
H131  H     H_    0.801136 0.231120 0.090528 0.103013
H132  H     H_    0.212967 0.250119 0.913255 0.101222
H133  H     H_    0.301135 0.731117 0.090526 0.103442
H134  H     H_    0.712966 0.750120 0.913255 0.101333
H135  H     H_    0.811158 0.249159 0.970921 0.109040
H136  H     H_    0.373189 0.617243 0.517872 0.110469
H137  H     H_    0.220915 0.292307 0.036181 0.107977
H138  H     H_    0.311157 0.749157 0.970920 0.109066
H139  H     H_    0.720915 0.792308 0.036181 0.108058
H140  H     H_    0.722718 0.277950 0.961871 0.124391
H141  H     H_    0.306026 0.246236 0.035998 0.117690
H142  H     H_    0.222716 0.777945 0.961869 0.124419
H143  H     H_    0.806025 0.746237 0.035998 0.117696
H144  H     H_    0.644457 0.098879 0.046399 0.120783
H145  H     H_    0.356288 0.043497 0.950541 0.128754
H146  H     H_    0.144457 0.598876 0.046391 0.120785
H147  H     H_    0.624709 0.624235 0.476846 0.104727
H148  H     H_    0.856287 0.543499 0.950541 0.128723
H149  H     H_    0.697303 0.254799 0.556366 0.136322
H150  H     H_    0.308824 0.252592 0.441849 0.134636
H151  H     H_    0.202131 0.755480 0.546037 0.116283
H152  H     H_    0.803721 0.754382 0.443634 0.137070
H153  H     H_    0.651689 0.100469 0.925936 0.107863
H154  H     H_    0.346356 0.066949 0.072922 0.102279
H155  H     H_    0.151691 0.600447 0.925925 0.108122
H156  H     H_    0.846356 0.566951 0.072921 0.102289
H157  H     H_    0.051224 0.531444 0.055025 0.133446
H158  H     H_    0.817074 0.927944 0.460355 0.121417
H159  H     H_    0.964890 0.541248 0.942350 0.132755
H160  H     H_    0.551225 0.031444 0.055024 0.133570
H161  H     H_    0.464892 0.041249 0.942348 0.132752
H162  H     H_    0.964398 0.523904 0.061193 0.111355
H163  H     H_    0.051608 0.511430 0.933802 0.112052
H164  H     H_    0.464399 0.023905 0.061192 0.111238
H165  H     H_    0.551609 0.011431 0.933800 0.111891
H166  H     H_    0.614515 0.785147 0.041669 0.108913
H167  H     H_    0.391704 0.853559 0.962155 0.108877
H168  H     H_    0.114513 0.285144 0.041670 0.108720
N1    N     N_3   0.670842 0.242493 0.427510 -0.672181
N2    N     N_3   0.326089 0.245084 0.573534 -0.669042
N3    N     N_3   0.149049 0.699426 0.427967 -0.614853
N4    N     N_3   0.826156 0.744195 0.573390 -0.670737
N5    N     N_3   0.729173 0.938961 0.607217 -0.633363
N6    N     N_3   0.264438 0.941750 0.389097 -0.642734
N7    N     N_3   0.229690 0.437320 0.604636 -0.633895
N8    N     N_3   0.767094 0.439627 0.390384 -0.629089
O1    O     O_R   0.957210 0.449410 0.665480 -0.509848
O2    O     O_R   0.167480 0.095300 0.164000 -0.528427
O3    O     O_R   0.332520 0.595300 0.836000 -0.530817
O4    O     O_R   0.667480 0.595300 0.164000 -0.529767
O5    O     O_R   0.946380 0.253940 0.826940 -0.513956
O6    O     O_R   0.053620 0.253940 0.173060 -0.515092
O7    O     O_R   0.446380 0.753940 0.826940 -0.513903
O8    O     O_R   0.553620 0.753940 0.173060 -0.514217
O9    O     O_3   0.834560 0.334570 0.748840 -0.292774
O10   O     O_3   0.165440 0.334570 0.251160 -0.303976
O11   O     O_3   0.334560 0.834570 0.748840 -0.292841
O12   O     O_R   0.042790 0.449410 0.334520 -0.501811
O13   O     O_3   0.665440 0.834570 0.251160 -0.295777
O14   O     O_R   0.820730 0.541240 0.668250 -0.523953
O15   O     O_R   0.179270 0.541240 0.331750 -0.464901
O16   O     O_R   0.320730 0.041240 0.668250 -0.524989
O17   O     O_R   0.679270 0.041240 0.331750 -0.522862
O18   O     O_R   0.714240 0.455060 0.663710 -0.548154
O19   O     O_R   0.285760 0.455060 0.336290 -0.556560
O20   O     O_R   0.214240 0.955060 0.663710 -0.545135
O21   O     O_R   0.785760 0.955060 0.336290 -0.548266
O22   O     O_R   0.736780 0.204870 0.675910 -0.503636
O23   O     O_R   0.457210 0.949410 0.665480 -0.510689
O24   O     O_R   0.263220 0.204870 0.324090 -0.503147
O25   O     O_R   0.236780 0.704870 0.675910 -0.503390
O26   O     O_R   0.763220 0.704870 0.324090 -0.502900
O27   O     O_R   0.833070 0.087590 0.673490 -0.522796
O28   O     O_R   0.166930 0.087590 0.326510 -0.511365
O29   O     O_R   0.333070 0.587590 0.673490 -0.526166
O30   O     O_R   0.666930 0.587590 0.326510 -0.518181
O31   O     O_R   0.946890 0.246800 0.676300 -0.532019
O32   O     O_R   0.053110 0.246800 0.323700 -0.533880
O33   O     O_R   0.446890 0.746800 0.676300 -0.532014
O34   O     O_R   0.542790 0.949410 0.334520 -0.510764
O35   O     O_R   0.553110 0.746800 0.323700 -0.531948
O36   O     O_R   0.956650 0.457120 0.827980 -0.532757
O37   O     O_R   0.043350 0.457120 0.172020 -0.534424
O38   O     O_R   0.456650 0.957120 0.827980 -0.532882
O39   O     O_R   0.543350 0.957120 0.172020 -0.533650
O40   O     O_R   0.820220 0.548390 0.818890 -0.510722
O41   O     O_R   0.179780 0.548390 0.181110 -0.509846
O42   O     O_R   0.320220 0.048390 0.818890 -0.510822
O43   O     O_R   0.679780 0.048390 0.181110 -0.510920
O44   O     O_R   0.713680 0.462770 0.826210 -0.536682
O45   O     O_R   0.736260 0.212010 0.826560 -0.515205
O46   O     O_R   0.286320 0.462770 0.173790 -0.538242
O47   O     O_R   0.213680 0.962770 0.826210 -0.536593
O48   O     O_R   0.786320 0.962770 0.173790 -0.537072
O49   O     O_R   0.263740 0.212010 0.173440 -0.516326
O50   O     O_R   0.236260 0.712010 0.826560 -0.515284
O51   O     O_R   0.763740 0.712010 0.173440 -0.516151
O52   O     O_R   0.832520 0.095300 0.836000 -0.530593

loop_
_geom_bond_atom_site_label_1
_geom_bond_atom_site_label_2
_ccdc_geom_bond_type
C64   C77   S    
C87   O29   A    
C11   O39   A    
C112  H28   S    
C136  O33   A    
C142  O40   A    
C62   H147  S    
H76   N8    S    
Cr9   O10   S    
C13   C112  S    
H73   N6    S    
C63   H83   S    
C90   C134  S    
C92   C109  S    
C63   C76   S    
C34   H45   S    
Cr7   O39   S    
C117  H141  S    
C94   C111  S    
C88   O30   A    
C3    O48   A    
C18   H150  S    
C39   C74   S    
Cr12  O9    S    
C135  O32   A    
C71   C80   S    
C131  C140  S    
C48   H56   S    
Cr1   O40   S    
C46   C55   S    
C2    C22   S    
C12   H1    S    
C97   C115  S    
C23   H23   S    
C93   C110  S    
C21   H21   S    
C21   H158  S    
H69   N4    S    
C96   C114  S    
Cr1   O9    S    
C136  O23   A    
C17   H17   S    
C109  C118  S    
C106  C142  S    
C45   C47   A    
C115  H126  S    
C4    C107  S    
C64   H79   S    
Cr10  O50   S    
C5    O49   A    
C98   H127  S    
H67   N4    S    
H77   N8    S    
C90   H30   S    
C126  C129  S    
C7    O51   A    
C82   C91   S    
C83   C105  S    
C129  H8    S    
C117  H137  S    
C10   C141  S    
C108  C113  S    
C123  H29   S    
C11   C140  S    
Cr7   O13   S    
C71   H98   S    
C37   C38   A    
C119  H139  S    
C9    C138  S    
C16   C20   S    
Cr5   O12   S    
C122  H164  S    
Cr3   O7    S    
Cr3   O33   S    
C43   C44   A    
Cr10  O11   S    
Cr8   O44   S    
C120  C138  S    
C62   H38   S    
Cr5   O37   S    
C3    C103  S    
C28   C29   A    
C85   O22   A    
C46   C60   S    
C1    O18   A    
C14   H81   S    
C53   C58   S    
C144  O42   A    
C125  C138  S    
Cr9   O24   S    
C135  O12   A    
Cr2   O2    S    
C52   C61   S    
Cr2   O28   S    
Cr6   O11   S    
C32   C33   A    
C14   N2    S    
C130  H9    S    
C30   C31   A    
Cr11  O51   S    
C50   H59   S    
Cr9   O19   S    
C84   C93   S    
Cr4   O8    S    
C2    C14   S    
C64   H84   S    
Cr10  O47   S    
C4    O52   A    
C15   H92   S    
C6    O50   A    
C137  O34   A    
Cr6   O42   S    
Cr7   O34   S    
C73   C77   S    
C60   H125  S    
C84   H108  S    
C94   H144  S    
C102  C119  S    
C51   H60   S    
C121  H163  S    
Cr11  O48   S    
C81   H105  S    
C47   H55   S    
C54   N5    S    
Cr4   O13   S    
C65   H80   S    
C69   C77   S    
C25   H24   S    
C66   C80   S    
C93   H112  S    
C99   H132  S    
Cr8   O45   S    
Cr2   O6    S    
C71   H88   S    
Cr11  O13   S    
C2    C68   S    
Cr2   O32   S    
C127  H166  S    
C13   C57   S    
C13   C23   S    
C83   H102  S    
Cr9   O46   S    
C97   H121  S    
C57   O15   A    
C15   N3    S    
C142  O44   A    
C130  H6    S    
C12   C134  S    
C66   H82   S    
C6    O3    A    
C96   H146  S    
C43   H53   S    
C76   C135  S    
C4    O45   A    
Cr7   O43   S    
C126  C139  S    
C118  H142  S    
C19   H151  S    
C131  H10   S    
C39   C40   A    
C5    O2    A    
C65   H85   S    
C24   C123  S    
C7    O4    A    
C69   C72   S    
C93   H117  S    
C29   C30   A    
C70   H87   S    
C99   C117  S    
H70   N5    S    
C23   H13   S    
C60   H36   S    
C95   H145  S    
H62   N1    S    
C109  C114  S    
C18   H18   S    
C143  O46   A    
C79   O17   A    
Cr10  O20   S    
C96   H120  S    
C6    C109  S    
C124  C141  S    
C127  C140  S    
C122  C124  S    
C128  C131  S    
C61   H37   S    
C74   H93   S    
C120  C121  S    
C81   C103  S    
C132  C141  S    
C79   C134  S    
C82   C104  S    
C125  H168  S    
C30   H42   S    
H63   N2    S    
C107  C111  S    
C108  C117  S    
C118  H138  S    
Cr7   O17   S    
C119  H143  S    
C110  C119  S    
C39   C44   A    
H61   N1    S    
Cr4   O30   S    
C85   O27   A    
C7    C110  S    
C121  C139  S    
C8    O36   A    
C122  C140  S    
H71   N5    S    
C63   H78   S    
Cr3   O3    S    
C67   H89   S    
C20   H20   S    
Cr3   O29   S    
C28   H40   S    
C37   H48   S    
C34   C36   A    
C72   H95   S    
C19   H19   S    
C107  C116  S    
C63   C64   S    
C128  H15   S    
C49   C50   A    
Cr5   O15   S    
C70   C75   S    
C101  H31   S    
C61   C112  S    
C124  H165  S    
C96   C105  S    
C78   C137  S    
C38   H49   S    
C26   C72   S    
C41   C42   A    
C132  H11   S    
C31   H43   S    
C98   H131  S    
C15   C19   S    
Cr12  O27   S    
C26   C27   A    
C124  H161  S    
H66   N3    S    
C126  H12   S    
C21   C54   S    
C92   H116  S    
Cr8   O22   S    
C98   C103  S    
Cr6   O38   S    
C95   H119  S    
C129  H7    S    
C35   C59   S    
Cr6   O16   S    
Cr11  O26   S    
C83   H107  S    
C19   C52   S    
Cr12  O52   S    
C12   C17   S    
C82   H106  S    
C84   C106  S    
C42   H52   S    
C67   C73   S    
C36   H47   S    
C11   O8    A    
C128  C141  S    
C101  H27   S    
C72   C76   S    
C81   C89   S    
C99   H128  S    
C99   C104  S    
C20   H152  S    
C35   C54   S    
Cr2   O10   S    
H64   N2    S    
C130  C139  S    
C18   C46   S    
C68   O16   A    
H75   N7    S    
Cr12  O31   S    
C57   O19   A    
C58   H68   S    
C22   H2    S    
C33   H44   S    
C126  H3    S    
C49   H58   S    
C59   H114  S    
C12   N1    S    
C105  C143  S    
C100  H133  S    
C86   O28   A    
C89   C107  S    
C50   C51   A    
C58   N8    S    
C97   H148  S    
C125  H14   S    
C97   C106  S    
C48   C49   A    
C94   C103  S    
C27   H39   S    
C42   C43   A    
C21   C134  S    
C75   H91   S    
C116  H140  S    
Cr9   O49   S    
C65   C78   S    
C55   N6    S    
C91   C108  S    
C143  O41   A    
C20   C53   S    
C70   H99   S    
C94   H118  S    
C71   C74   S    
C22   C55   S    
C61   H136  S    
C113  H154  S    
C80   C136  S    
C128  H167  S    
C120  H157  S    
Cr1   O1    S    
C115  H156  S    
C102  H130  S    
C44   H54   S    
C69   H90   S    
C111  H153  S    
C74   C78   S    
C17   H149  S    
C131  H5    S    
C59   H34   S    
Cr6   O23   S    
C17   C35   S    
Cr12  O5    S    
C110  C115  S    
Cr1   O14   S    
C5    C108  S    
H74   N7    S    
C41   H51   S    
C70   C78   S    
C35   C85   S    
C14   C18   S    
C22   H22   S    
C23   C56   S    
C83   C92   S    
C100  C105  S    
C132  H4    S    
C3    O43   A    
C8    C139  S    
C89   H113  S    
H65   N3    S    
C91   H115  S    
C45   C51   A    
Cr8   O9    S    
C127  C132  S    
C69   H96   S    
C92   H111  S    
H72   N6    S    
C125  C130  S    
C79   O21   A    
C129  C138  S    
C90   H26   S    
C137  O35   A    
C88   O26   A    
C104  C144  S    
C32   C38   A    
C123  H33   S    
C91   H110  S    
C75   C80   S    
C113  H123  S    
C89   H109  S    
C114  H124  S    
C102  H134  S    
C9    O37   A    
C26   C31   A    
C16   C24   S    
C82   H101  S    
C77   C133  S    
C62   C123  S    
C144  O47   A    
C25   H25   S    
Cr3   O11   S    
C67   H97   S    
Cr10  O25   S    
C40   H50   S    
C54   H35   S    
C114  H155  S    
C111  H122  S    
C24   C25   S    
C32   C73   S    
C16   H103  S    
Cr5   O41   S    
C66   H86   S    
C2    C101  S    
C127  H16   S    
C55   H46   S    
C100  H129  S    
C8    O5    A    
C59   C90   S    
C120  H162  S    
C1    O14   A    
C53   C62   S    
C98   C116  S    
C47   C48   A    
C16   N4    S    
C33   C34   A    
C56   H57   S    
C68   O20   A    
C1    C24   S    
C40   C41   A    
C29   H41   S    
C13   C15   S    
C25   C58   S    
Cr4   O4    S    
C60   C101  S    
C10   O7    A    
C95   C104  S    
C73   H94   S    
C87   O25   A    
C84   H104  S    
C52   C87   S    
C112  H32   S    
Cr8   O18   S    
C121  H159  S    
Cr4   O35   S    
C86   O24   A    
C116  H135  S    
C122  H160  S    
C10   O38   A    
C9    O6    A    
C45   C75   S    
C56   N7    S    
C95   C113  S    
C102  C106  S    
C53   C88   S    
C81   H100  S    
C133  O1    A    
Cr1   O36   S    
C100  C118  S    
C36   C37   A    
C65   C66   S    
C133  O31   A    
C27   C28   A    
Cr5   O10   S    
Cr11  O21   S    
C67   C76   S    
C52   C56   S    
C46   C86   S    
