data_mof_unit_43935.cif
_audit_creation_date              2013-03-05T15:52:28-0500
_audit_creation_method            fapswitch 2.2
_symmetry_space_group_name_H-M    P1
_symmetry_Int_Tables_number       1
_space_group_crystal_system       triclinic
_cell_length_a                    27.835122
_cell_length_b                    10.825442
_cell_length_c                    9.601618
_cell_angle_alpha                 90.871538
_cell_angle_beta                  90.595913
_cell_angle_gamma                 94.724006
_cell_volume                      2882.87241817

loop_
_atom_site_label
_atom_site_type_symbol
_atom_site_description
_atom_site_fract_x
_atom_site_fract_y
_atom_site_fract_z
_atom_type_partial_charge
O1    O     O_R   0.500000 0.319640 0.618810 -0.555250
O2    O     O_R   0.500000 0.319660 0.381240 -0.537905
C1    C     C_R   0.503404 0.263243 0.499440 0.817938
O3    O     O_R   0.430260 0.500010 0.618770 -0.532663
O4    O     O_R   0.430270 0.500030 0.381200 -0.559295
C2    C     C_R   0.407431 0.499653 0.499310 0.816962
Cu1   Cu    Cu3+1 0.500000 0.499990 0.640660 1.032400
Cu2   Cu    Cu3+1 0.500000 0.500010 0.359340 0.994139
O5    O     O_R   0.500000 0.680340 0.618760 -0.533790
O6    O     O_R   0.500000 0.680360 0.381190 -0.594676
O7    O     O_R   0.569730 0.499970 0.618800 -0.463302
O8    O     O_R   0.569740 0.499990 0.381230 -0.632780
C3    C     C_R   0.495639 0.736815 0.501483 0.804143
C4    C     C_R   0.592622 0.499501 0.500585 0.830691
C5    C     C_R   0.174423 0.393937 0.528493 0.545395
O9    O     O_2   0.196373 0.301845 0.589658 -0.526833
N1    N     N_R   0.201466 0.490917 0.471521 -0.473123
C6    C     C_R   0.180465 0.584677 0.406411 0.609418
C7    C     C_R   0.279757 0.478769 0.359429 -0.104664
C8    C     C_R   0.329761 0.481115 0.367260 -0.276865
C9    C     C_R   0.327336 0.514699 0.618556 0.386312
C10   C     C_R   0.276759 0.512119 0.608816 -0.194648
C11   C     C_R   0.253086 0.494116 0.479926 0.301828
C12   C     C_R   0.101280 0.485319 0.458141 -0.131568
C13   C     C_R   0.124002 0.389386 0.523287 0.014484
C14   C     C_R   0.096083 0.291612 0.583604 -0.134918
C15   C     C_R   0.129656 0.583763 0.396876 -0.110029
C16   C     C_R   0.354204 0.498684 0.496071 -0.080819
H1    H     H_    0.255600 0.524498 0.701300 0.143333
H2    H     H_    0.112753 0.217777 0.635830 0.188741
C17   C     C_R   0.645853 0.496666 0.499304 -0.121879
C18   C     C_R   0.970997 0.377555 0.506399 0.018330
C19   C     C_R   0.977308 0.589490 0.417886 0.016268
C20   C     C_R   0.948829 0.484428 0.465364 0.048224
C21   C     C_R   0.941361 0.270194 0.538839 -0.298313
C22   C     C_R   0.890985 0.269403 0.540587 0.462706
C23   C     C_R   0.868986 0.378954 0.509955 -0.044135
C24   C     C_R   0.897947 0.486763 0.472545 -0.164980
C25   C     C_R   0.876105 0.597251 0.442893 -0.118102
C26   C     C_R   0.825341 0.594010 0.440201 0.587820
N2    N     N_R   0.798124 0.489474 0.477949 -0.461047
C27   C     C_R   0.818559 0.384070 0.514545 0.566418
C28   C     C_R   0.718570 0.483058 0.360842 0.311664
C29   C     C_R   0.668594 0.486187 0.369677 -0.366202
C30   C     C_R   0.674576 0.504685 0.622501 0.229795
C31   C     C_R   0.724728 0.503165 0.612483 -0.235837
C32   C     C_R   0.746676 0.491219 0.483320 0.295182
O10   O     O_2   0.789798 0.284553 0.553925 -0.470042
C33   C     C_R   0.022113 0.381448 0.514107 0.105557
C34   C     C_R   0.050255 0.483479 0.456958 0.006572
C35   C     C_R   0.027623 0.583135 0.398318 -0.018758
C36   C     C_R   0.046150 0.287503 0.579266 -0.197920
H3    H     H_    0.647603 0.480224 0.273777 0.181142
H4    H     H_    0.956549 0.183712 0.558874 0.140395
H5    H     H_    0.027333 0.211510 0.632739 0.144520
O11   O     O_2   0.208885 0.678562 0.352367 -0.453781
C37   C     C_R   0.106762 0.677194 0.327118 0.343538
H6    H     H_    0.349270 0.468265 0.271811 0.201982
H7    H     H_    0.261614 0.464373 0.259470 0.159282
C38   C     C_R   0.955241 0.700882 0.401362 -0.116332
C39   C     C_R   0.905856 0.706689 0.416409 0.400645
O12   O     O_2   0.803016 0.693133 0.397954 -0.506730
C40   C     C_R   0.055748 0.670914 0.318650 0.264390
H8    H     H_    0.976439 0.787840 0.386943 0.213886
H9    H     H_    0.747091 0.512451 0.705630 0.156286
H10   H     H_    0.484187 0.109393 0.283292 0.215406
C41   C     C_R   0.541070 0.124795 0.742146 0.331757
C42   C     C_R   0.534203 0.071840 0.874710 0.430670
C43   C     C_R   0.507244 0.958376 0.885323 -0.221491
H11   H     H_    0.500401 0.918597 0.986709 0.223624
C44   C     C_R   0.490948 0.892369 0.766079 -0.211860
H12   H     H_    0.469535 0.806034 0.781600 0.200604
C45   C     C_R   0.499619 0.941114 0.632041 0.020845
C46   C     C_R   0.516921 0.066434 0.623405 -0.060375
C47   C     C_R   0.507356 0.129368 0.498939 -0.205632
C48   C     C_R   0.492071 0.062315 0.378688 -0.134492
C49   C     C_R   0.483907 0.934659 0.380393 0.398422
C50   C     C_R   0.490493 0.871304 0.506205 -0.200847
C51   C     C_R   0.563172 0.668746 0.156548 -0.116151
H13   H     H_    0.565921 0.670447 0.265495 0.224653
C52   C     C_R   0.593292 0.760004 0.096998 0.220748
C53   C     C_R   0.593861 0.766844 0.955111 -0.363137
H14   H     H_    0.617983 0.838481 0.909423 0.153991
C54   C     C_R   0.565929 0.681450 0.869964 0.435995
C55   C     C_R   0.531938 0.586889 0.929207 0.133628
C56   C     C_R   0.531407 0.584276 0.079120 -0.002382
N3    N     N_R   0.500460 0.501210 0.147910 -0.190522
C57   C     C_R   0.470174 0.419032 0.072036 0.517975
H15   H     H_    0.446440 0.353826 0.864586 0.145675
C58   C     C_R   0.470480 0.419395 0.923272 -0.116429
N4    N     N_R   0.500480 0.501290 0.852040 -0.185192
O13   O     O_3   0.350782 0.533621 0.745581 -0.717335
H16   H     H_    0.326634 0.542889 0.819438 0.324592
O14   O     O_3   0.134492 0.773625 0.267265 -0.662859
H17   H     H_    0.115768 0.847605 0.265031 0.334672
N5    N     N_2   0.653787 0.522055 0.755323 -0.382790
H18   H     H_    0.662357 0.610112 0.795381 0.250625
C59   C     C_3   0.661651 0.427987 0.856722 -0.610465
H19   H     H_    0.636586 0.436802 0.944891 0.218802
H20   H     H_    0.699197 0.439797 0.897972 0.196355
H21   H     H_    0.654939 0.333877 0.809550 0.272199
O15   O     O_3   0.888563 0.822041 0.408967 -0.680993
H22   H     H_    0.866409 0.829927 0.488169 0.351784
O16   O     O_3   0.032915 0.741072 0.222986 -0.740171
H23   H     H_    0.055011 0.762047 0.145044 0.346057
O17   O     O_3   0.573755 0.227019 0.730509 -0.740665
H24   H     H_    0.585409 0.230767 0.633327 0.317696
O18   O     O_3   0.553246 0.127520 0.995732 -0.728380
H25   H     H_    0.568871 0.210535 0.974710 0.355822
O19   O     O_3   0.466900 0.876201 0.258948 -0.723248
H26   H     H_    0.443177 0.807114 0.284349 0.333965
O20   O     O_3   0.439485 0.336154 0.142752 -0.702901
H27   H     H_    0.420181 0.282871 0.074327 0.300353
N6    N     N_2   0.622043 0.848541 0.180600 -0.406173
H28   H     H_    0.635902 0.925677 0.127980 0.276086
C60   C     C_3   0.657422 0.798552 0.270773 -0.643402
H29   H     H_    0.679219 0.875688 0.325012 0.246683
H30   H     H_    0.681950 0.743832 0.208786 0.233098
H31   H     H_    0.639575 0.739649 0.351747 0.218128
O21   O     O_3   0.574356 0.692172 0.730733 -0.680672
H32   H     H_    0.597330 0.764074 0.708651 0.297700
N7    N     N_2   0.740609 0.475340 0.228375 -0.414365
H33   H     H_    0.723760 0.522635 0.151922 0.246396
C61   C     C_3   0.748537 0.350571 0.183754 -0.640256
H34   H     H_    0.767622 0.353415 0.082730 0.230953
H35   H     H_    0.713503 0.294360 0.169862 0.222780
H36   H     H_    0.771169 0.305922 0.260955 0.261297
O22   O     O_3   0.862954 0.161969 0.571427 -0.657232
H37   H     H_    0.883915 0.094230 0.590312 0.327184

loop_
_geom_bond_atom_site_label_1
_geom_bond_atom_site_label_2
_geom_bond_distance
_ccdc_geom_bond_type
N3    C57   1.369973 A    
C10   H1    1.083333 S    
N2    C27   1.365263 A    
C21   C22   1.401825 A    
C12   C15   1.412699 A    
C4    C17   1.484726 S    
C47   C48   1.398022 A    
O22   H37   0.991648 S    
C52   C53   1.365668 A    
C55   N4    1.416462 A    
Cu1   Cu2   2.701130 S    
C49   C50   1.415822 A    
C60   H29   1.110562 S    
Cu1   O7    1.954445 S    
N1    C11   1.435825 S    
C22   C23   1.412238 A    
O4    C2    1.305728 A    
O7    C4    1.307591 A    
C5    C13   1.400639 A    
O17   H24   0.991383 S    
C5    O9    1.350095 S    
C59   H19   1.110557 S    
C26   O12   1.349071 S    
O18   H25   0.990193 S    
N1    C6    1.368267 A    
C45   C46   1.405678 A    
C23   C27   1.410395 A    
C43   C44   1.392168 A    
O5    C3    1.298773 A    
O19   H26   0.991167 S    
O16   H23   0.990780 S    
O15   H22   0.991116 S    
C31   C32   1.397100 A    
C29   H3    1.083605 S    
C2    C16   1.480753 S    
C7    C8    1.391233 A    
C42   C43   1.391330 A    
N5    C59   1.447495 S    
C52   N6    1.428413 S    
C45   C50   1.424670 A    
Cu2   O8    1.950407 S    
C1    C47   1.462374 S    
C36   H5    1.078038 S    
C6    O11   1.349141 S    
Cu1   N4    2.029323 S    
O1    Cu1   1.960433 S    
C9    C10   1.407916 A    
C21   H4    1.077591 S    
C22   O22   1.383802 S    
O3    Cu1   1.950413 S    
O20   H27   0.991535 S    
C37   C40   1.417427 A    
C48   C49   1.382281 A    
C12   C34   1.418713 A    
C25   C39   1.416316 A    
C17   C29   1.409451 A    
C41   C42   1.412251 A    
C18   C21   1.409504 A    
C35   C40   1.418814 A    
C12   C13   1.410503 A    
C31   H9    1.082983 S    
O3    C2    1.305264 A    
C15   C37   1.412665 A    
C25   C26   1.410513 A    
C44   C45   1.413922 A    
C56   N3    1.374492 A    
C8    C16   1.408119 A    
C7    H7    1.082991 S    
C13   C14   1.397191 A    
C55   C56   1.440327 A    
C38   C39   1.390164 A    
O1    C1    1.298402 A    
C18   C20   1.414532 A    
C7    C11   1.396304 A    
C28   C29   1.397720 A    
C23   C24   1.415904 A    
C14   C36   1.387110 A    
C54   O21   1.364696 S    
C33   C36   1.412813 A    
H10   C48   1.084115 S    
N5    H18   1.031024 S    
C19   C20   1.415825 A    
N2    C32   1.435200 S    
O14   H17   0.991212 S    
C34   C35   1.414482 A    
C41   C46   1.429342 A    
C27   O10   1.349488 S    
C54   C55   1.461514 A    
C28   N7    1.422134 S    
C61   H36   1.109623 S    
C26   N2    1.364888 A    
C9    C16   1.416302 A    
O8    C4    1.305593 A    
C14   H2    1.083554 S    
C19   C38   1.407961 A    
C53   C54   1.404580 A    
C37   O14   1.382223 S    
C33   C34   1.421107 A    
C8    H6    1.083076 S    
N7    C61   1.445701 S    
O21   H32   0.992797 S    
C61   H35   1.111827 S    
Cu1   O5    1.966837 S    
C3    C50   1.474688 S    
C20   C24   1.420978 A    
O2    Cu2   1.966837 S    
C6    C15   1.415490 A    
C57   C58   1.428550 A    
C40   O16   1.383137 S    
O6    C3    1.309941 A    
O4    Cu2   1.954448 S    
N6    C60   1.447946 S    
C41   O17   1.380174 S    
N6    H28   1.032078 S    
C19   C35   1.422118 A    
C59   H21   1.109417 S    
C51   C52   1.377147 A    
C60   H31   1.108522 S    
C38   H8    1.080573 S    
Cu2   N3    2.030476 S    
C39   O15   1.377372 S    
N7    H33   1.031882 S    
C44   H12   1.079504 S    
C58   N4    1.363617 A    
C24   C25   1.416984 A    
O13   H16   0.991779 S    
C60   H30   1.111567 S    
O2    C1    1.303222 A    
C43   H11   1.082794 S    
C59   H20   1.110546 S    
C18   C33   1.421119 A    
C51   H13   1.047843 S    
C57   O20   1.378415 S    
C30   C31   1.401717 A    
C46   C47   1.418191 A    
Cu2   O6    1.960433 S    
C53   H14   1.084153 S    
C17   C30   1.418350 A    
C10   C11   1.399381 A    
C42   O18   1.381234 S    
H15   C58   1.082065 S    
C5    N1    1.365242 A    
C30   N5    1.422175 S    
C28   C32   1.403247 A    
C49   O19   1.378776 S    
C51   C56   1.415301 A    
C61   H34   1.110380 S    
C9    O13   1.381746 S    
