data_mof_unit_39827.cif
_audit_creation_date              2012-10-26T19:46:57-0400
_audit_creation_method            fapswitch 2.2
_symmetry_space_group_name_H-M    P1
_symmetry_Int_Tables_number       1
_space_group_crystal_system       triclinic
_cell_length_a                    10.876004
_cell_length_b                    9.748031
_cell_length_c                    16.081876
_cell_angle_alpha                 88.003157
_cell_angle_beta                  100.090465
_cell_angle_gamma                 88.952713
_cell_volume                      1677.08768002

loop_
_atom_site_label
_atom_site_type_symbol
_atom_type_description
_atom_site_fract_x
_atom_site_fract_y
_atom_site_fract_z
_atom_type_partial_charge
C1    C     C_R   0.868699 0.495938 0.483139 -0.072993
C2    C     C_R   0.493247 0.360494 0.959895 0.183584
C3    C     C_R   0.498944 0.485412 0.913408 -0.067552
C4    C     C_R   0.491077 0.489681 0.087104 -0.073356
C5    C     C_1   0.500868 0.487400 0.823270 0.130406
C6    C     C_1   0.493304 0.496863 0.177060 0.127360
C7    C     C_1   0.496224 0.502636 0.252155 0.149939
C8    C     C_1   0.500815 0.492130 0.748074 0.136234
C9    C     C_R   0.421323 0.081395 0.437390 0.276024
C10   C     C_R   0.579628 0.919020 0.561948 0.295631
C11   C     C_R   0.576769 0.068838 0.564270 0.284873
C12   C     C_R   0.130242 0.504866 0.514449 -0.096862
C13   C     C_R   0.425056 0.931775 0.434871 0.297777
C14   C     C_R   0.070534 0.380439 0.526054 0.192474
C15   C     C_R   0.928454 0.621006 0.471984 0.197663
C16   C     C_R   0.941497 0.372744 0.499277 0.187328
C17   C     C_R   0.057830 0.628221 0.498850 0.154175
C18   C     C_R   0.264064 0.501392 0.506698 0.601128
C19   C     C_R   0.735498 0.498836 0.492369 0.605274
C20   C     C_R   0.499669 0.501595 0.341632 0.576765
C21   C     C_R   0.499827 0.497801 0.658492 0.567681
C22   C     C_R   0.501322 0.610760 0.954428 0.144232
C23   C     C_R   0.507266 0.362799 0.049494 0.187794
C24   C     C_R   0.475766 0.612162 0.037135 0.141690
Cu1   Cu    Cu3+1 0.500000 0.640660 0.500000 1.246542
Cu2   Cu    Cu3+1 0.500000 0.359340 0.500000 1.208851
H1    H     H_    0.212887 0.362900 0.302166 0.355704
H2    H     H_    0.900623 0.909138 0.316657 0.399054
H3    H     H_    0.705680 0.153459 0.391615 0.357187
H4    H     H_    0.199294 0.707412 0.660988 0.347567
H5    H     H_    0.784582 0.637812 0.699253 0.359100
H6    H     H_    0.743782 0.338052 0.703638 0.349107
H7    H     H_    0.256377 0.665737 0.295956 0.360023
H8    H     H_    0.243983 0.663680 0.101648 0.341472
H9    H     H_    0.349518 0.141653 0.791796 0.414915
H10   H     H_    0.745342 0.671751 0.919297 0.347729
H11   H     H_    0.621560 0.153532 0.243183 0.391347
H12   H     H_    0.271049 0.075878 0.589125 0.374291
N1    N     N_R   0.500000 0.852070 0.500000 -0.299082
N2    N     N_R   0.500000 0.147930 0.500000 -0.327360
O1    O     O_R   0.319640 0.618740 0.499990 -0.418520
O2    O     O_2   0.183899 0.113373 0.358042 -0.150255
O3    O     O_3   0.276372 0.344820 0.353810 -0.514241
O4    O     O_2   0.817876 0.883999 0.637949 -0.159945
O5    O     O_2   0.653776 0.854184 0.724787 -0.149786
O6    O     O_3   0.721813 0.655436 0.647191 -0.519692
O7    O     O_2   0.554347 0.167990 0.713887 -0.231251
O8    O     O_2   0.760318 0.075329 0.716757 -0.124402
O9    O     O_3   0.718194 0.302447 0.646355 -0.481063
O10   O     O_2   0.250032 0.927580 0.277950 -0.117299
O11   O     O_2   0.455228 0.829605 0.287545 -0.199658
O12   O     O_R   0.680360 0.381260 0.500010 -0.428460
O13   O     O_3   0.283243 0.702139 0.352861 -0.478473
O14   O     O_2   0.512570 0.841988 0.123523 -0.111283
O15   O     O_2   0.341652 0.848311 0.001384 -0.148690
O16   O     O_3   0.307774 0.717508 0.137352 -0.487217
O17   O     O_2   0.591800 0.147547 0.891246 -0.141824
O18   O     O_2   0.406315 0.101608 0.954213 -0.127397
O19   O     O_3   0.373984 0.233985 0.811670 -0.467933
O20   O     O_2   0.460789 0.814504 0.835504 -0.176183
O21   O     O_2   0.594646 0.868123 0.969077 -0.112399
O22   O     O_3   0.686339 0.709163 0.869315 -0.473445
O23   O     O_R   0.680360 0.618740 0.500010 -0.416356
O24   O     O_2   0.426334 0.137766 0.120902 -0.136480
O25   O     O_2   0.628776 0.116554 0.074595 -0.143603
O26   O     O_3   0.620044 0.242381 0.211202 -0.500973
O27   O     O_2   0.249994 0.315778 0.657973 -0.294640
O28   O     O_2   0.060251 0.183170 0.646851 -0.153374
O29   O     O_3   0.213967 0.130574 0.544946 -0.410513
O30   O     O_2   0.748073 0.695282 0.340042 -0.270996
O31   O     O_2   0.792486 0.858538 0.453074 -0.215125
O32   O     O_3   0.950170 0.833660 0.350388 -0.407093
O33   O     O_2   0.979680 0.126275 0.435839 -0.119720
O34   O     O_R   0.319640 0.381260 0.499990 -0.406740
O35   O     O_2   0.840019 0.135292 0.538428 -0.168041
O36   O     O_3   0.759659 0.232666 0.385578 -0.501182
O37   O     O_2   0.169274 0.862774 0.466032 -0.135409
O38   O     O_2   0.021302 0.876228 0.562590 -0.117447
O39   O     O_3   0.236596 0.761508 0.618849 -0.501384
O40   O     O_R   0.499970 0.618750 0.380310 -0.434226
O41   O     O_R   0.500030 0.381250 0.619690 -0.432242
O42   O     O_R   0.500030 0.618750 0.619690 -0.441212
O43   O     O_R   0.499970 0.381250 0.380310 -0.456855
O44   O     O_2   0.350054 0.153377 0.273915 -0.213330
S1    S     S_3+6 0.308760 0.175890 0.356824 0.143667
S2    S     S_3+6 0.849448 0.754822 0.403301 0.118944
S3    S     S_3+6 0.880935 0.211252 0.465809 0.146971
S4    S     S_3+6 0.120128 0.787513 0.535587 0.135269
S5    S     S_3+6 0.692435 0.825138 0.641946 0.160545
S6    S     S_3+6 0.653955 0.150668 0.661102 0.167467
S7    S     S_3+6 0.351913 0.851049 0.337026 0.182890
S8    S     S_3+6 0.410041 0.761196 0.074374 0.147159
S9    S     S_3+6 0.468197 0.204918 0.905169 0.146351
S10   S     S_3+6 0.558351 0.758154 0.907047 0.137918
S11   S     S_3+6 0.545225 0.209674 0.113781 0.132919
S12   S     S_3+6 0.149273 0.250419 0.597358 0.122544

loop_
_geom_bond_atom_site_label_1
_geom_bond_atom_site_label_2
_ccdc_geom_bond_type
H8    O16   S    
Cu2   O43   S    
Cu1   O40   S    
O9    S6    S    
O29   S12   S    
H3    O36   S    
O28   S12   D    
O2    S1    D    
O18   S9    D    
C4    C24   A    
C17   S4    S    
H9    O19   S    
Cu1   O23   S    
C9    C13   A    
O33   S3    D    
C9    S1    S    
C19   O12   A    
O37   S4    D    
C19   O23   A    
H5    O6    S    
C12   C17   A    
O13   S7    S    
C16   S3    S    
C1    C15   A    
O5    S5    D    
O11   S7    D    
H12   O29   S    
C18   O34   A    
O17   S9    D    
C13   S7    S    
C22   S10   S    
H2    O32   S    
H10   O22   S    
C24   S8    S    
C14   S12   S    
O39   S4    S    
H7    O13   S    
C1    C19   S    
C20   O40   A    
O3    S1    S    
O44   S1    D    
C10   S5    S    
C4    C6    S    
C18   O1    A    
Cu1   O1    S    
O6    S5    S    
C4    C23   A    
O21   S10   D    
Cu1   Cu2   S    
C9    N2    A    
C10   N1    A    
O14   S8    D    
O15   S8    D    
Cu2   O12   S    
O31   S2    D    
O16   S8    S    
H11   O26   S    
C8    C21   S    
C1    C16   A    
O36   S3    S    
C15   S2    S    
H4    O39   S    
O35   S3    D    
C12   C14   A    
Cu2   O41   S    
O22   S10   S    
O27   S12   D    
O7    S6    D    
C14   C16   A    
O30   S2    D    
O38   S4    D    
C15   C17   A    
C2    S9    S    
O24   S11   D    
C21   O41   A    
C3    C5    S    
C5    C8    T    
O32   S2    S    
C6    C7    T    
C2    C3    A    
Cu1   N1    S    
C11   S6    S    
Cu2   N2    S    
Cu1   O42   S    
Cu2   O34   S    
C23   S11   S    
C22   C24   A    
C11   N2    A    
H6    O9    S    
C13   N1    A    
C10   C11   A    
H1    O3    S    
O10   S7    D    
O25   S11   D    
C21   O42   A    
C7    C20   S    
C20   O43   A    
C12   C18   S    
C2    C23   A    
C3    C22   A    
O8    S6    D    
O19   S9    S    
O4    S5    D    
O26   S11   S    
O20   S10   D    
