data_mof_unit_23175.cif
_audit_creation_date              2013-03-05T16:21:22-0500
_audit_creation_method            fapswitch 2.2
_symmetry_space_group_name_H-M    P1
_symmetry_Int_Tables_number       1
_space_group_crystal_system       triclinic
_cell_length_a                    8.706003
_cell_length_b                    15.15594
_cell_length_c                    13.937781
_cell_angle_alpha                 89.444859
_cell_angle_beta                  96.974438
_cell_angle_gamma                 92.059979
_cell_volume                      1824.24334789

loop_
_atom_site_label
_atom_site_type_symbol
_atom_site_description
_atom_site_fract_x
_atom_site_fract_y
_atom_site_fract_z
_atom_type_partial_charge
O1    O     O_R   0.500010 0.371450 0.581430 -0.581276
O2    O     O_R   0.499990 0.628550 0.418570 -0.547289
O3    O     O_R   0.500010 0.371460 0.418560 -0.580050
O4    O     O_R   0.499990 0.628540 0.581440 -0.579825
C1    C     C_R   0.500509 0.330252 0.500422 0.859393
C2    C     C_R   0.486627 0.669986 0.498073 0.813553
O5    O     O_R   0.274840 0.499990 0.562640 -0.526042
O6    O     O_R   0.725160 0.500010 0.437360 -0.568296
O7    O     O_R   0.274840 0.500000 0.399770 -0.605476
O8    O     O_R   0.725160 0.500000 0.600230 -0.592495
C3    C     C_R   0.204218 0.499136 0.475777 0.953492
C4    C     C_R   0.795929 0.500829 0.524510 0.872919
Cu1   Cu    Cu3+1 0.500000 0.499990 0.596430 1.004368
Cu2   Cu    Cu3+1 0.500000 0.500010 0.403570 0.980640
C5    C     C_2   0.038982 0.494497 0.463037 -0.350191
C6    C     C_2   0.961512 0.503545 0.538440 -0.336178
H1    H     H_    0.980726 0.481451 0.391313 0.198153
H2    H     H_    0.019910 0.513823 0.611181 0.203208
C7    C     C_R   0.609399 0.094885 0.555163 -0.168155
C8    C     C_R   0.478370 0.907648 0.406823 -0.187869
H3    H     H_    0.697472 0.058177 0.598623 0.142621
H4    H     H_    0.480325 0.945309 0.340408 0.141461
C9    C     C_R   0.614240 0.187149 0.557739 0.138236
C10   C     C_R   0.462307 0.815504 0.404024 0.159670
C11   C     C_R   0.497088 0.233720 0.500498 -0.113249
C12   C     C_R   0.465008 0.767241 0.493398 -0.135291
C13   C     C_R   0.380135 0.186869 0.439558 -0.048903
C14   C     C_R   0.452482 0.815342 0.579370 -0.046948
C15   C     C_R   0.382417 0.095040 0.436259 -0.211843
C16   C     C_R   0.473308 0.907045 0.579217 -0.208981
H5    H     H_    0.292103 0.058481 0.391095 0.169150
H6    H     H_    0.466638 0.944150 0.644665 0.181429
C17   C     C_R   0.494971 0.049240 0.494365 0.057131
C18   C     C_R   0.488595 0.952794 0.493891 0.054744
C19   C     C_R   0.624228 0.518647 0.112810 -0.346100
C20   C     C_R   0.445617 0.428239 0.890556 -0.351921
H7    H     H_    0.728918 0.532658 0.079821 0.172961
H8    H     H_    0.409227 0.368815 0.926656 0.167290
C21   C     C_R   0.627094 0.526730 0.213412 0.162677
C22   C     C_R   0.441284 0.428760 0.789549 0.168630
N1    N     N_R   0.500000 0.500020 0.258690 -0.219825
N2    N     N_R   0.500000 0.499980 0.741310 -0.221500
C23   C     C_R   0.366634 0.474106 0.202064 0.031016
C24   C     C_R   0.551814 0.573468 0.793489 0.038891
H9    H     H_    0.266599 0.453268 0.236287 0.161757
H10   H     H_    0.597322 0.629485 0.756098 0.145432
C25   C     C_R   0.353274 0.477446 0.099375 0.060489
C26   C     C_R   0.543648 0.579016 0.894757 0.057529
C27   C     C_R   0.487042 0.499559 0.053304 0.106156
C28   C     C_R   0.490262 0.503598 0.944939 0.109158
C29   C     C_3   0.750953 0.233160 0.617084 -0.421708
C30   C     C_3   0.870612 0.266673 0.552597 -0.760986
H11   H     H_    0.818517 0.312535 0.496309 0.233812
H12   H     H_    0.967153 0.302255 0.597156 0.286765
H13   H     H_    0.918066 0.210310 0.516728 0.262277
H14   H     H_    0.713394 0.288154 0.659513 0.238425
H15   H     H_    0.808782 0.186874 0.671161 0.210992
C31   C     C_3   0.431000 0.774509 0.303795 -0.383551
C32   C     C_3   0.266571 0.734242 0.284613 -0.757554
H16   H     H_    0.249663 0.703154 0.212077 0.236916
H17   H     H_    0.244083 0.683163 0.339135 0.260930
H18   H     H_    0.180934 0.786638 0.286212 0.242283
H19   H     H_    0.442216 0.825192 0.246591 0.184451
H20   H     H_    0.517965 0.726088 0.291353 0.260225
C33   C     C_2   0.250348 0.230934 0.381201 0.838814
O9    O     O_2   0.200110 0.202481 0.301184 -0.596933
O10   O     O_R   0.181421 0.302648 0.418783 -0.770875
H21   H     H_    0.091980 0.325148 0.372738 0.323107
C34   C     C_2   0.397664 0.775678 0.667301 0.840260
O11   O     O_2   0.297515 0.716584 0.660457 -0.590483
O12   O     O_R   0.449892 0.812046 0.757597 -0.787257
H22   H     H_    0.391349 0.786466 0.810348 0.335532
C35   C     C_2   0.767206 0.572430 0.263252 0.835729
O13   O     O_2   0.894294 0.557335 0.239239 -0.655564
O14   O     O_R   0.754643 0.639028 0.329970 -0.751361
H23   H     H_    0.858767 0.666763 0.356364 0.321100
C36   C     C_2   0.362356 0.351891 0.739325 0.868849
O15   O     O_2   0.247237 0.361632 0.681347 -0.588323
O16   O     O_R   0.414856 0.267260 0.762130 -0.783608
H24   H     H_    0.351148 0.219651 0.723217 0.332878
C37   C     C_3   0.194465 0.460059 0.043512 -0.394804
C38   C     C_3   0.129517 0.543553 0.994372 -0.788673
H25   H     H_    0.133969 0.598140 0.047395 0.254303
H26   H     H_    0.195429 0.563902 0.934133 0.258875
H27   H     H_    0.006937 0.530529 0.964006 0.239607
H28   H     H_    0.197043 0.407387 0.989402 0.207700
H29   H     H_    0.111085 0.435603 0.092963 0.215280
C39   C     C_3   0.591964 0.666027 0.945059 -0.411452
C40   C     C_3   0.461464 0.705726 0.993204 -0.802623
H30   H     H_    0.350601 0.701807 0.944707 0.246573
H31   H     H_    0.445572 0.671521 0.062099 0.254779
H32   H     H_    0.491074 0.776178 0.010210 0.245926
H33   H     H_    0.694778 0.658268 0.999097 0.203185
H34   H     H_    0.628986 0.715247 0.892153 0.221732

loop_
_geom_bond_atom_site_label_1
_geom_bond_atom_site_label_2
_geom_bond_distance
_ccdc_geom_bond_type
C13   C15   1.393892 A    
C35   O14   1.395102 S    
C35   O13   1.223986 D    
C19   C21   1.405814 A    
C14   C34   1.482653 S    
O14   H23   1.014094 S    
C37   C38   1.526666 S    
C25   C27   1.424885 A    
C36   O15   1.221026 D    
O5    C3    1.289528 A    
O1    C1    1.296043 A    
C19   H7    1.083141 S    
C10   C12   1.436600 A    
C5    C6    1.326572 D    
C15   C17   1.393986 A    
C29   H14   1.107894 S    
O4    Cu1   1.957456 S    
C34   O12   1.396757 S    
C3    C5    1.427166 S    
C8    C10   1.398939 A    
C24   H10   1.080149 S    
C33   O10   1.396444 S    
C19   C27   1.391858 A    
C26   C39   1.521162 S    
C29   H15   1.112057 S    
C40   H31   1.107898 S    
C37   H28   1.106171 S    
C30   H13   1.110923 S    
C8    C18   1.390772 A    
C26   C28   1.427239 A    
C32   H16   1.110794 S    
Cu1   Cu2   2.688038 S    
N1    C23   1.369651 A    
O2    C2    1.298398 A    
N2    C24   1.368509 A    
Cu1   N2    2.019304 S    
C30   H12   1.109097 S    
C36   O16   1.397893 S    
C31   H20   1.102786 S    
C39   H34   1.110801 S    
C32   H17   1.108577 S    
C16   C18   1.388748 A    
O10   H21   1.013888 S    
C4    C6    1.430178 S    
C20   C22   1.403691 A    
O4    C2    1.310157 A    
C7    C17   1.394943 A    
C25   C37   1.517756 S    
C31   C32   1.529888 S    
C29   C30   1.526948 S    
C7    C9    1.398142 A    
O7    Cu2   1.954515 S    
C13   C33   1.484874 S    
O7    C3    1.287558 A    
C9    C29   1.516411 S    
O6    C4    1.293527 A    
C17   C18   1.460843 S    
C40   H32   1.110418 S    
C23   H9    1.078853 S    
C37   H29   1.112011 S    
O3    Cu2   1.957455 S    
O8    C4    1.284775 A    
Cu2   N1    2.019306 S    
C1    C11   1.462258 S    
C10   C31   1.524481 S    
C8    H4    1.084370 S    
C38   H25   1.111171 S    
C38   H26   1.108413 S    
O1    Cu1   1.961346 S    
C33   O9    1.224075 D    
C20   H8    1.083552 S    
C20   C28   1.394044 A    
C30   H11   1.109059 S    
C31   H19   1.112164 S    
C5    H1    1.081277 S    
C39   H33   1.106541 S    
C32   H18   1.110814 S    
O6    Cu2   1.959631 S    
C7    H3    1.084300 S    
O3    C1    1.295029 A    
O8    Cu1   1.954513 S    
C11   C13   1.418452 A    
C38   H27   1.110743 S    
C12   C14   1.426025 A    
C14   C16   1.395165 A    
O12   H22   1.010893 S    
C15   H5    1.084783 S    
C16   H6    1.084842 S    
C2    C12   1.492455 S    
C22   N2    1.381376 A    
C21   C35   1.480890 S    
C34   O11   1.223427 D    
O2    Cu2   1.961348 S    
O16   H24   1.014000 S    
O5    Cu1   1.959633 S    
C9    C11   1.420632 A    
C39   C40   1.531414 S    
C21   N1    1.385223 A    
C6    H2    1.087579 S    
C27   C28   1.514638 S    
C22   C36   1.470007 S    
C40   H30   1.109145 S    
C23   C25   1.422384 A    
C24   C26   1.425281 A    
