data_mof_unit_47974.cif
_audit_creation_date              2013-03-05T15:54:37-0500
_audit_creation_method            fapswitch 2.2
_symmetry_space_group_name_H-M    P1
_symmetry_Int_Tables_number       1
_space_group_crystal_system       triclinic
_cell_length_a                    14.032178
_cell_length_b                    14.054159
_cell_length_c                    30.061983
_cell_angle_alpha                 97.039969
_cell_angle_beta                  97.028135
_cell_angle_gamma                 61.346915
_cell_volume                      5149.5205424

loop_
_atom_site_label
_atom_site_type_symbol
_atom_site_description
_atom_site_fract_x
_atom_site_fract_y
_atom_site_fract_z
_atom_type_partial_charge
O1    O     O_R   0.688580 0.499770 0.460490 -0.550311
O2    O     O_R   0.480400 0.672610 0.462660 -0.538879
C1    C     C_R   0.386024 0.710255 0.441965 0.764893
O3    O     O_R   0.315310 0.685650 0.451800 -0.548584
O4    O     O_R   0.346220 0.474990 0.446280 -0.535092
C2    C     C_R   0.398834 0.381178 0.426485 0.796708
O5    O     O_R   0.492270 0.312460 0.441630 -0.545276
O6    O     O_R   0.669740 0.350480 0.455640 -0.539517
C3    C     C_R   0.709083 0.406118 0.442079 0.773042
O7    O     O_R   0.691150 0.501150 0.557860 -0.545182
O8    O     O_R   0.482790 0.673890 0.552920 -0.537328
C4    C     C_R   0.389729 0.711482 0.568241 0.814061
O9    O     O_R   0.317880 0.687030 0.549170 -0.517776
O10   O     O_R   0.348600 0.476260 0.536540 -0.499795
C5    C     C_R   0.402028 0.383341 0.552537 0.911930
O11   O     O_R   0.494840 0.313840 0.539010 -0.505683
O12   O     O_R   0.672120 0.351750 0.545910 -0.526670
C6    C     C_R   0.713048 0.407784 0.568498 0.802916
Cr1   Cr    Cr6+3 0.581000 0.584320 0.508140 0.942233
Cr2   Cr    Cr6+3 0.339110 0.576430 0.496080 0.997127
Cr3   Cr    Cr6+3 0.579910 0.339270 0.495810 0.978761
O13   O     O_3   0.500010 0.500010 0.500010 -0.347221
C7    C     C_1   0.365769 0.363938 0.380801 -0.155950
C8    C     C_R   0.263787 0.435150 0.270019 -0.191545
C9    C     C_R   0.254948 0.429505 0.223141 -0.162667
C10   C     C_R   0.384589 0.237484 0.221582 -0.184365
C11   C     C_R   0.394530 0.241991 0.268649 0.091240
C12   C     C_R   0.332627 0.342036 0.292912 0.118479
C13   C     C_R   0.315826 0.330775 0.198989 0.122991
C14   C     C_1   0.302839 0.321241 0.150945 -0.054835
C15   C     C_1   0.346599 0.353081 0.341030 -0.067405
C16   C     C_1   0.291405 0.303806 0.111077 -0.173363
H1    H     H_    0.217658 0.512512 0.288495 0.128335
H2    H     H_    0.200557 0.501731 0.205802 0.120567
H3    H     H_    0.430609 0.161149 0.202457 0.123722
H4    H     H_    0.858965 0.459573 0.102675 0.135236
H5    H     H_    0.800782 0.475832 0.177909 0.109081
H6    H     H_    0.776490 0.515855 0.397108 0.135401
C17   C     C_R   0.759824 0.371317 0.398885 -0.063308
C18   C     C_R   0.767540 0.276466 0.374316 -0.174676
C19   C     C_R   0.787660 0.258062 0.329039 -0.175421
C20   C     C_R   0.800453 0.333897 0.307862 0.113077
C21   C     C_R   0.801273 0.425491 0.332770 0.107644
C22   C     C_R   0.781576 0.442808 0.378375 -0.188235
C23   C     C_R   0.821371 0.401165 0.156901 -0.135990
C24   C     C_R   0.854546 0.391673 0.114035 -0.166491
C25   C     C_R   0.882589 0.206169 0.103651 -0.165182
C26   C     C_R   0.849587 0.215864 0.146588 -0.139979
C27   C     C_R   0.822689 0.312043 0.173668 0.134919
C28   C     C_1   0.810818 0.315291 0.220340 -0.061267
C29   C     C_1   0.805589 0.320988 0.260127 -0.061561
C30   C     C_R   0.889976 0.292460 0.087797 -0.045707
H7    H     H_    0.751215 0.219895 0.389242 0.143912
H8    H     H_    0.851007 0.146510 0.159534 0.110754
H9    H     H_    0.909143 0.128767 0.084187 0.134392
H10   H     H_    0.787959 0.187272 0.309998 0.121471
H11   H     H_    0.189515 0.827742 0.168188 0.113026
H12   H     H_    0.176568 0.856924 0.312563 0.110873
H13   H     H_    0.197318 0.799046 0.388229 0.137436
C31   C     C_R   0.364682 0.769124 0.401499 -0.043686
C32   C     C_R   0.449724 0.776604 0.384436 -0.162626
C33   C     C_R   0.437416 0.809540 0.341246 -0.141355
C34   C     C_R   0.339915 0.836121 0.314972 0.131472
C35   C     C_R   0.252254 0.836643 0.332836 -0.136996
C36   C     C_R   0.264341 0.803627 0.375981 -0.163818
C37   C     C_R   0.245956 0.844457 0.153274 -0.152843
C38   C     C_R   0.239915 0.848786 0.106591 0.070970
C39   C     C_R   0.398200 0.880544 0.115761 0.080468
C40   C     C_R   0.405854 0.869116 0.161913 -0.154828
C41   C     C_R   0.325887 0.858946 0.180822 0.067006
C42   C     C_1   0.330524 0.854965 0.228405 -0.041523
C43   C     C_1   0.334308 0.849243 0.268143 -0.063130
C44   C     C_R   0.305226 0.885393 0.088651 -0.131199
H14   H     H_    0.528014 0.750516 0.403227 0.136027
H15   H     H_    0.474270 0.867941 0.183277 0.121544
H16   H     H_    0.505774 0.808638 0.327512 0.108932
H17   H     H_    0.134891 0.443207 0.894030 0.153748
H18   H     H_    0.151881 0.476732 0.818237 0.138656
H19   H     H_    0.197321 0.515390 0.676251 0.174928
C45   C     C_R   0.364371 0.365085 0.592933 -0.393095
C46   C     C_R   0.425651 0.266933 0.614116 0.475037
C47   C     C_R   0.406935 0.260440 0.657883 0.594862
C48   C     C_R   0.326850 0.351112 0.680587 -0.193599
C49   C     C_R   0.259665 0.445272 0.658691 -0.338663
C50   C     C_R   0.277029 0.452384 0.614943 0.572157
C51   C     C_R   0.220614 0.412504 0.835571 -0.243760
C52   C     C_R   0.211440 0.393448 0.878833 -0.158460
C53   C     C_R   0.395169 0.242639 0.879687 -0.234784
C54   C     C_R   0.404180 0.261775 0.836428 0.689470
C55   C     C_R   0.315258 0.343997 0.813832 -0.027804
C56   C     C_1   0.316936 0.350108 0.767006 0.048807
C57   C     C_1   0.319782 0.351164 0.727464 0.143838
C58   C     C_R   0.296828 0.305009 0.900375 -0.139362
H20   H     H_    0.462477 0.174545 0.895652 0.177306
C59   C     C_1   0.762983 0.376300 0.612352 -0.151227
C60   C     C_R   0.860588 0.400803 0.726700 0.098695
C61   C     C_R   0.877183 0.385759 0.773095 -0.247000
C62   C     C_R   0.818652 0.247265 0.761166 0.656013
C63   C     C_R   0.801709 0.261080 0.715172 -0.241556
C64   C     C_R   0.822076 0.337253 0.697822 -0.003072
C65   C     C_R   0.855541 0.310287 0.790191 -0.037357
C66   C     C_1   0.878307 0.294585 0.837446 0.067027
C67   C     C_1   0.794127 0.355566 0.650789 -0.023180
C68   C     C_1   0.905821 0.282773 0.876763 -0.136014
H21   H     H_    0.906989 0.432053 0.796490 0.143855
H22   H     H_    0.771291 0.213155 0.693039 0.180074
C69   C     C_1   0.376012 0.757826 0.613563 -0.149967
C70   C     C_R   0.256545 0.823739 0.717603 0.072053
C71   C     C_R   0.247626 0.840751 0.764363 -0.257882
C72   C     C_R   0.427470 0.827225 0.776974 0.619330
C73   C     C_R   0.439511 0.809610 0.730434 -0.038272
C74   C     C_R   0.353097 0.809113 0.700689 0.001944
C75   C     C_R   0.332077 0.842428 0.793670 -0.042617
C76   C     C_1   0.315419 0.869588 0.840783 0.072186
C77   C     C_1   0.365847 0.785329 0.652954 -0.036084
C78   C     C_1   0.294895 0.900600 0.879271 -0.137289
H23   H     H_    0.174800 0.854036 0.778675 0.153917
O14   O     O_R   0.167510 0.972920 0.030390 -0.552945
O15   O     O_R   0.990840 0.178580 0.027590 -0.536884
C79   C     C_R   0.950117 0.273108 0.047990 0.775539
O16   O     O_R   0.972840 0.345510 0.038590 -0.548670
O17   O     O_R   0.181550 0.320660 0.045200 -0.532633
C80   C     C_R   0.275512 0.270313 0.065319 0.797478
O18   O     O_R   0.346150 0.177650 0.050510 -0.559768
O19   O     O_R   0.314200 0.996600 0.036060 -0.536426
C81   C     C_R   0.263042 0.949877 0.047988 0.755041
O20   O     O_R   0.168690 0.969990 0.933130 -0.543123
O21   O     O_R   0.991920 0.175870 0.937430 -0.524609
C82   C     C_R   0.952155 0.269185 0.922115 0.800387
O22   O     O_R   0.974010 0.342590 0.941330 -0.547803
O23   O     O_R   0.182630 0.317940 0.955040 -0.540352
C83   C     C_R   0.276735 0.266644 0.939802 0.808507
O24   O     O_R   0.347320 0.174720 0.953250 -0.543520
O25   O     O_R   0.315290 0.993890 0.945900 -0.526327
C84   C     C_R   0.261799 0.950471 0.923011 0.795294
Cr4   Cr    Cr6+3 0.082090 0.079210 0.982490 0.949193
Cr5   Cr    Cr6+3 0.082460 0.324610 0.994920 0.935659
Cr6   Cr    Cr6+3 0.323630 0.087860 0.996130 0.934624
O26   O     O_3   0.162730 0.163890 0.991180 -0.330609
C85   C     C_3   0.166231 0.810862 0.077385 -0.336756
C86   C     C_3   0.193798 0.694419 0.086130 -0.334415
C87   C     C_3   0.126708 0.653193 0.053722 -0.752787
H24   H     H_    0.038391 0.706869 0.057432 0.228656
H25   H     H_    0.144488 0.650765 0.018472 0.228174
H26   H     H_    0.147652 0.569664 0.061261 0.222696
H27   H     H_    0.281697 0.638923 0.081942 0.204731
H28   H     H_    0.176966 0.691403 0.120930 0.193961
H29   H     H_    0.079985 0.867730 0.084040 0.175291
H30   H     H_    0.176192 0.808742 0.041232 0.199713
C88   C     C_3   0.494590 0.877977 0.096625 -0.342472
C89   C     C_3   0.501619 0.984480 0.108273 -0.222814
C90   C     C_3   0.588709 0.975018 0.145960 -0.820257
H31   H     H_    0.568392 0.960171 0.178028 0.222786
H32   H     H_    0.669577 0.908059 0.137037 0.230521
H33   H     H_    0.593690 0.052170 0.150984 0.222046
H34   H     H_    0.522988 0.006003 0.077932 0.203060
H35   H     H_    0.421781 0.052325 0.117927 0.209418
H36   H     H_    0.570472 0.807485 0.109112 0.168394
H37   H     H_    0.491781 0.860131 0.059634 0.154977
F1    F     F_    0.212994 0.547757 0.595767 -0.660270
F2    F     F_    0.507708 0.179434 0.593723 -0.624482
F3    F     F_    0.496738 0.195556 0.815538 -0.626963
F4    F     F_    0.471067 0.167967 0.679039 -0.638591
C91   C     C_3   0.881377 0.483544 0.706983 -0.322344
C92   C     C_3   0.929740 0.543939 0.740275 -0.330141
C93   C     C_3   0.950302 0.621495 0.716466 -0.755955
H38   H     H_    0.008165 0.575989 0.690100 0.233832
H39   H     H_    0.872813 0.683360 0.700676 0.232891
H40   H     H_    0.985695 0.663604 0.741175 0.222908
H41   H     H_    0.872323 0.592094 0.766614 0.210703
H42   H     H_    0.008440 0.484327 0.756321 0.194917
H43   H     H_    0.938380 0.440219 0.680035 0.183636
H44   H     H_    0.803008 0.544625 0.691222 0.177182
F5    F     F_    0.799039 0.172697 0.777295 -0.642307
C94   C     C_3   0.165914 0.819731 0.684932 -0.315432
C95   C     C_3   0.063354 0.838286 0.706025 -0.340647
C96   C     C_3   0.978973 0.832730 0.670081 -0.689338
H45   H     H_    0.954836 0.895483 0.645847 0.238069
H46   H     H_    0.012447 0.751024 0.651726 0.249273
H47   H     H_    0.905353 0.847882 0.686185 0.226525
H48   H     H_    0.085245 0.774756 0.729665 0.196164
H49   H     H_    0.026178 0.919809 0.724547 0.224636
H50   H     H_    0.141094 0.882572 0.660606 0.184230
H51   H     H_    0.199857 0.738771 0.665849 0.215268
F6    F     F_    0.507616 0.831736 0.806083 -0.675402
C97   C     C_3   0.544855 0.790784 0.713165 -0.354713
C98   C     C_3   0.531216 0.894043 0.694786 -0.235822
C99   C     C_3   0.638261 0.876796 0.679213 -0.656685
H52   H     H_    0.700279 0.859373 0.708083 0.226545
H53   H     H_    0.668795 0.808110 0.653036 0.204889
H54   H     H_    0.625350 0.951438 0.664758 0.287780
H55   H     H_    0.468852 0.917584 0.665934 0.204824
H56   H     H_    0.503543 0.961939 0.721442 0.258848
H57   H     H_    0.611463 0.765351 0.740408 0.232161
H58   H     H_    0.571537 0.722590 0.686640 0.169986
C100  C     C_3   0.473099 0.140447 0.291936 -0.365392
C101  C     C_3   0.582388 0.139818 0.305518 -0.295362
C102  C     C_3   0.662117 0.038074 0.329281 -0.767142
H59   H     H_    0.628539 0.034509 0.360290 0.238797
H60   H     H_    0.678329 0.963975 0.306677 0.224900
H61   H     H_    0.740220 0.040010 0.338762 0.212422
H62   H     H_    0.618515 0.142388 0.275035 0.192876
H63   H     H_    0.570084 0.212513 0.328433 0.209113
H64   H     H_    0.437308 0.135135 0.321964 0.184498
H65   H     H_    0.487192 0.066932 0.269176 0.167568
C103  C     C_3   0.815047 0.509242 0.310814 -0.379918
C104  C     C_3   0.933428 0.466192 0.299919 -0.283904
C105  C     C_3   0.945411 0.548592 0.275611 -0.771970
H66   H     H_    0.893036 0.566218 0.243675 0.224537
H67   H     H_    0.922367 0.625325 0.297196 0.227269
H68   H     H_    0.031260 0.514905 0.267598 0.224970
H69   H     H_    0.986935 0.449382 0.331594 0.198768
H70   H     H_    0.961180 0.389217 0.278199 0.204945
H71   H     H_    0.759756 0.532322 0.279720 0.178405
H72   H     H_    0.790780 0.584908 0.333333 0.169226

loop_
_geom_bond_atom_site_label_1
_geom_bond_atom_site_label_2
_geom_bond_distance
_ccdc_geom_bond_type
C103  H72   1.112555 S    
C92   H42   1.111552 S    
C72   F6    1.359595 S    
C65   C66   1.437691 S    
C45   C46   1.411229 A    
C10   C13   1.398596 A    
C19   C20   1.396853 A    
C73   C74   1.418169 A    
C16   C80   1.424936 S    
C104  H70   1.110579 S    
H11   C37   1.083790 S    
O21   C82   1.275386 A    
C85   H29   1.111704 S    
C45   C50   1.415127 A    
C46   C47   1.394778 A    
C71   H23   1.081302 S    
C80   O18   1.266728 A    
C78   C84   1.430822 S    
C37   C41   1.391275 A    
C23   C24   1.392930 A    
C26   H8    1.083694 S    
C48   C57   1.424632 S    
Cr5   O26   1.977942 S    
O8    Cr1   1.915965 S    
C10   C11   1.401328 A    
C92   C93   1.525454 S    
O19   C81   1.283690 A    
C60   C64   1.414696 A    
C99   H54   1.110105 S    
C89   H35   1.111660 S    
O18   Cr6   2.028577 S    
C91   C92   1.536426 S    
O20   C84   1.268024 A    
C82   O22   1.267265 A    
C40   C41   1.390154 A    
O21   Cr4   1.914304 S    
O4    C2    1.272473 A    
C62   F5    1.357549 S    
C47   F4    1.358047 S    
C44   C81   1.498663 S    
C5    O11   1.275878 A    
C70   C94   1.527955 S    
C24   C30   1.405389 A    
C3    C17   1.472694 S    
C70   C71   1.407401 A    
C9    C13   1.396552 A    
C99   H53   1.110999 S    
O16   Cr5   2.035231 S    
C100  H65   1.112929 S    
C72   C73   1.407173 A    
C49   C50   1.390323 A    
C48   C49   1.392299 A    
C83   O24   1.271376 A    
C96   H46   1.111097 S    
C89   C90   1.528701 S    
H4    C24   1.083006 S    
C102  H59   1.111342 S    
C38   C44   1.427106 A    
C50   F1    1.357933 S    
C100  H64   1.111816 S    
C58   C83   1.469436 S    
C71   C75   1.395444 A    
C9    H2    1.083500 S    
C61   H21   1.081538 S    
C1    C31   1.474444 S    
C103  H71   1.111956 S    
C37   C38   1.402586 A    
O24   Cr6   2.035225 S    
Cr3   O13   1.977900 S    
C98   H56   1.112127 S    
C21   C103  1.516006 S    
C93   H39   1.109858 S    
C6    C59   1.429828 S    
C87   H26   1.110802 S    
C33   H16   1.083816 S    
C101  C102  1.525557 S    
Cr4   O26   1.976849 S    
C59   C67   1.203277 T    
C40   H15   1.082095 S    
C28   C29   1.197798 T    
C2    O5    1.267436 A    
H12   C35   1.083725 S    
C95   H48   1.111628 S    
C53   H20   1.083091 S    
O1    Cr1   2.033329 S    
C88   H37   1.109693 S    
C104  C105  1.525657 S    
C25   C26   1.393479 A    
O10   Cr2   1.918164 S    
C97   H58   1.111832 S    
C91   H44   1.112474 S    
Cr1   O13   1.976800 S    
O1    C3    1.272297 A    
O20   Cr4   2.031950 S    
C51   C55   1.396318 A    
C105  H66   1.110959 S    
C17   C18   1.405012 A    
O4    Cr2   1.913291 S    
C85   C86   1.539596 S    
C103  C104  1.534105 S    
C39   C40   1.401386 A    
C39   C44   1.427937 A    
O5    Cr3   2.027551 S    
C47   C48   1.397761 A    
C64   C67   1.440815 S    
O12   Cr3   1.910317 S    
C70   C74   1.418533 A    
C31   C32   1.407658 A    
C7    C15   1.200445 T    
C95   H49   1.111933 S    
C21   C22   1.400574 A    
C19   H10   1.083733 S    
H6    C22   1.083528 S    
C33   C34   1.397490 A    
O23   Cr5   1.918402 S    
C8    H1    1.083799 S    
C5    C45   1.477562 S    
C90   H33   1.110581 S    
C23   C27   1.397678 A    
O7    Cr1   2.029696 S    
O8    C4    1.273746 A    
C96   H47   1.110427 S    
C60   C61   1.410595 A    
C102  H61   1.110554 S    
O12   C6    1.272135 A    
O6    C3    1.276573 A    
C101  H62   1.112359 S    
C89   H34   1.111256 S    
C8    C9    1.395305 A    
O15   C79   1.274989 A    
C66   C68   1.203585 T    
C38   C85   1.521715 S    
C72   C75   1.397550 A    
C69   C77   1.203452 T    
C98   H55   1.111070 S    
C41   C42   1.430672 S    
C86   H27   1.112140 S    
C96   H45   1.110827 S    
C30   C79   1.471528 S    
C18   C19   1.391746 A    
Cr2   O13   1.976199 S    
C31   C36   1.406485 A    
C27   C28   1.425698 S    
C68   C82   1.430320 S    
C93   H38   1.109836 S    
O19   Cr6   1.918969 S    
C87   H25   1.110864 S    
C91   H43   1.112406 S    
C20   C21   1.411993 A    
C17   C22   1.405301 A    
H5    C23   1.083947 S    
C1    O3    1.271810 A    
C54   F3    1.358134 S    
C56   C57   1.196411 T    
O14   Cr4   2.032111 S    
C79   O16   1.273026 A    
C90   H31   1.108058 S    
C25   H9    1.083122 S    
C75   C76   1.438495 S    
C92   H41   1.111733 S    
C63   H22   1.083934 S    
C53   C58   1.405625 A    
C95   C96   1.526612 S    
C73   C97   1.517776 S    
C88   H36   1.112596 S    
O9    Cr2   2.028850 S    
O2    Cr1   1.914529 S    
C51   C52   1.392532 A    
C94   H50   1.112241 S    
C46   F2    1.357904 S    
C97   H57   1.111815 S    
C12   C15   1.435174 S    
C8    C12   1.401805 A    
O17   Cr5   1.911374 S    
C90   H32   1.110733 S    
C100  C101  1.534033 S    
O6    Cr3   1.918742 S    
O25   Cr6   1.911580 S    
C4    C69   1.429684 S    
C76   C78   1.203812 T    
C104  H69   1.111902 S    
C18   H7    1.083135 S    
O11   Cr3   2.035077 S    
O17   C80   1.272774 A    
C25   C30   1.408177 A    
C32   H14   1.083061 S    
C62   C65   1.397691 A    
C20   C29   1.430500 S    
O25   C84   1.272461 A    
O15   Cr4   1.916734 S    
C88   C89   1.541893 S    
C63   C64   1.402318 A    
C35   C36   1.394479 A    
O2    C1    1.275883 A    
C54   C55   1.398537 A    
C98   C99   1.526185 S    
C94   C95   1.537548 S    
C86   C87   1.526894 S    
H13   C36   1.082973 S    
C14   C16   1.200349 T    
H18   C51   1.083487 S    
C55   C56   1.424489 S    
H19   C49   1.083431 S    
O7    C6    1.269106 A    
C105  H68   1.108799 S    
C26   C27   1.395886 A    
C2    C7    1.424907 S    
C52   C58   1.406802 A    
C34   C43   1.429919 S    
C101  H63   1.111573 S    
C32   C33   1.394876 A    
C39   C88   1.516650 S    
Cr6   O26   1.976007 S    
C86   H28   1.110394 S    
C13   C14   1.431327 S    
C34   C35   1.397692 A    
O3    Cr2   2.034734 S    
C60   C91   1.524875 S    
C10   H3    1.083421 S    
C42   C43   1.200135 T    
C53   C54   1.392116 A    
H17   C52   1.083041 S    
C93   H40   1.110184 S    
C105  H67   1.110850 S    
C62   C63   1.395381 A    
C11   C12   1.412744 A    
C87   H24   1.110842 S    
O10   C5    1.274955 A    
C99   H52   1.110617 S    
C102  H60   1.111385 S    
C11   C100  1.513055 S    
O14   C81   1.278231 A    
C4    O9    1.267187 A    
C97   C98   1.533700 S    
O22   Cr5   2.026363 S    
C85   H30   1.107663 S    
C74   C77   1.445993 S    
C61   C65   1.400770 A    
O23   C83   1.275701 A    
C94   H51   1.112534 S    
