data_mof_unit_30704.cif
_audit_creation_date              2012-12-10T18:58:10-0500
_audit_creation_method            fapswitch 2.2
_symmetry_space_group_name_H-M    P1
_symmetry_Int_Tables_number       1
_space_group_crystal_system       triclinic
_cell_length_a                    11.076426
_cell_length_b                    10.854208
_cell_length_c                    9.595323
_cell_angle_alpha                 90.728527
_cell_angle_beta                  103.090095
_cell_angle_gamma                 91.370043
_cell_volume                      1123.11346271

loop_
_atom_site_label
_atom_site_type_symbol
_atom_type_description
_atom_site_fract_x
_atom_site_fract_y
_atom_site_fract_z
_atom_type_partial_charge
C1    C     C_R   0.495752 0.262600 0.498330 0.808190
C2    C     C_R   0.480432 0.129608 0.494320 -0.188130
C3    C     C_R   0.457851 0.062985 0.364243 -0.285676
C4    C     C_R   0.458780 0.934298 0.364072 0.606625
C5    C     C_R   0.482550 0.871063 0.495157 -0.221586
C6    C     C_R   0.486011 0.938856 0.620769 -0.000652
C7    C     C_3   0.577590 0.938575 0.761254 -0.319443
C8    C     C_3   0.574832 0.078464 0.761699 -0.083800
C9    C     C_R   0.607027 0.520041 0.101644 0.057769
C10   C     C_R   0.399526 0.453608 0.044770 0.227458
C11   C     C_R   0.398236 0.463493 0.896475 -0.015048
C12   C     C_R   0.262777 0.500392 0.441913 0.877839
C13   C     C_R   0.608336 0.514419 0.955539 0.116820
C14   C     C_3   0.702313 0.617440 0.975625 1.070357
C15   C     C_3   0.695302 0.627630 0.131746 -0.512648
C16   C     C_R   0.496922 0.737778 0.499484 0.852421
C17   C     C_R   0.736927 0.499804 0.558435 0.845877
C18   C     C_2   0.127350 0.496255 0.410686 -0.448262
C19   C     C_2   0.066822 0.509225 0.516439 0.648169
C20   C     C_2   0.871746 0.504315 0.591854 -0.256510
C21   C     C_2   0.932565 0.493374 0.486843 -0.292386
C22   C     C_R   0.483922 0.065856 0.620460 0.064571
Cu1   Cu    Cu3+1 0.499990 0.499980 0.640670 1.021161
Cu2   Cu    Cu3+1 0.500010 0.500020 0.359330 0.972667
H1    H     H_    0.883009 0.472656 0.377556 0.153041
H2    H     H_    0.663826 0.123867 0.752445 0.171637
H3    H     H_    0.316957 0.436433 0.816406 0.209800
H4    H     H_    0.783793 0.606360 0.206793 0.182143
H5    H     H_    0.650628 0.712767 0.158339 0.228536
H6    H     H_    0.921060 0.520449 0.702319 0.240189
H7    H     H_    0.076569 0.478079 0.301126 0.124213
H8    H     H_    0.445140 0.109950 0.263318 0.185033
H9    H     H_    0.536590 0.895776 0.845135 0.262841
H10   H     H_    0.668887 0.903495 0.751560 0.222780
N1    N     N_R   0.500780 0.500930 0.148120 -0.176908
N2    N     N_R   0.500790 0.500890 0.852210 -0.220124
O1    O     O_R   0.500000 0.319640 0.618810 -0.601529
O2    O     O_R   0.500010 0.319680 0.381230 -0.611381
O3    O     O_R   0.320680 0.500000 0.575130 -0.529081
O4    O     O_R   0.320690 0.500040 0.337550 -0.615919
O5    O     O_R   0.499990 0.680320 0.618770 -0.526699
O6    O     O_R   0.500000 0.680360 0.381190 -0.518538
O7    O     O_R   0.679310 0.499960 0.662450 -0.540831
O8    O     O_R   0.679320 0.500000 0.424870 -0.582912
C23   C     C_3   0.290186 0.385950 0.083717 -0.357951
C24   C     C_3   0.224133 0.286594 0.976350 -0.920573
H11   H     H_    0.165175 0.328588 0.880522 0.282283
H12   H     H_    0.292148 0.225482 0.944195 0.250748
H13   H     H_    0.162027 0.229231 0.026873 0.265737
H14   H     H_    0.323787 0.335186 0.183284 0.246776
H15   H     H_    0.219793 0.453785 0.096335 0.244412
F1    F     F_    0.816328 0.579489 0.957649 -0.677947
F2    F     F_    0.661174 0.719118 0.897517 -0.690857
F3    F     F_    0.128089 0.538759 0.653108 -0.659751
F4    F     F_    0.442767 0.873491 0.236379 -0.650663
C25   C     C_3   0.518434 0.133698 0.880308 -0.355261
C26   C     C_3   0.613302 0.141794 0.022950 -0.792238
H16   H     H_    0.641631 0.048134 0.060245 0.278129
H17   H     H_    0.696356 0.196923 0.012040 0.248266
H18   H     H_    0.571916 0.187924 0.104221 0.240621
H19   H     H_    0.487282 0.227968 0.851210 0.225888
H20   H     H_    0.436198 0.077936 0.893038 0.220305

loop_
_geom_bond_atom_site_label_1
_geom_bond_atom_site_label_2
_ccdc_geom_bond_type
C2    C22   A    
C23   C24   S    
C8    C22   S    
Cu1   Cu2   S    
C17   O7    A    
C12   O4    A    
C6    C7    S    
Cu1   N2    S    
C1    O1    A    
Cu2   O6    S    
Cu2   O2    S    
Cu1   O5    S    
C11   H3    S    
C8    C25   S    
C10   C23   S    
C2    C3    A    
C26   H16   S    
C17   O8    A    
C7    C8    S    
C20   H6    S    
C13   C14   S    
C20   C21   D    
C7    H9    S    
C24   H13   S    
C15   H4    S    
C5    C6    A    
C23   H14   S    
C12   O3    A    
C8    H2    S    
Cu1   O3    S    
C1    O2    A    
C19   F3    S    
C11   N2    A    
C19   C21   S    
Cu1   O1    S    
C15   H5    S    
C25   H20   S    
C4    F4    S    
C9    C15   S    
C3    H8    S    
Cu2   O8    S    
C7    H10   S    
C24   H12   S    
C26   H17   S    
Cu2   N1    S    
C10   C11   A    
C23   H15   S    
C3    C4    A    
C6    C22   A    
C16   O6    A    
C17   C20   S    
Cu1   O7    S    
C25   C26   S    
C10   N1    A    
C13   N2    A    
C1    C2    S    
C24   H11   S    
C12   C18   S    
C9    N1    A    
C9    C13   A    
C25   H19   S    
C18   C19   D    
C26   H18   S    
C21   H1    S    
C18   H7    S    
Cu2   O4    S    
C14   C15   S    
C14   F2    S    
C16   O5    A    
C14   F1    S    
C4    C5    A    
C5    C16   S    
