data_mof_unit_62991.cif
_audit_creation_date              2012-12-11T17:26:01-0500
_audit_creation_method            fapswitch 2.2
_symmetry_space_group_name_H-M    P1
_symmetry_Int_Tables_number       1
_space_group_crystal_system       triclinic
_cell_length_a                    22.697844
_cell_length_b                    22.702246
_cell_length_c                    23.574711
_cell_angle_alpha                 90.53588
_cell_angle_beta                  90.036848
_cell_angle_gamma                 90.035685
_cell_volume                      12147.3246458

loop_
_atom_site_label
_atom_site_type_symbol
_atom_type_description
_atom_site_fract_x
_atom_site_fract_y
_atom_site_fract_z
_atom_type_partial_charge
C1    C     C_R   0.852134 0.078695 0.419696 0.710472
C2    C     C_R   0.851402 0.920515 0.421111 0.712912
C3    C     C_R   0.150873 0.771214 0.194754 -0.037459
C4    C     C_R   0.750685 0.826863 0.766639 0.026679
C5    C     C_R   0.313186 0.239009 0.339322 -0.041597
C6    C     C_R   0.155745 0.771068 0.798827 0.006400
C7    C     C_R   0.772868 0.303296 0.318648 0.011714
C8    C     C_R   0.697518 0.226338 0.314937 -0.067433
C9    C     C_R   0.233304 0.845665 0.797726 -0.042395
C10   C     C_R   0.234596 0.312812 0.338567 0.006289
C11   C     C_R   0.827435 0.751106 0.766607 -0.054625
C12   C     C_R   0.228098 0.846547 0.198751 0.024998
C13   C     C_R   0.066371 0.865594 0.600959 0.688776
C14   C     C_R   0.773138 0.154028 0.801314 0.028001
C15   C     C_R   0.759888 0.686756 0.343106 0.006189
C16   C     C_R   0.240030 0.315965 0.654957 -0.018634
C17   C     C_R   0.260230 0.259816 0.637200 0.039522
C18   C     C_R   0.739649 0.742903 0.359185 0.054182
C19   C     C_R   0.826235 0.177428 0.780869 0.049279
C20   C     C_R   0.174781 0.823273 0.218847 0.050780
C21   C     C_R   0.799303 0.799387 0.741171 0.048165
C22   C     C_R   0.256301 0.257822 0.355552 0.049639
C23   C     C_R   0.179861 0.823025 0.776935 0.071825
C24   C     C_R   0.921092 0.147687 0.419835 0.723197
C25   C     C_R   0.749701 0.249844 0.337910 0.054086
C26   C     C_R   0.675311 0.676544 0.280894 0.052927
C27   C     C_R   0.323030 0.322147 0.719825 0.062448
C28   C     C_R   0.241257 0.758887 0.140643 0.051830
C29   C     C_R   0.758869 0.242973 0.857195 0.054887
C30   C     C_R   0.319618 0.323754 0.277250 0.053478
C31   C     C_R   0.749399 0.749505 0.836378 0.032345
C32   C     C_R   0.699498 0.302611 0.244077 0.053275
C33   C     C_R   0.244717 0.757580 0.854244 0.066066
C34   C     C_R   0.852198 0.920887 0.580189 0.758940
C35   C     C_R   0.148898 0.080577 0.422999 0.783113
C36   C     C_R   0.935027 0.134690 0.601520 0.695331
C37   C     C_R   0.065148 0.865504 0.398309 0.683095
C38   C     C_R   0.351087 0.580541 0.923020 0.779933
C39   C     C_R   0.647606 0.421163 0.080785 0.740615
C40   C     C_R   0.434266 0.365029 0.898725 0.690863
C41   C     C_R   0.134751 0.934963 0.601108 0.694247
C42   C     C_R   0.565342 0.634932 0.101321 0.702237
C43   C     C_R   0.648539 0.420556 0.921083 0.723695
C44   C     C_R   0.350560 0.580930 0.075722 0.786737
C45   C     C_R   0.578943 0.647710 0.919902 0.709602
C46   C     C_R   0.433182 0.365187 0.100594 0.691746
C47   C     C_R   0.634706 0.566673 0.101116 0.688622
C48   C     C_R   0.365363 0.433922 0.898776 0.692352
C49   C     C_R   0.578990 0.352646 0.080856 0.754251
C50   C     C_R   0.420768 0.648351 0.921127 0.722870
C51   C     C_R   0.364905 0.434578 0.100749 0.686261
C52   C     C_R   0.919156 0.850895 0.423074 0.791280
C53   C     C_R   0.647873 0.578754 0.919793 0.721715
C54   C     C_R   0.419136 0.649599 0.075673 0.778190
C55   C     C_R   0.580693 0.350929 0.922976 0.779766
C56   C     C_1   0.218501 0.218428 0.614511 -0.060778
C57   C     C_1   0.781723 0.784017 0.381415 -0.016970
C58   C     C_1   0.849871 0.153112 0.729542 -0.026536
C59   C     C_1   0.150854 0.847454 0.270218 -0.026228
C60   C     C_1   0.819212 0.819736 0.687739 -0.022956
C61   C     C_1   0.215407 0.216650 0.378959 -0.024926
C62   C     C_1   0.154805 0.847714 0.726854 0.009380
C63   C     C_R   0.080982 0.149637 0.575591 0.781972
C64   C     C_1   0.787517 0.211946 0.368626 -0.022339
C65   C     C_1   0.651550 0.653080 0.229168 -0.023893
C66   C     C_1   0.346972 0.345972 0.771418 0.013591
C67   C     C_1   0.282239 0.717981 0.116364 -0.027444
C68   C     C_1   0.717456 0.284033 0.880329 -0.020314
C69   C     C_1   0.344304 0.347458 0.226438 -0.025199
C70   C     C_1   0.712117 0.711874 0.867939 -0.029824
C71   C     C_1   0.679539 0.322131 0.190293 -0.020727
C72   C     C_1   0.285053 0.716659 0.878632 -0.029027
C73   C     C_1   0.818175 0.819589 0.394868 0.231826
C74   C     C_R   0.134089 0.934413 0.398345 0.693771
C75   C     C_1   0.182351 0.182469 0.601042 0.229269
C76   C     C_1   0.133141 0.865609 0.314904 0.186469
C77   C     C_1   0.867239 0.134983 0.684785 0.186410
C78   C     C_1   0.179871 0.180893 0.393518 0.223252
C79   C     C_1   0.837584 0.838171 0.644121 0.148031
C80   C     C_1   0.821858 0.177656 0.387368 0.212594
C81   C     C_1   0.135972 0.866090 0.683053 0.185859
C82   C     C_1   0.365139 0.364224 0.815957 0.187394
C83   C     C_1   0.633796 0.635444 0.184321 0.182878
C84   C     C_1   0.681412 0.319678 0.894358 0.231889
C85   C     C_R   0.865682 0.066332 0.601418 0.697863
C86   C     C_1   0.318029 0.682214 0.101870 0.228192
C87   C     C_1   0.678047 0.677654 0.887208 0.216228
C88   C     C_1   0.363161 0.365374 0.182433 0.185071
C89   C     C_1   0.320284 0.680879 0.893604 0.223450
C90   C     C_1   0.661387 0.339619 0.146171 0.142156
C91   C     C_R   0.864015 0.135646 0.404282 -0.429169
C92   C     C_R   0.114160 0.887172 0.630499 -0.390563
C93   C     C_R   0.862031 0.862576 0.407307 -0.452930
C94   C     C_R   0.138718 0.138885 0.589428 -0.467160
C95   C     C_R   0.112717 0.886566 0.368459 -0.383392
C96   C     C_R   0.079260 0.148338 0.421040 0.720834
C97   C     C_R   0.887337 0.114043 0.631212 -0.392197
C98   C     C_R   0.137047 0.137497 0.407138 -0.451474
C99   C     C_R   0.864177 0.864463 0.596706 -0.382020
C100  C     C_R   0.362966 0.637497 0.907312 -0.454542
C101  C     C_R   0.635437 0.364947 0.097870 -0.374390
C102  C     C_R   0.386295 0.385726 0.869145 -0.388352
C103  C     C_R   0.613315 0.614519 0.130810 -0.391004
C104  C     C_R   0.637789 0.362642 0.907227 -0.453110
C105  C     C_R   0.361441 0.638779 0.089497 -0.474422
C106  C     C_R   0.636009 0.635707 0.904464 -0.428234
C107  C     C_R   0.920761 0.852394 0.580185 0.744755
C108  C     C_R   0.385155 0.386494 0.129918 -0.384300
C109  C     C_R   0.727284 0.652595 0.304209 -0.034043
C110  C     C_R   0.271591 0.346730 0.697201 -0.012961
C111  C     C_R   0.261593 0.814263 0.159431 -0.064389
C112  C     C_R   0.739157 0.186930 0.839716 -0.064629
C113  C     C_R   0.266572 0.346707 0.299620 -0.038250
C114  C     C_R   0.802205 0.725881 0.815029 0.036019
C115  C     C_R   0.672246 0.253058 0.267670 0.022909
C116  C     C_R   0.266096 0.812577 0.836880 -0.018227
C117  C     C_R   0.188344 0.737980 0.837706 -0.060173
C118  C     C_R   0.149497 0.081010 0.575668 0.781569
C119  C     C_R   0.747521 0.330557 0.271411 -0.044181
C120  C     C_R   0.725316 0.801699 0.814616 -0.059345
C121  C     C_R   0.344465 0.272109 0.299215 0.011708
C122  C     C_R   0.815044 0.263273 0.842052 0.011172
C123  C     C_R   0.185010 0.738707 0.155735 0.009608
C124  C     C_R   0.347171 0.270454 0.696677 -0.012896
C125  C     C_R   0.651574 0.729345 0.302293 0.009784
C126  C     C_R   0.316178 0.239129 0.654417 -0.018193
C127  C     C_R   0.683349 0.762675 0.342471 -0.043680
C128  C     C_R   0.849669 0.230142 0.803985 -0.037480
F1    F     F_    0.797375 0.055951 0.425658 -0.604031
F2    F     F_    0.796966 0.943643 0.428520 -0.590433
F3    F     F_    0.036982 0.815751 0.613641 -0.627093
F4    F     F_    0.943802 0.202501 0.426136 -0.594935
F5    F     F_    0.796835 0.941113 0.571422 -0.569187
F6    F     F_    0.203761 0.060652 0.434999 -0.588062
F7    F     F_    0.967081 0.182866 0.615427 -0.630947
F8    F     F_    0.033416 0.817106 0.384411 -0.635862
F9    F     F_    0.296229 0.560536 0.934937 -0.585858
F10   F     F_    0.703061 0.441240 0.072185 -0.569948
F11   F     F_    0.465703 0.316410 0.885096 -0.631437
F12   F     F_    0.183188 0.966739 0.614633 -0.629625
F13   F     F_    0.533413 0.683150 0.115185 -0.628132
F14   F     F_    0.703010 0.443710 0.928420 -0.581989
F15   F     F_    0.296109 0.559863 0.063340 -0.577885
F16   F     F_    0.556234 0.702504 0.926101 -0.603324
F17   F     F_    0.462267 0.315126 0.113019 -0.621248
F18   F     F_    0.684562 0.537353 0.113980 -0.626649
F19   F     F_    0.316810 0.465195 0.885253 -0.630475
F20   F     F_    0.558711 0.297140 0.072403 -0.569756
F21   F     F_    0.444021 0.702848 0.928139 -0.582719
F22   F     F_    0.316441 0.466278 0.114144 -0.634094
F23   F     F_    0.939112 0.796208 0.435404 -0.582042
F24   F     F_    0.702615 0.556011 0.925730 -0.595470
F25   F     F_    0.439990 0.703932 0.063207 -0.582003
F26   F     F_    0.560668 0.296222 0.935187 -0.589166
F27   F     F_    0.060184 0.203934 0.562966 -0.580600
F28   F     F_    0.182432 0.965903 0.384543 -0.630148
F29   F     F_    0.816088 0.036679 0.614592 -0.621042
F30   F     F_    0.056069 0.202836 0.427990 -0.582213
F31   F     F_    0.941159 0.796990 0.571495 -0.574291
F32   F     F_    0.203900 0.059978 0.563192 -0.585267
H1    H     H_    0.809761 0.627377 0.385147 0.127264
H2    H     H_    0.150746 0.338721 0.322746 0.150872
H3    H     H_    0.911938 0.759048 0.740113 0.138475
H4    H     H_    0.870256 0.711813 0.700924 0.157812
H5    H     H_    0.664633 0.178748 0.379809 0.143299
H6    H     H_    0.702498 0.138773 0.330901 0.154240
H7    H     H_    0.295796 0.892565 0.756261 0.134293
H8    H     H_    0.262042 0.929377 0.810211 0.120656
H9    H     H_    0.106044 0.708655 0.759781 0.146375
H10   H     H_    0.071768 0.745365 0.813202 0.124495
H11   H     H_    0.815663 0.369359 0.359782 0.123153
H12   H     H_    0.843085 0.658068 0.328211 0.148984
H13   H     H_    0.857798 0.330363 0.313466 0.150775
H14   H     H_    0.681665 0.869121 0.730850 0.142757
H15   H     H_    0.725436 0.912187 0.772116 0.129598
H16   H     H_    0.310688 0.163556 0.388077 0.159753
H17   H     H_    0.376264 0.195442 0.382342 0.110221
H18   H     H_    0.926973 0.225587 0.757372 0.152576
H19   H     H_    0.933308 0.253813 0.822394 0.113699
H20   H     H_    0.073987 0.774974 0.242119 0.151713
H21   H     H_    0.066850 0.749027 0.176274 0.111113
H22   H     H_    0.313554 0.165419 0.602035 0.161253
H23   H     H_    0.166342 0.313922 0.603107 0.162674
H24   H     H_    0.379800 0.194327 0.612604 0.109506
H25   H     H_    0.687422 0.839179 0.390904 0.164060
H26   H     H_    0.621003 0.809218 0.384280 0.119539
H27   H     H_    0.432187 0.245473 0.686184 0.118522
H28   H     H_    0.393940 0.205485 0.734189 0.150965
H29   H     H_    0.604222 0.792559 0.262690 0.151554
H30   H     H_    0.566848 0.755170 0.313212 0.119142
H31   H     H_    0.873854 0.313937 0.884998 0.131383
H32   H     H_    0.843649 0.346340 0.827342 0.149002
H33   H     H_    0.125469 0.689618 0.112047 0.124009
H34   H     H_    0.195860 0.379909 0.613894 0.112168
H35   H     H_    0.155801 0.655528 0.168720 0.150570
H36   H     H_    0.679843 0.834800 0.881469 0.144387
H37   H     H_    0.638254 0.797006 0.833711 0.155592
H38   H     H_    0.394114 0.209216 0.260688 0.151749
H39   H     H_    0.429762 0.249008 0.311406 0.109091
H40   H     H_    0.165125 0.683553 0.901392 0.144897
H41   H     H_    0.193290 0.649033 0.843403 0.153258
H42   H     H_    0.754380 0.398039 0.212823 0.160479
H43   H     H_    0.765006 0.417335 0.280535 0.106182
H44   H     H_    0.630447 0.184769 0.229027 0.145456
H45   H     H_    0.290705 0.893175 0.240862 0.147037
H46   H     H_    0.587063 0.226986 0.271384 0.128441
H47   H     H_    0.317692 0.873346 0.876322 0.124376
H48   H     H_    0.350490 0.837285 0.821359 0.130180
H49   H     H_    0.268371 0.422036 0.250459 0.154023
H50   H     H_    0.241770 0.430582 0.315741 0.111113
H51   H     H_    0.840712 0.685214 0.881140 0.131262
H52   H     H_    0.863265 0.658162 0.818509 0.140903
H53   H     H_    0.318821 0.837682 0.097841 0.147481
H54   H     H_    0.350604 0.807263 0.155686 0.153735
H55   H     H_    0.681827 0.164569 0.901588 0.152400
H56   H     H_    0.256727 0.930113 0.188014 0.132852
H57   H     H_    0.650064 0.193157 0.842862 0.151720
H58   H     H_    0.723237 0.575664 0.256214 0.145410
H59   H     H_    0.749991 0.568667 0.321439 0.101228
H60   H     H_    0.206994 0.394170 0.735486 0.151912
H61   H     H_    0.247422 0.431948 0.687460 0.119349
H62   H     H_    0.711168 0.105815 0.759960 0.146129
H63   H     H_    0.745288 0.070453 0.813723 0.124068
H64   H     H_    0.182816 0.372122 0.379556 0.124481
N1    N     N_R   0.900580 0.056480 0.443850 -0.167016
N2    N     N_R   0.900580 0.943520 0.443850 -0.176933
N3    N     N_R   0.056480 0.900580 0.556150 -0.158433
N4    N     N_R   0.943520 0.099420 0.443850 -0.169157
N5    N     N_R   0.900580 0.943520 0.556150 -0.188748
N6    N     N_R   0.099420 0.056480 0.443850 -0.182804
N7    N     N_R   0.943520 0.099420 0.556150 -0.160745
N8    N     N_R   0.056480 0.900580 0.443850 -0.157172
N9    N     N_R   0.400580 0.556480 0.943850 -0.182389
N10   N     N_R   0.599420 0.443520 0.056150 -0.186556
N11   N     N_R   0.443520 0.400580 0.943850 -0.158576
N12   N     N_R   0.099420 0.943520 0.556150 -0.159373
N13   N     N_R   0.556480 0.599420 0.056150 -0.162073
N14   N     N_R   0.599420 0.443520 0.943850 -0.178476
N15   N     N_R   0.400580 0.556480 0.056150 -0.187472
N16   N     N_R   0.556480 0.599420 0.943850 -0.167096
N17   N     N_R   0.443520 0.400580 0.056150 -0.160322
N18   N     N_R   0.599420 0.556480 0.056150 -0.160423
N19   N     N_R   0.400580 0.443520 0.943850 -0.158257
N20   N     N_R   0.556480 0.400580 0.056150 -0.190072
N21   N     N_R   0.443520 0.599420 0.943850 -0.180004
N22   N     N_R   0.400580 0.443520 0.056150 -0.158534
N23   N     N_R   0.943520 0.900580 0.443850 -0.181951
N24   N     N_R   0.599420 0.556480 0.943850 -0.169644
N25   N     N_R   0.443520 0.599420 0.056150 -0.184742
N26   N     N_R   0.556480 0.400580 0.943850 -0.180109
N27   N     N_3   0.816059 0.666679 0.363217 -0.178793
N28   N     N_3   0.185579 0.340560 0.634332 -0.194952
N29   N     N_3   0.250001 0.901143 0.221616 -0.185455
N30   N     N_3   0.751867 0.098710 0.779534 -0.189360
N31   N     N_3   0.177754 0.331974 0.358039 -0.180998
N32   N     N_3   0.879816 0.726103 0.742207 -0.210887
N33   N     N_3   0.672203 0.173024 0.336364 -0.210634
N34   N     N_R   0.056480 0.099420 0.556150 -0.185296
N35   N     N_3   0.255375 0.900329 0.776157 -0.187797
N36   N     N_3   0.099867 0.750164 0.778423 -0.193260
N37   N     N_3   0.825126 0.327038 0.344523 -0.180406
N38   N     N_3   0.725402 0.878430 0.741638 -0.182159
N39   N     N_3   0.338313 0.184687 0.359330 -0.198014
N40   N     N_3   0.906011 0.253186 0.786667 -0.196928
N41   N     N_3   0.094424 0.748206 0.211788 -0.198249
N42   N     N_3   0.340311 0.184437 0.633228 -0.195420
N43   N     N_3   0.659591 0.818240 0.361791 -0.197923
N44   N     N_3   0.401432 0.247994 0.719089 -0.189049
N45   N     N_R   0.099420 0.943520 0.443850 -0.158320
N46   N     N_3   0.596922 0.750896 0.279876 -0.186886
N47   N     N_3   0.834750 0.319776 0.862307 -0.177828
N48   N     N_3   0.164680 0.682882 0.134323 -0.180711
N49   N     N_3   0.672783 0.827195 0.838186 -0.210455
N50   N     N_3   0.400002 0.251527 0.277667 -0.188824
N51   N     N_3   0.165261 0.682829 0.857040 -0.208978
N52   N     N_3   0.773547 0.384149 0.250624 -0.200101
N53   N     N_3   0.620840 0.228093 0.241273 -0.181630
N54   N     N_3   0.322753 0.832368 0.856362 -0.181557
N55   N     N_3   0.242058 0.401800 0.280873 -0.197867
N56   N     N_R   0.900580 0.056480 0.556150 -0.161697
N57   N     N_3   0.826350 0.673640 0.840390 -0.179394
N58   N     N_3   0.317972 0.836432 0.142157 -0.208010
N59   N     N_3   0.682902 0.164675 0.857251 -0.208923
N60   N     N_3   0.750314 0.596257 0.286189 -0.199895
N61   N     N_3   0.249602 0.401232 0.720138 -0.188556
N62   N     N_R   0.056480 0.099420 0.443850 -0.180744
N63   N     N_R   0.943520 0.900580 0.556150 -0.188230
N64   N     N_R   0.099420 0.056480 0.556150 -0.186773
Ni1   Ni    Ni4+2 0.901480 1.000000 0.500000 0.300291
Ni2   Ni    Ni4+2 0.098520 1.000000 0.500000 0.293790
Ni3   Ni    Ni4+2 0.000000 0.901480 0.500000 0.295662
Ni4   Ni    Ni4+2 0.000000 0.098520 0.500000 0.300408
Ni5   Ni    Ni4+2 0.401480 0.500000 0.000000 0.295163
Ni6   Ni    Ni4+2 0.598520 0.500000 0.000000 0.301318
Ni7   Ni    Ni4+2 0.500000 0.401480 0.000000 0.295049
Ni8   Ni    Ni4+2 0.500000 0.598520 0.000000 0.299911

loop_
_geom_bond_atom_site_label_1
_geom_bond_atom_site_label_2
_ccdc_geom_bond_type
C123  N48   S    
H26   N43   S    
C37   N8    A    
C96   F30   S    
C40   F11   S    
C60   C79   T    
C33   C117  A    
H56   N29   S    
C3    N41   S    
C15   C18   A    
H24   N42   S    
C15   C109  A    
C29   C112  A    
C118  F32   S    
H63   N30   S    
C73   C93   S    
N6    Ni2   S    
H34   N28   S    
C42   C103  A    
N1    N4    A    
N8    Ni3   S    
H20   N41   S    
C16   N28   S    
C28   C123  A    
C16   C110  A    
N2    N23   A    
H64   N31   S    
H22   N42   S    
C44   C105  A    
C10   C22   A    
C14   C112  A    
N3    N12   A    
C110  N61   S    
C63   C94   A    
H25   N43   S    
C83   C103  S    
N7    N56   A    
H28   N44   S    
N3    Ni3   S    
N10   Ni6   S    
C79   C99   S    
N13   Ni8   S    
H8    N35   S    
H30   N46   S    
C9    C116  A    
C1    F1    S    
C44   F15   S    
C76   C95   S    
C49   C101  A    
C72   C89   T    
C88   C108  S    
C17   C126  A    
H57   N59   S    
C46   F17   S    
C66   C82   T    
H35   N48   S    
N21   Ni8   S    
H58   N60   S    
N16   Ni8   S    
C48   F19   S    
C5    C121  A    
C19   C128  A    
N2    Ni1   S    
C37   C95   A    
C6    N36   S    
H52   N57   S    
C57   C73   T    
C8    N33   S    
H11   N37   S    
C11   C114  A    
C53   N24   A    
H23   N28   S    
C41   F12   S    
H16   N39   S    
C33   C72   S    
C36   N7    A    
C119  N52   S    
C43   C104  A    
C81   C92   S    
C53   C106  A    
C74   N45   A    
C23   C62   S    
C5    C22   A    
C51   F22   S    
H5    N33   S    
C51   C108  A    
C33   C116  A    
C46   C108  A    
C31   C70   S    
C78   C98   S    
H9    N36   S    
C96   N62   A    
C53   F24   S    
C77   C97   S    
C36   C97   A    
H51   N57   S    
H32   N47   S    
C41   N12   A    
C50   N21   A    
H38   N50   S    
C113  N55   S    
C31   C114  A    
H13   N37   S    
C8    C115  A    
C112  N59   S    
C117  N51   S    
C115  N53   S    
H54   N58   S    
C47   F18   S    
H59   N60   S    
C19   C58   S    
C56   C75   T    
N14   N26   A    
C122  C128  A    
C8    C25   A    
C64   C80   T    
N6    N62   A    
H4    N32   S    
H7    N35   S    
C38   N9    A    
C48   N19   A    
C70   C87   T    
C14   C19   A    
C35   F6    S    
C42   N13   A    
C3    C123  A    
N18   Ni6   S    
C32   C71   S    
H53   N58   S    
H62   N30   S    
C28   C111  A    
C13   F3    S    
C31   C120  A    
C37   F8    S    
C47   C103  A    
C89   C100  S    
C74   F28   S    
C10   N31   S    
C68   C84   T    
C45   F16   S    
C7    C119  A    
H29   N46   S    
C120  N49   S    
C28   C67   S    
C125  C127  A    
C27   C110  A    
C21   C60   S    
C38   C100  A    
C44   N15   A    
C49   F20   S    
C63   N34   A    
H1    N27   S    
C109  N60   S    
C9    C23   A    
C54   F25   S    
C34   F5    S    
C40   N11   A    
H27   N44   S    
H49   N55   S    
C55   C104  A    
C124  N44   S    
N17   N22   A    
H46   N53   S    
C96   C98   A    
H60   N61   S    
C26   C125  A    
N64   Ni2   S    
C71   C90   T    
H48   N54   S    
H6    N33   S    
C90   C101  S    
N17   Ni7   S    
C43   N14   A    
C18   C127  A    
H14   N38   S    
C29   C68   S    
H37   N49   S    
H19   N40   S    
C24   F4    S    
C18   C57   S    
C55   F26   S    
C14   N30   S    
C30   C121  A    
C61   C78   T    
C39   C101  A    
C48   C102  A    
C29   C122  A    
C12   C20   A    
C42   F13   S    
C34   C99   A    
C82   C102  S    
C55   N26   A    
N24   Ni6   S    
C52   C93   A    
N4    Ni4   S    
C20   C59   S    
H61   N61   S    
C69   C88   T    
C17   C56   S    
N11   N19   A    
C11   N32   S    
C10   C113  A    
C127  N43   S    
C122  N47   S    
H41   N51   S    
H47   N54   S    
H21   N41   S    
N13   N18   A    
H42   N52   S    
C58   C77   T    
C62   C81   T    
N1    Ni1   S    
C9    N35   S    
C13   C92   A    
C51   N22   A    
C84   C104  S    
C111  N58   S    
H55   N59   S    
N15   N25   A    
C86   C105  S    
H10   N36   S    
C85   F29   S    
C32   C119  A    
C11   C21   A    
C35   C98   A    
C52   N23   A    
C12   C111  A    
C30   C69   S    
H45   N29   S    
C45   C106  A    
C2    N2    A    
C47   N18   A    
C124  C126  A    
C1    N1    A    
C36   F7    S    
N25   Ni8   S    
C67   C86   T    
C12   N29   S    
C6    C117  A    
C54   C105  A    
N7    Ni4   S    
C26   C65   S    
C118  N64   A    
C74   C95   A    
C2    C93   A    
C4    C120  A    
C107  N63   A    
H50   N55   S    
H2    N31   S    
C43   F14   S    
N10   N20   A    
C13   N3    A    
C39   N10   A    
C107  F31   S    
C27   C124  A    
N20   Ni7   S    
N15   Ni5   S    
N63   Ni3   S    
H43   N52   S    
N19   Ni5   S    
H40   N51   S    
C99   C107  A    
N22   Ni5   S    
H12   N27   S    
N56   Ni1   S    
C7    C25   A    
C121  N50   S    
N62   Ni4   S    
C125  N46   S    
N26   Ni7   S    
C35   N6    A    
C80   C91   S    
N5    Ni1   S    
H17   N39   S    
C45   N16   A    
C63   F27   S    
N45   Ni2   S    
H15   N38   S    
C27   C66   S    
C3    C20   A    
C22   C61   S    
C5    N39   S    
C4    C21   A    
N14   Ni6   S    
C50   F21   S    
N9    N21   A    
C16   C17   A    
C87   C106  S    
C15   N27   S    
H44   N53   S    
C52   F23   S    
C6    C23   A    
C116  N54   S    
C2    F2    S    
C38   F9    S    
N9    Ni5   S    
C7    N37   S    
C26   C109  A    
C128  N40   S    
C32   C115  A    
C114  N57   S    
H3    N32   S    
N11   Ni7   S    
C50   C100  A    
C39   F10   S    
C85   C97   A    
H39   N50   S    
C40   C102  A    
C24   C91   A    
C34   N5    A    
C54   N25   A    
N34   N64   A    
C85   N56   A    
C41   C92   A    
N5    N63   A    
C4    N38   S    
C94   C118  A    
C1    C91   A    
N23   Ni3   S    
N16   N24   A    
H33   N48   S    
H31   N47   S    
N8    N45   A    
C126  N42   S    
C49   N20   A    
H18   N40   S    
C46   N17   A    
C24   N4    A    
N12   Ni2   S    
C59   C76   T    
C25   C64   S    
C65   C83   T    
H36   N49   S    
C75   C94   S    
N34   Ni4   S    
C30   C113  A    
