data_mof_unit_43294.cif
_audit_creation_date              2012-12-11T17:11:30-0500
_audit_creation_method            fapswitch 2.2
_symmetry_space_group_name_H-M    P1
_symmetry_Int_Tables_number       1
_space_group_crystal_system       triclinic
_cell_length_a                    15.030197
_cell_length_b                    6.93774
_cell_length_c                    13.65773
_cell_angle_alpha                 90.005165
_cell_angle_beta                  101.036521
_cell_angle_gamma                 89.993085
_cell_volume                      1397.82848861

loop_
_atom_site_label
_atom_site_type_symbol
_atom_type_description
_atom_site_fract_x
_atom_site_fract_y
_atom_site_fract_z
_atom_type_partial_charge
O1    O     O_R   0.398250 0.605080 0.401520 -0.537880
O2    O     O_R   0.898250 0.394920 0.901520 -0.537930
O3    O     O_R   0.584130 0.932110 0.405450 -0.541793
O4    O     O_R   0.084130 0.067890 0.905450 -0.538346
O5    O     O_R   0.601750 0.105090 0.598480 -0.541057
O6    O     O_R   0.101750 0.894910 0.098480 -0.533265
C1    C     C_R   0.610964 0.763178 0.382573 0.739647
C2    C     C_R   0.110905 0.236821 0.882497 0.754936
O7    O     O_R   0.397870 0.934620 0.389680 -0.524915
O8    O     O_R   0.897870 0.065380 0.889680 -0.543494
O9    O     O_R   0.414160 0.107620 0.582600 -0.530497
O10   O     O_R   0.914160 0.892380 0.082600 -0.549232
C3    C     C_R   0.363941 0.765745 0.362708 0.761025
C4    C     C_R   0.863939 0.234259 0.862709 0.731301
O11   O     O_R   0.585840 0.602550 0.417400 -0.547038
O12   O     O_R   0.085840 0.397450 0.917400 -0.546737
O13   O     O_3   0.505560 0.772440 0.563310 -0.374722
O14   O     O_3   0.005560 0.227560 0.063310 -0.365865
V1    V     V_3+5 0.498970 0.046250 0.488250 1.474730
V2    V     V_3+5 0.998970 0.953750 0.988250 1.423108
O15   O     O_R   0.415870 0.437500 0.594550 -0.547485
O16   O     O_R   0.915870 0.562500 0.094550 -0.533778
C5    C     C_R   0.388369 0.268480 0.616245 0.822476
C6    C     C_R   0.888472 0.731611 0.116396 0.719800
O17   O     O_R   0.602130 0.434980 0.610320 -0.542986
O18   O     O_R   0.102130 0.565020 0.110320 -0.537617
C7    C     C_R   0.635967 0.265912 0.637352 0.717452
C8    C     C_R   0.135963 0.734085 0.137357 0.737368
V3    V     V_3+5 0.501030 0.546580 0.511750 1.444861
V4    V     V_3+5 0.001030 0.453420 0.011750 1.438894
O19   O     O_3   0.494440 0.270520 0.436690 -0.373657
O20   O     O_3   0.994440 0.729480 0.936690 -0.376992
C9    C     C_1   0.716286 0.255186 0.716963 -0.177569
C10   C     C_1   0.216281 0.744811 0.216970 -0.171312
C11   C     C_1   0.783576 0.244956 0.783158 -0.181902
C12   C     C_1   0.283573 0.755050 0.283162 -0.150655
C13   C     C_2   0.256269 0.144625 0.682520 -0.003247
C14   C     C_2   0.757818 0.857316 0.184105 -0.020095
C15   C     C_2   0.332288 0.256782 0.693881 -0.029916
C16   C     C_2   0.833221 0.743882 0.194875 -0.075936
C17   C     C_2   0.209956 0.106511 0.767661 0.109683
C18   C     C_2   0.711368 0.893629 0.269515 0.209637
C19   C     C_2   0.166535 0.252847 0.804444 -0.309964
C20   C     C_2   0.666475 0.747524 0.304409 -0.328877
H1    H     H_    0.169328 0.395362 0.772046 0.114488
H2    H     H_    0.668098 0.606070 0.270504 0.124068
C21   C     C_2   0.214680 0.050483 0.586492 0.317146
H3    H     H_    0.166719 0.933628 0.586825 0.062747
O21   O     O_2   0.229527 0.106640 0.506429 -0.537953
C22   C     C_2   0.718825 0.951351 0.087183 0.363584
H4    H     H_    0.744985 0.920422 0.020190 0.036128
O22   O     O_2   0.655079 0.062818 0.080770 -0.527945
C23   C     C_3   0.369479 0.356858 0.791705 -0.789657
H5    H     H_    0.436928 0.421986 0.791244 0.204691
H6    H     H_    0.323441 0.474451 0.805307 0.212763
H7    H     H_    0.377999 0.251970 0.854236 0.232396
C24   C     C_3   0.870049 0.641557 0.292108 -0.757902
H8    H     H_    0.936845 0.573984 0.290887 0.208529
H9    H     H_    0.879738 0.745609 0.355059 0.214140
H10   H     H_    0.823091 0.525689 0.305561 0.208000
C25   C     C_3   0.211543 0.902724 0.806716 -0.731438
H11   H     H_    0.256442 0.810443 0.770735 0.183564
H12   H     H_    0.238198 0.900730 0.888365 0.211347
H13   H     H_    0.142492 0.839328 0.789891 0.209915
C26   C     C_3   0.715801 0.095142 0.311916 -0.655512
H14   H     H_    0.762227 0.186532 0.277634 0.189847
H15   H     H_    0.647751 0.163344 0.295905 0.223351
H16   H     H_    0.742163 0.091422 0.393608 0.173543

loop_
_geom_bond_atom_site_label_1
_geom_bond_atom_site_label_2
_ccdc_geom_bond_type
C25   H13   S    
C14   C16   D    
O11   V3    S    
O5    V1    S    
C13   C21   S    
O13   V3    S    
O10   C6    A    
O18   C8    A    
C21   H3    S    
C2    C19   S    
C17   C25   S    
O4    C2    A    
C26   H16   S    
V1    O19   S    
O3    V1    S    
O10   V2    S    
C1    O11   A    
C22   H4    S    
O2    C4    A    
C8    C10   S    
C21   O21   D    
V3    O19   S    
V2    O20   S    
C23   H5    S    
C7    C9    S    
V4    O20   S    
C19   H1    S    
O5    C7    A    
O9    V1    S    
C24   H8    S    
C15   C23   S    
C18   C20   D    
O6    V2    S    
C3    C12   S    
C13   C17   S    
C14   C22   S    
O1    V3    S    
C9    C11   T    
C20   H2    S    
O18   V4    S    
O3    C1    A    
C10   C12   T    
C23   H6    S    
O15   C5    A    
O17   V3    S    
O14   V4    S    
C13   C15   D    
O16   C6    A    
C24   H9    S    
O1    C3    A    
C25   H11   S    
O12   V4    S    
O4    V2    S    
C14   C18   S    
C4    C11   S    
O2    V4    S    
O14   V2    S    
C2    O12   A    
C26   H14   S    
O8    C4    A    
C23   H7    S    
O9    C5    A    
C22   O22   D    
C25   H12   S    
C18   C26   S    
O7    C3    A    
C6    C16   S    
C24   H10   S    
C16   C24   S    
O16   V4    S    
O13   V1    S    
C1    C20   S    
O15   V3    S    
C5    C15   S    
O6    C8    A    
C17   C19   D    
O7    V1    S    
O8    V2    S    
C26   H15   S    
O17   C7    A    
