data_mof_unit_18427.cif
_audit_creation_date              2012-12-11T17:05:35-0500
_audit_creation_method            fapswitch 2.2
_symmetry_space_group_name_H-M    P1
_symmetry_Int_Tables_number       1
_space_group_crystal_system       triclinic
_cell_length_a                    6.951399
_cell_length_b                    14.543331
_cell_length_c                    16.006814
_cell_angle_alpha                 90.261682
_cell_angle_beta                  89.997272
_cell_angle_gamma                 90.043898
_cell_volume                      1618.21546244

loop_
_atom_site_label
_atom_site_type_symbol
_atom_type_description
_atom_site_fract_x
_atom_site_fract_y
_atom_site_fract_z
_atom_type_partial_charge
O1    O     O_R   0.494380 0.415640 0.412830 -0.537994
O2    O     O_R   0.823960 0.405540 0.586560 -0.541229
O3    O     O_R   0.994270 0.584360 0.587170 -0.546210
C1    C     C_R   0.654922 0.383065 0.614931 0.697844
O4    O     O_R   0.824090 0.404620 0.413450 -0.544333
O5    O     O_R   0.994400 0.583430 0.412820 -0.539663
C2    C     C_R   0.655256 0.382369 0.384556 0.690486
O6    O     O_R   0.494250 0.416570 0.587180 -0.540355
O7    O     O_3   0.660800 0.558670 0.500000 -0.369309
V1    V     V_3+5 0.935650 0.489120 0.500000 1.379546
O8    O     O_R   0.324110 0.594460 0.413440 -0.535662
C3    C     C_R   0.155064 0.616339 0.384472 0.716244
O9    O     O_R   0.323980 0.595380 0.586550 -0.534234
C4    C     C_R   0.155201 0.617031 0.615966 0.709895
V2    V     V_3+5 0.435660 0.510880 0.500000 1.401564
O10   O     O_3   0.160640 0.441330 0.500000 -0.373607
C5    C     C_3   0.956332 0.672721 0.739148 -0.411048
H1    H     H_    0.827841 0.677384 0.697907 0.143324
H2    H     H_    0.954253 0.603016 0.767579 0.159362
C6    C     C_3   0.938230 0.746569 0.808775 -0.324272
H3    H     H_    0.909254 0.712999 0.869716 0.148289
H4    H     H_    0.811410 0.790754 0.795148 0.138373
H5    H     H_    0.001670 0.795195 0.624052 0.084194
H6    H     H_    0.018128 0.905234 0.720958 0.122701
C7    C     C_3   0.144488 0.787078 0.654564 0.324403
C8    C     C_3   0.313841 0.671993 0.749978 -0.341384
C9    C     C_3   0.145226 0.686050 0.687568 0.013302
H7    H     H_    0.454926 0.677505 0.718005 0.119908
H8    H     H_    0.308454 0.600351 0.773784 0.148979
C10   C     C_3   0.123111 0.806975 0.813597 0.076073
C11   C     C_3   0.142490 0.858010 0.728812 -0.462560
C12   C     C_3   0.303264 0.742501 0.823586 0.050370
H9    H     H_    0.434943 0.785995 0.820813 0.125094
H10   H     H_    0.269596 0.903758 0.731097 0.139013
C13   C     C_R   0.271654 0.816601 0.240627 0.096828
C14   C     C_R   0.118295 0.815875 0.183755 -0.112839
C15   C     C_R   0.967181 0.753581 0.199068 -0.176936
H11   H     H_    0.845194 0.750681 0.157313 0.131969
C16   C     C_R   0.978295 0.689839 0.264991 -0.182128
H12   H     H_    0.864001 0.640010 0.272110 0.126678
C17   C     C_R   0.141130 0.686229 0.317463 -0.113733
C18   C     C_R   0.283004 0.753353 0.305663 0.126009
C19   C     C_3   0.494623 0.742355 0.294962 -0.407592
C20   C     C_3   0.482355 0.811576 0.224328 -0.403268
H13   H     H_    0.533294 0.672001 0.273479 0.164034
H14   H     H_    0.576447 0.768179 0.349946 0.179766
H15   H     H_    0.514506 0.781619 0.161867 0.171513
H16   H     H_    0.556552 0.877547 0.238586 0.169313
C21   C     C_R   0.495965 0.316876 0.742633 0.102070
C22   C     C_R   0.646311 0.315929 0.684183 -0.140541
C23   C     C_R   0.794663 0.251268 0.696197 -0.183347
H17   H     H_    0.914629 0.248353 0.653280 0.130967
C24   C     C_R   0.784383 0.186165 0.760962 -0.173881
H18   H     H_    0.897006 0.135198 0.766129 0.124841
C25   C     C_R   0.624302 0.183156 0.814966 -0.103569
C26   C     C_R   0.484831 0.251611 0.805910 0.056336
C27   C     C_3   0.271976 0.242812 0.798234 -0.394137
C28   C     C_3   0.283042 0.314706 0.729407 -0.015045
H19   H     H_    0.196369 0.265723 0.855913 0.180267
H20   H     H_    0.228959 0.173745 0.774841 0.144501
H21   H     H_    0.242850 0.288047 0.666579 0.139692
C29   C     C_R   0.493081 0.315925 0.257162 0.098755
C30   C     C_R   0.647252 0.316428 0.313591 -0.111997
C31   C     C_R   0.798696 0.254327 0.298096 -0.178329
H22   H     H_    0.920970 0.252188 0.339684 0.132518
C32   C     C_R   0.787619 0.189844 0.232229 -0.177106
H23   H     H_    0.902269 0.140256 0.224928 0.127692
C33   C     C_R   0.624443 0.185241 0.180011 -0.112562
C34   C     C_R   0.481674 0.251858 0.192226 0.102158
C35   C     C_3   0.270608 0.239722 0.203941 -0.407458
C36   C     C_3   0.282907 0.309889 0.274346 -0.399005
H24   H     H_    0.234124 0.169407 0.225766 0.166706
H25   H     H_    0.186785 0.264332 0.149310 0.175294
H26   H     H_    0.252749 0.280526 0.336991 0.170368
H27   H     H_    0.206956 0.375253 0.260272 0.166935
O11   O     O_R   0.771490 0.080820 0.910070 -0.539266
O12   O     O_R   0.441590 0.092730 0.083780 -0.538552
O13   O     O_R   0.271350 0.913900 0.084390 -0.537574
C37   C     C_R   0.610643 0.114766 0.112891 0.698496
O14   O     O_R   0.441780 0.091820 0.910670 -0.539230
O15   O     O_R   0.271540 0.912980 0.910040 -0.543224
C38   C     C_R   0.610809 0.113187 0.881497 0.699593
O16   O     O_R   0.771300 0.081740 0.084420 -0.538546
O17   O     O_3   0.604960 0.938700 0.997240 -0.371241
V3    V     V_3+5 0.330090 0.008230 0.997220 1.388332
O18   O     O_R   0.941820 0.901930 0.910640 -0.545443
C39   C     C_R   0.110993 0.878008 0.883324 0.683471
O19   O     O_R   0.941630 0.902840 0.083750 -0.542887
C40   C     C_R   0.110410 0.880937 0.112682 0.690983
V4    V     V_3+5 0.830090 0.986410 0.997190 1.381675
O20   O     O_3   0.105080 0.055990 0.997200 -0.366038
O21   O     O_3   0.277228 0.802913 0.588015 -0.579577
C41   C     C_3   0.464766 0.830810 0.611610 0.115196
H28   H     H_    0.569235 0.786830 0.577361 0.127550
H29   H     H_    0.498564 0.822028 0.678634 0.091247
C42   C     C_3   0.496064 0.930832 0.584993 -0.303236
H30   H     H_    0.493951 0.934852 0.515657 0.194868
H31   H     H_    0.377501 0.974664 0.609165 0.193916
C43   C     C_3   0.686797 0.968814 0.617223 -0.872264
H32   H     H_    0.691285 0.965902 0.686549 0.222127
H33   H     H_    0.702524 0.041663 0.597866 0.239338
H34   H     H_    0.808410 0.928823 0.590743 0.232757
C44   C     C_3   0.186575 0.405807 0.752414 -0.753424
H35   H     H_    0.216144 0.456719 0.702908 0.207003
H36   H     H_    0.028678 0.396268 0.757122 0.215822
H37   H     H_    0.240912 0.432937 0.813028 0.197708
C45   C     C_3   0.310586 0.692456 0.908282 -0.814566
H38   H     H_    0.189997 0.642928 0.914548 0.213621
H39   H     H_    0.447639 0.653608 0.913277 0.205023
H40   H     H_    0.305357 0.741843 0.961251 0.207507

loop_
_geom_bond_atom_site_label_1
_geom_bond_atom_site_label_2
_ccdc_geom_bond_type
C14   C40   S    
C7    C11   S    
C32   C33   A    
C25   C26   A    
C8    C12   S    
C41   H28   S    
C17   C18   A    
C13   C14   A    
C1    O6    A    
V3    O20   S    
C16   C17   A    
C6    C10   S    
C24   H18   S    
C8    C9    S    
O14   V3    S    
C14   C15   A    
O5    C3    A    
C10   C11   S    
C27   H19   S    
V2    O10   S    
C42   C43   S    
C5    C6    S    
C26   C27   S    
C13   C18   A    
O8    V2    S    
C29   C30   A    
C33   C34   A    
C12   C45   S    
C42   H31   S    
C45   H38   S    
C35   C36   S    
O1    V2    S    
C4    C9    S    
C10   C12   S    
O7    V1    S    
C20   H15   S    
C33   C37   S    
O12   C37   A    
C32   H23   S    
O12   V3    S    
C41   H29   S    
O9    C4    A    
C45   H39   S    
O17   V4    S    
C22   C23   A    
C24   C25   A    
O13   C40   A    
C36   H27   S    
C23   H17   S    
C5    C9    S    
O17   V3    S    
O14   C38   A    
O18   V4    S    
O11   C38   A    
C16   H12   S    
O4    C2    A    
O18   C39   A    
C27   H20   S    
C21   C28   S    
C29   C34   A    
C1    C22   S    
C23   C24   A    
C31   C32   A    
O2    C1    A    
C19   C20   S    
C15   H11   S    
C43   H32   S    
C42   H30   S    
C35   H25   S    
C5    H1    S    
C11   H10   S    
C44   H36   S    
C6    H3    S    
C25   C38   S    
C13   C20   S    
C19   H13   S    
C2    C30   S    
O15   C39   A    
O3    C4    A    
O13   V3    S    
C43   H33   S    
O19   V4    S    
C41   C42   S    
O6    V2    S    
O9    V2    S    
C45   H40   S    
C18   C19   S    
V4    O20   S    
O2    V1    S    
C3    C17   S    
O16   V4    S    
C7    O21   S    
O1    C2    A    
C6    H4    S    
O5    V1    S    
C36   H26   S    
O8    C3    A    
C7    C9    S    
C21   C26   A    
C8    H7    S    
C12   H9    S    
O7    V2    S    
H6    C11   S    
O4    V1    S    
C15   C16   A    
O3    V1    S    
V1    O10   S    
C31   H22   S    
C37   O16   A    
C27   C28   S    
C28   H21   S    
O21   C41   S    
C5    H2    S    
C29   C36   S    
C44   H37   S    
H5    C7    S    
C34   C35   S    
C19   H14   S    
C30   C31   A    
C43   H34   S    
O19   C40   A    
C8    H8    S    
C21   C22   A    
C44   H35   S    
C35   H24   S    
C28   C44   S    
C10   C39   S    
O15   V3    S    
C20   H16   S    
O11   V4    S    
