data_mof_unit_19170.cif
_audit_creation_date              2012-12-11T16:53:25-0500
_audit_creation_method            fapswitch 2.2
_symmetry_space_group_name_H-M    P1
_symmetry_Int_Tables_number       1
_space_group_crystal_system       triclinic
_cell_length_a                    15.013578
_cell_length_b                    14.82387
_cell_length_c                    17.180382
_cell_angle_alpha                 108.416521
_cell_angle_beta                  105.958139
_cell_angle_gamma                 107.993595
_cell_volume                      3142.6507555

loop_
_atom_site_label
_atom_site_type_symbol
_atom_type_description
_atom_site_fract_x
_atom_site_fract_y
_atom_site_fract_z
_atom_type_partial_charge
C1    C     C_R   0.093126 0.280390 0.012727 -0.176434
C2    C     C_R   0.064804 0.486755 0.254649 0.447940
C3    C     C_R   0.230533 0.797666 0.188502 0.660398
C4    C     C_R   0.942948 0.464329 0.736233 0.591600
C5    C     C_R   0.749119 0.473601 0.056082 -0.225700
C6    C     C_R   0.263291 0.801857 0.273131 -0.094328
C7    C     C_R   0.707581 0.538504 0.033532 -0.035523
C8    C     C_R   0.976136 0.430240 0.261480 -0.203487
C9    C     C_R   0.997603 0.810149 0.954321 -0.181095
C10   C     C_R   0.539527 0.675691 0.079639 0.135638
C11   C     C_R   0.475549 0.607318 0.102385 -0.211883
C12   C     C_R   0.037442 0.477374 0.730055 -0.070313
C13   C     C_R   0.519824 0.552467 0.142119 0.374692
C14   C     C_R   0.590515 0.523719 0.114371 0.400355
C15   C     C_R   0.639821 0.574838 0.069945 -0.176814
C16   C     C_R   0.725780 0.211285 0.819627 0.511864
C17   C     C_R   0.620361 0.660293 0.064313 0.105766
C18   C     C_3   0.616572 0.713695 0.003122 -0.355835
C19   C     C_3   0.527777 0.729891 0.020206 -0.555307
C20   C     C_R   0.973843 0.401919 0.337432 -0.086418
C21   C     C_R   0.057411 0.439957 0.649733 -0.050037
C22   C     C_R   0.155807 0.495325 0.570364 -0.162856
C23   C     C_R   0.676445 0.217156 0.742045 -0.134528
C24   C     C_R   0.149802 0.501881 0.650404 -0.230416
C25   C     C_R   0.979342 0.354607 0.568479 0.615812
C26   C     C_R   0.979338 0.357773 0.487148 -0.271238
C27   C     C_R   0.067566 0.432048 0.490158 0.044382
C28   C     C_R   0.303325 0.598988 0.009742 -0.149993
C29   C     C_R   0.064630 0.450860 0.415887 -0.275798
C30   C     C_R   0.883246 0.334285 0.337479 0.455738
C31   C     C_R   0.889878 0.299993 0.405581 0.399482
C32   C     C_R   0.585938 0.140284 0.664816 0.128320
C33   C     C_R   0.347764 0.889045 0.350272 0.015635
C34   C     C_R   0.362782 0.569864 0.065186 0.170715
C35   C     C_R   0.528203 0.003650 0.427311 -0.430118
C36   C     C_R   0.443251 0.932665 0.346248 0.596075
C37   C     C_R   0.333617 0.921482 0.429189 -0.385536
C38   C     C_R   0.416702 0.996417 0.508021 0.200573
C39   C     C_R   0.514670 0.035467 0.506831 0.140350
C40   C     C_R   0.733444 0.310756 0.745933 -0.167325
C41   C     C_R   0.598756 0.105654 0.585721 -0.249120
C42   C     C_R   0.489751 0.106386 0.667311 -0.157412
C43   C     C_R   0.404434 0.031531 0.588433 -0.221501
C44   C     C_R   0.087634 0.064683 0.894617 -0.146299
C45   C     C_R   0.233178 0.700739 0.264179 -0.222605
C46   C     C_R   0.013927 0.101067 0.875215 0.080895
C47   C     C_R   0.943025 0.053040 0.783498 -0.187753
C48   C     C_R   0.949955 0.973208 0.716607 -0.164710
C49   C     C_R   0.028705 0.941254 0.739116 0.058397
C50   C     C_R   0.096282 0.991459 0.829276 -0.139705
C51   C     C_3   0.189572 0.997597 0.894701 0.222410
C52   C     C_R   0.295025 0.501559 0.083602 -0.148440
C53   C     C_3   0.173450 0.073515 0.970772 0.994026
C54   C     C_R   0.113529 0.539626 0.816071 -0.272137
C55   C     C_R   0.922830 0.198222 0.939548 -0.178040
C56   C     C_R   0.737337 0.553277 0.966657 0.603753
C57   C     C_R   0.010820 0.186489 0.944822 0.046044
C58   C     C_3   0.631563 0.495892 0.820837 -0.185615
C59   C     C_3   0.856038 0.214633 0.125897 0.363470
C60   C     C_3   0.781457 0.109791 0.043397 -0.324522
C61   C     C_3   0.695320 0.042765 0.059770 -0.958380
C62   C     C_3   0.228212 0.805767 0.976278 -0.208223
C63   C     C_3   0.796720 0.765998 0.853150 -0.160164
C64   C     C_3   0.183564 0.419709 0.264842 0.201580
C65   C     C_3   0.272604 0.422678 0.336674 -0.265868
C66   C     C_3   0.307972 0.340406 0.296075 -1.066776
C67   C     C_R   0.896075 0.391957 0.176376 0.468711
C68   C     C_3   0.217504 0.952446 0.212323 -0.259696
C69   C     C_3   0.507756 0.590088 0.277452 0.173801
C70   C     C_3   0.617993 0.625856 0.343539 -0.274266
C71   C     C_3   0.642976 0.707730 0.436512 -1.041571
C72   C     C_3   0.526204 0.345480 0.044363 0.218876
C73   C     C_3   0.545567 0.249214 0.043786 -0.384397
C74   C     C_3   0.583895 0.207868 0.973008 -0.743935
C75   C     C_3   0.845994 0.485949 0.620253 0.176436
C76   C     C_3   0.824862 0.577865 0.668618 -0.301180
C77   C     C_3   0.811167 0.640320 0.614261 -1.027220
C78   C     C_R   0.081496 0.797687 0.997819 0.593787
C79   C     C_3   0.757770 0.388099 0.309393 -0.147398
C80   C     C_3   0.817367 0.128751 0.383822 0.301370
C81   C     C_3   0.788514 0.062056 0.284610 -0.393523
C82   C     C_3   0.773420 0.949445 0.266159 -1.039823
C83   C     C_3   0.927127 0.222933 0.611273 -0.258450
C84   C     C_3   0.646327 0.035287 0.792071 0.132276
C85   C     C_3   0.541659 0.967975 0.785745 -0.227351
C86   C     C_3   0.494832 0.855520 0.712069 -1.027283
C87   C     C_3   0.515110 0.974687 0.249417 0.226813
C88   C     C_3   0.470780 0.052844 0.237999 -0.320891
C89   C     C_R   0.913178 0.716995 0.927412 0.464453
C90   C     C_3   0.550793 0.150208 0.243408 -0.995371
C91   C     C_3   0.291896 0.120185 0.853632 0.297538
C92   C     C_3   0.273840 0.074279 0.754479 -0.330072
C93   C     C_3   0.278952 0.157091 0.718733 -1.048164
C94   C     C_3   0.087164 0.074244 0.066480 -0.337979
C95   C     C_3   0.329444 0.176782 0.095839 -0.233369
H1    H     H_    0.173274 0.300343 0.028511 0.166630
H2    H     H_    0.674781 0.134902 0.585918 0.159485
H3    H     H_    0.333111 0.046445 0.747522 0.193358
H4    H     H_    0.197855 0.005419 0.713153 0.211148
H5    H     H_    0.220568 0.186300 0.726330 0.274598
H6    H     H_    0.262752 0.121912 0.646158 0.275187
H7    H     H_    0.356615 0.224590 0.755936 0.263080
H8    H     H_    0.006782 0.046697 0.019099 0.152317
H9    H     H_    0.128756 0.161649 0.098852 0.168544
H10   H     H_    0.082885 0.049987 0.120618 0.159163
H11   H     H_    0.352259 0.111716 0.073526 0.169675
H12   H     H_    0.300130 0.171020 0.147501 0.178783
H13   H     H_    0.481727 0.137900 0.729657 0.131541
H14   H     H_    0.398695 0.253140 0.129766 0.168911
H15   H     H_    0.605082 0.032217 0.430295 0.148841
H16   H     H_    0.329622 0.001557 0.589729 0.136786
H17   H     H_    0.258342 0.886744 0.428959 0.159691
H18   H     H_    0.883389 0.077778 0.762913 0.106354
H19   H     H_    0.895090 0.937392 0.647255 0.119131
H20   H     H_    0.175010 0.919577 0.893724 0.120169
H21   H     H_    0.331147 0.663208 0.993393 0.090528
H22   H     H_    0.709003 0.343710 0.700942 0.179357
H23   H     H_    0.749985 0.449653 0.109074 0.216246
H24   H     H_    0.312630 0.472393 0.132910 0.152182
H25   H     H_    0.195377 0.565377 0.837198 0.142525
H26   H     H_    0.848116 0.142506 0.889969 0.120449
H27   H     H_    0.254491 0.676688 0.316764 0.198232
H28   H     H_    0.583085 0.424367 0.824287 0.099761
H29   H     H_    0.682991 0.479350 0.788729 0.163332
H30   H     H_    0.579094 0.515918 0.777242 0.151308
H31   H     H_    0.870147 0.201056 0.186939 0.088130
H32   H     H_    0.930877 0.239841 0.120021 -0.011907
H33   H     H_    0.747946 0.126176 0.986929 0.254840
H34   H     H_    0.686437 0.788647 0.030388 0.175813
H35   H     H_    0.824131 0.063640 0.023678 0.142301
H36   H     H_    0.726004 0.008129 0.102896 0.257051
H37   H     H_    0.635083 0.976496 0.994933 0.247383
H38   H     H_    0.660230 0.090697 0.091842 0.294760
H39   H     H_    0.181020 0.753898 0.903247 0.111297
H40   H     H_    0.248297 0.762339 0.014289 0.166367
H41   H     H_    0.301599 0.862422 0.982936 0.156538
H42   H     H_    0.846573 0.809496 0.827336 0.132781
H43   H     H_    0.804835 0.820528 0.919238 0.125357
H44   H     H_    0.715826 0.733343 0.804529 0.154789
H45   H     H_    0.587302 0.661934 0.930652 0.238394
H46   H     H_    0.206250 0.427745 0.210252 0.112453
H47   H     H_    0.116111 0.341920 0.236883 0.076177
H48   H     H_    0.338226 0.502259 0.370412 0.197385
H49   H     H_    0.247874 0.407624 0.388481 0.200746
H50   H     H_    0.244488 0.259906 0.265162 0.261329
H51   H     H_    0.373790 0.345959 0.349672 0.277653
H52   H     H_    0.333191 0.354474 0.244255 0.287546
H53   H     H_    0.226571 0.013766 0.187496 0.208292
H54   H     H_    0.263233 0.994564 0.286267 0.125465
H55   H     H_    0.134348 0.910871 0.196099 0.111000
H56   H     H_    0.546655 0.814302 0.058190 0.203552
H57   H     H_    0.454208 0.557380 0.305343 0.131479
H58   H     H_    0.495981 0.658807 0.271571 0.109055
H59   H     H_    0.627371 0.556483 0.349526 0.208820
H60   H     H_    0.673255 0.660952 0.317797 0.186748
H61   H     H_    0.634652 0.778090 0.432085 0.271797
H62   H     H_    0.723491 0.733007 0.482438 0.275507
H63   H     H_    0.590819 0.673577 0.465094 0.272043
H64   H     H_    0.525390 0.353815 0.981842 0.082778
H65   H     H_    0.448544 0.331596 0.043045 0.118328
H66   H     H_    0.601130 0.267518 0.110729 0.257573
H67   H     H_    0.456835 0.684826 0.956839 0.187678
H68   H     H_    0.472988 0.183832 0.027991 0.197259
H69   H     H_    0.534435 0.195809 0.905845 0.223724
H70   H     H_    0.581976 0.130785 0.967430 0.259896
H71   H     H_    0.663801 0.262985 0.992463 0.299507
H72   H     H_    0.782598 0.435714 0.551898 0.153901
H73   H     H_    0.917425 0.516574 0.610099 0.080850
H74   H     H_    0.754061 0.546852 0.679374 0.228045
H75   H     H_    0.890616 0.631736 0.735096 0.210346
H76   H     H_    0.881857 0.673553 0.604035 0.267168
H77   H     H_    0.796308 0.706437 0.651200 0.277113
H78   H     H_    0.131702 0.514514 0.425575 0.214302
H79   H     H_    0.744922 0.588760 0.547674 0.269785
H80   H     H_    0.807956 0.463042 0.311916 0.121813
H81   H     H_    0.758368 0.401069 0.377087 0.109924
H82   H     H_    0.678099 0.365050 0.263798 0.175862
H83   H     H_    0.766873 0.082802 0.407569 0.122377
H84   H     H_    0.897178 0.144476 0.424561 0.070087
H85   H     H_    0.716635 0.060068 0.242313 0.231672
H86   H     H_    0.850907 0.098632 0.266112 0.184466
H87   H     H_    0.844197 0.949950 0.309081 0.270415
H88   H     H_    0.756647 0.904558 0.194518 0.275835
H89   H     H_    0.225139 0.549726 0.572529 0.128276
H90   H     H_    0.707824 0.908992 0.279768 0.272051
H91   H     H_    0.964845 0.269328 0.685623 0.151774
H92   H     H_    0.979061 0.193960 0.586845 0.107680
H93   H     H_    0.858137 0.152656 0.595344 0.154122
H94   H     H_    0.700557 0.005519 0.820165 0.093630
H95   H     H_    0.642837 0.021105 0.723543 0.107041
H96   H     H_    0.551031 0.965095 0.851107 0.187480
H97   H     H_    0.487650 0.003332 0.771798 0.202001
H98   H     H_    0.480807 0.855917 0.645236 0.276520
H99   H     H_    0.420300 0.808374 0.710707 0.267913
H100  H     H_    0.213820 0.563755 0.712060 0.141708
H101  H     H_    0.547134 0.817797 0.725300 0.260805
H102  H     H_    0.521608 0.935220 0.185894 0.114735
H103  H     H_    0.594530 0.016056 0.301579 0.106065
H104  H     H_    0.405145 0.013920 0.171140 0.253553
H105  H     H_    0.443661 0.079387 0.291185 0.206411
H106  H     H_    0.615982 0.193269 0.310785 0.323176
H107  H     H_    0.515980 0.203886 0.233326 0.251050
H108  H     H_    0.579256 0.127429 0.190589 0.278514
H109  H     H_    0.370996 0.183004 0.891645 0.096726
H110  H     H_    0.242779 0.161208 0.864869 0.108212
N1    N     N_R   0.055640 0.348550 0.045600 -0.060867
N2    N     N_R   0.811290 0.303400 0.871650 -0.083971
N3    N     N_R   0.205180 0.552990 0.997660 -0.042458
N4    N     N_R   0.814810 0.361830 0.823710 -0.071990
N5    N     N_R   0.201660 0.494570 0.045600 -0.047629
N6    N     N_R   0.068420 0.560530 0.871650 -0.082445
N7    N     N_R   0.948050 0.295860 0.997660 -0.034370
N8    N     N_R   0.185190 0.638170 0.176290 -0.068466
N9    N     N_R   0.798340 0.505430 0.954400 -0.106336
N10   N     N_R   0.931580 0.439470 0.128350 -0.128357
N11   N     N_R   0.051950 0.704140 0.002340 -0.164625
N12   N     N_R   0.944360 0.651450 0.954400 -0.139694
N13   N     N_R   0.039170 0.492150 0.176290 -0.121967
N14   N     N_R   0.188710 0.696600 0.128350 -0.107464
N15   N     N_R   0.794820 0.447010 0.002340 -0.084646
N16   N     N_R   0.960830 0.507850 0.823710 -0.102527
Ni1   Ni    Ni4+2 0.119330 0.493420 0.109950 0.190841
Ni2   Ni    Ni4+2 0.880670 0.506580 0.890050 0.216391
Ni3   Ni    Ni4+2 0.872590 0.372590 0.000000 0.222662
Ni4   Ni    Ni4+2 0.127410 0.627410 0.000000 0.190533
O1    O     O_3   0.689444 0.583404 0.906156 -0.617071
O2    O     O_3   0.786863 0.306896 0.275776 -0.577051
O3    O     O_3   0.802781 0.221561 0.396140 -0.618890
O4    O     O_3   0.895096 0.281613 0.568413 -0.570087
O5    O     O_3   0.680554 0.142859 0.851619 -0.700998
O6    O     O_3   0.451164 0.894562 0.264161 -0.663443
O7    O     O_3   0.283744 0.042228 0.886369 -0.662836
O8    O     O_3   0.137740 0.024801 0.022396 -0.624467
O9    O     O_3   0.256275 0.175825 0.022802 -0.688135
O10   O     O_3   0.815906 0.290967 0.131872 -0.607644
O11   O     O_3   0.179680 0.863260 0.013808 -0.556495
O12   O     O_3   0.818174 0.681406 0.858866 -0.590661
O13   O     O_3   0.163416 0.505690 0.304867 -0.694855
O14   O     O_3   0.253970 0.882953 0.169214 -0.597207
O15   O     O_3   0.482891 0.508718 0.193392 -0.656844
O16   O     O_3   0.601153 0.437587 0.122947 -0.642900
O17   O     O_3   0.847592 0.421930 0.666352 -0.651212

loop_
_geom_bond_atom_site_label_1
_geom_bond_atom_site_label_2
_ccdc_geom_bond_type
N12   Ni2   S    
C87   C88   S    
C55   H26   S    
C94   H10   S    
C77   H79   S    
N5    Ni1   S    
C6    C45   A    
C54   H25   S    
C27   C29   A    
C73   C74   S    
C67   N10   A    
C35   C36   A    
C81   H86   S    
C16   N2    A    
N10   Ni3   S    
C81   C82   S    
N8    N14   A    
C61   H36   S    
C61   H38   S    
C39   C41   A    
C20   C30   A    
C85   C86   S    
C18   H45   S    
C85   H97   S    
C25   O4    S    
C26   C27   A    
C8    C20   S    
C72   H64   S    
C59   H31   S    
C79   H81   S    
C88   H104  S    
C77   H77   S    
C86   H98   S    
C30   C31   A    
C65   H48   S    
C87   O6    S    
C5    N15   A    
C64   H46   S    
C10   C17   A    
C59   H32   S    
C4    N16   A    
N6    N16   A    
C60   H35   S    
C33   C36   A    
N2    N4    A    
C15   C17   A    
C18   C19   S    
C62   H41   S    
C37   H17   S    
C73   H66   S    
C68   H54   S    
C28   H21   S    
C61   H37   S    
C86   H101  S    
C55   N7    A    
C44   C53   S    
N9    Ni2   S    
N14   Ni4   S    
C66   H50   S    
C22   H89   S    
C32   C41   A    
C79   H82   S    
C83   H91   S    
C84   H95   S    
C70   C71   S    
C95   O9    S    
C4    C12   A    
C84   O5    S    
C91   O7    S    
C56   N9    A    
C91   H109  S    
C68   H53   S    
C3    N14   A    
C1    H1    S    
C72   C73   S    
C90   H106  S    
C3    C6    A    
C7    C15   S    
C40   H22   S    
C94   H9    S    
C26   C31   A    
N16   Ni2   S    
C31   O3    S    
C52   N5    A    
C23   C32   S    
C63   H42   S    
C83   H92   S    
C69   C70   S    
C43   H16   S    
C7    C56   A    
C30   O2    S    
C4    O17   S    
C91   H110  S    
C44   C46   A    
N13   Ni1   S    
C13   O15   S    
C20   C29   A    
C71   H62   S    
C59   O10   S    
C62   O11   S    
C82   H90   S    
C92   H3    S    
C70   H60   S    
C80   H84   S    
C89   O12   S    
C60   H33   S    
C84   C85   S    
C74   H71   S    
C95   H14   S    
N10   N13   A    
C78   N11   A    
C91   C92   S    
C5    C7    A    
C65   H49   S    
C93   H6    S    
C2    O13   S    
C83   O4    S    
C24   H100  S    
C50   C51   S    
C25   C26   A    
C58   H29   S    
C40   N4    A    
C33   C37   A    
C60   C61   S    
C51   C53   S    
C19   H67   S    
C80   H83   S    
C62   H40   S    
C35   C39   A    
C75   C76   S    
C37   C38   A    
C95   H11   S    
C1    C57   A    
N3    Ni4   S    
C14   O16   S    
N8    Ni1   S    
C45   N8    A    
C47   C48   A    
C10   C19   S    
C77   H76   S    
N11   N12   A    
C67   O10   S    
C17   C18   S    
C58   H28   S    
C84   H94   S    
C80   O3    S    
C76   H75   S    
C1    N1    A    
C93   H5    S    
C66   H52   S    
C75   H73   S    
C35   H15   S    
C95   H12   S    
C58   H30   S    
N3    N5    A    
C54   N6    A    
C88   C90   S    
C94   H8    S    
C49   C50   A    
C16   C23   A    
C64   O13   S    
C55   C57   A    
C46   C57   S    
C28   N3    A    
C63   H43   S    
C41   H2    S    
C83   H93   S    
C42   C43   A    
C87   H102  S    
C9    C89   A    
C53   O8    S    
N15   Ni3   S    
C48   H19   S    
C90   H108  S    
N7    Ni3   S    
C44   C50   A    
C47   H18   S    
C71   H63   S    
C21   C25   A    
C46   C47   A    
C48   C49   A    
C51   O7    S    
C70   H59   S    
C69   H57   S    
C63   H44   S    
C72   O16   S    
C11   C34   S    
C2    C8    A    
C81   H85   S    
C29   H78   S    
C80   C81   S    
C68   O14   S    
C58   O1    S    
C93   H7    S    
C63   O12   S    
C19   H56   S    
C94   O8    S    
C45   H27   S    
C85   H96   S    
C82   H87   S    
C34   C52   A    
N11   Ni4   S    
C72   H65   S    
C6    C33   S    
C56   O1    S    
C5    H23   S    
C22   C27   A    
C64   C65   S    
C88   H105  S    
N2    Ni3   S    
C38   C43   A    
C73   H68   S    
C75   O17   S    
N9    N15   A    
C86   H99   S    
C74   H69   S    
C76   C77   S    
C11   C13   A    
C79   H80   S    
C62   H39   S    
C38   C39   A    
C64   H47   S    
N1    Ni1   S    
C36   O6    S    
N4    Ni2   S    
C71   H61   S    
C82   H88   S    
C16   O5    S    
C92   C93   S    
C2    N13   A    
C22   C24   A    
C9    C78   A    
C28   C34   A    
C76   H74   S    
C69   O15   S    
C69   H58   S    
C66   H51   S    
C68   H55   S    
C10   C11   A    
C51   H20   S    
C89   N12   A    
C12   C21   S    
C52   H24   S    
N1    N7    A    
C59   C60   S    
C8    C67   A    
C78   O11   S    
C65   C66   S    
N6    Ni4   S    
C21   C24   A    
C79   O2    S    
C32   C42   A    
C14   C15   A    
C18   H34   S    
C75   H72   S    
C87   H103  S    
C13   C14   A    
C42   H13   S    
C53   O9    S    
C74   H70   S    
C12   C54   A    
C23   C40   A    
C92   H4    S    
C3    O14   S    
C90   H107  S    
