data_mof_unit_33292.cif
_audit_creation_date              2012-12-10T17:36:48-0500
_audit_creation_method            fapswitch 2.2
_symmetry_space_group_name_H-M    P1
_symmetry_Int_Tables_number       1
_space_group_crystal_system       triclinic
_cell_length_a                    10.689682
_cell_length_b                    12.352441
_cell_length_c                    13.438087
_cell_angle_alpha                 117.792302
_cell_angle_beta                  76.341311
_cell_angle_gamma                 101.585774
_cell_volume                      1516.81179384

loop_
_atom_site_label
_atom_site_type_symbol
_atom_type_description
_atom_site_fract_x
_atom_site_fract_y
_atom_site_fract_z
_atom_type_partial_charge
C1    C     C_R   0.508137 0.854111 0.286407 0.832854
C2    C     C_3   0.018287 0.039587 0.618909 -0.210982
C3    C     C_3   0.928753 0.927624 0.548997 -0.035852
C4    C     C_3   0.873530 0.009118 0.514566 -0.194901
C5    C     C_R   0.396872 0.267746 0.031659 0.022873
C6    C     C_R   0.438719 0.229314 0.833128 -0.115032
C7    C     C_R   0.570840 0.807868 0.075966 -0.010602
C8    C     C_R   0.587247 0.720708 0.961837 -0.164494
C9    C     C_R   0.537445 0.599331 0.930458 -0.125946
C10   C     C_R   0.461637 0.561319 0.011470 0.130915
C11   C     C_R   0.441026 0.647259 0.127754 0.042758
C12   C     C_R   0.738410 0.004929 0.507416 0.928981
C13   C     C_R   0.417474 0.435639 0.980125 -0.002108
C14   C     C_R   0.383351 0.392969 0.064837 -0.001705
C15   C     C_R   0.336496 0.478161 0.176598 0.019214
C16   C     C_R   0.360645 0.604460 0.205009 -0.146386
C17   C     C_R   0.411283 0.349318 0.866559 -0.104274
C18   C     C_R   0.431809 0.189675 0.916193 -0.216853
C19   C     C_R   0.502800 0.770804 0.162680 -0.160408
C20   C     C_R   0.748767 0.377846 0.393907 -0.217379
C21   C     C_R   0.310596 0.752409 0.630161 0.100105
C22   C     C_R   0.263954 0.652657 0.656091 -0.086925
C23   C     C_R   0.473715 0.145724 0.712539 0.843114
C24   C     C_R   0.338643 0.554042 0.610536 -0.177870
C25   C     C_R   0.459800 0.554731 0.541153 -0.011998
C26   C     C_R   0.503208 0.658011 0.515934 0.247976
C27   C     C_R   0.538742 0.455166 0.493509 -0.013244
C28   C     C_R   0.668981 0.473142 0.445134 0.131722
C29   C     C_R   0.716242 0.582491 0.438506 -0.244204
C30   C     C_R   0.629621 0.659075 0.449280 -0.037337
C31   C     C_R   0.495123 0.337842 0.490428 0.068678
C32   C     C_R   0.698742 0.263743 0.389395 0.132025
C33   C     C_R   0.259447 0.003066 0.504122 0.852441
C34   C     C_3   0.979456 0.980513 0.408214 -0.123769
C35   C     C_3   0.033712 0.897043 0.441494 -0.065275
C36   C     C_3   0.122166 0.008747 0.510568 -0.136744
C37   C     C_3   0.066762 0.092967 0.479068 -0.086106
C38   C     C_3   0.960729 0.121007 0.585241 -0.068397
Cu1   Cu    Cu3+1 0.529830 0.098270 0.475420 1.029565
Cu2   Cu    Cu3+1 0.470170 0.901730 0.524580 1.009945
H1    H     H_    0.561005 0.534679 0.841779 0.144903
H2    H     H_    0.036863 0.064196 0.705251 0.202819
N1    N     N_R   0.575030 0.246270 0.438190 -0.186310
N2    N     N_R   0.425760 0.754330 0.561190 -0.221180
O1    O     O_R   0.537510 0.972500 0.318130 -0.525961
O2    O     O_R   0.487140 0.806530 0.359650 -0.592897
O3    O     O_R   0.708330 0.082950 0.479220 -0.561353
O4    O     O_R   0.657960 0.916980 0.520740 -0.564809
O5    O     O_R   0.512860 0.193470 0.640350 -0.580429
O6    O     O_R   0.462490 0.027500 0.681870 -0.589154
O7    O     O_R   0.342040 0.083020 0.479260 -0.555940
O8    O     O_R   0.291670 0.917050 0.520780 -0.586306
C39   C     C_2   0.066058 0.768271 0.362902 0.834649
O9    O     O_2   0.067849 0.726860 0.260432 -0.551363
O10   O     O_R   0.087361 0.693980 0.408365 -0.716589
H3    H     H_    0.084438 0.604464 0.350821 0.332380
C40   C     C_2   0.336282 0.373189 0.798869 0.867963
O11   O     O_2   0.317978 0.478039 0.823762 -0.572504
O12   O     O_R   0.274074 0.274495 0.714552 -0.772644
H4    H     H_    0.218630 0.301897 0.680588 0.342955
C41   C     C_2   0.630309 0.934661 0.097253 0.867152
O13   O     O_2   0.741670 0.950803 0.052525 -0.579467
O14   O     O_R   0.556735 0.034139 0.159308 -0.722638
H5    H     H_    0.608258 0.114723 0.165193 0.351697
H6    H     H_    0.641801 0.746507 0.895703 0.171918
H7    H     H_    0.318320 0.667958 0.288410 0.202857
H8    H     H_    0.760688 0.190500 0.351807 0.167145
H9    H     H_    0.815050 0.590797 0.395436 0.182254
H10   H     H_    0.848490 0.390821 0.355635 0.175198
H11   H     H_    0.399200 0.317753 0.529682 0.133289
H12   H     H_    0.254061 0.829227 0.664391 0.173381
C42   C     C_2   0.966680 0.949593 0.288621 0.967384
O15   O     O_2   0.063716 0.936566 0.216147 -0.504782
O16   O     O_R   0.845103 0.934415 0.259972 -0.747610
H13   H     H_    0.850048 0.906646 0.175566 0.358293
H14   H     H_    0.301756 0.478414 0.631788 0.202646
C43   C     C_2   0.136569 0.650519 0.729636 0.924786
O17   O     O_2   0.071236 0.736569 0.768967 -0.553947
O18   O     O_R   0.090544 0.549839 0.754152 -0.700562
H15   H     H_    0.002963 0.559427 0.805320 0.353507
C44   C     C_2   0.655759 0.670257 0.342036 0.926944
O19   O     O_2   0.745068 0.741986 0.325322 -0.597836
O20   O     O_R   0.598336 0.578800 0.250799 -0.740118
H16   H     H_    0.639873 0.581499 0.175817 0.333149
C45   C     C_2   0.141337 0.189969 0.444434 0.865893
O21   O     O_2   0.116606 0.296687 0.499191 -0.599600
O22   O     O_R   0.239940 0.158278 0.350555 -0.711709
H17   H     H_    0.285645 0.233140 0.339960 0.360386
C46   C     C_2   0.913744 0.243591 0.668016 0.910671
O23   O     O_2   0.925796 0.287713 0.768123 -0.565195
O24   O     O_R   0.855354 0.306098 0.630229 -0.722286
H18   H     H_    0.826067 0.386820 0.693902 0.330068
C47   C     C_2   0.855762 0.848589 0.606115 0.891659
O25   O     O_2   0.903008 0.760631 0.594948 -0.538495
O26   O     O_R   0.739201 0.882450 0.680098 -0.743705
H19   H     H_    0.700247 0.823525 0.715032 0.329925
H20   H     H_    0.452244 0.096989 0.890940 0.196588
C48   C     C_2   0.252462 0.439546 0.261646 0.836261
O27   O     O_2   0.171424 0.350231 0.231618 -0.578792
O28   O     O_R   0.262171 0.508457 0.376971 -0.741878
H21   H     H_    0.196183 0.475702 0.426895 0.363944
C49   C     C_2   0.394521 0.217060 0.111964 0.883527
O29   O     O_2   0.449483 0.276057 0.194753 -0.599988
O30   O     O_R   0.334696 0.097934 0.088296 -0.698884
H22   H     H_    0.341180 0.069369 0.145965 0.404366

loop_
_geom_bond_atom_site_label_1
_geom_bond_atom_site_label_2
_ccdc_geom_bond_type
Cu1   O7    S    
O22   H17   S    
C47   O25   D    
C35   C39   S    
C34   C37   S    
O26   H19   S    
C12   O4    A    
C44   O19   D    
C26   N2    A    
C7    C8    A    
C43   O17   D    
C33   O8    A    
Cu2   O2    S    
C38   C46   S    
C11   C19   A    
C37   C38   S    
C31   N1    A    
C21   H12   S    
C37   C45   S    
C28   C29   A    
C48   O27   D    
C1    O2    A    
C40   O12   S    
C15   C16   A    
C29   H9    S    
C33   C36   S    
C34   C35   S    
C41   O14   S    
C7    C41   S    
C31   H11   S    
C35   C36   S    
C8    C9    A    
C18   H20   S    
C4    C12   S    
C9    C10   A    
Cu2   N2    S    
Cu1   O1    S    
C43   O18   S    
C8    H6    S    
C47   O26   S    
C21   C22   A    
C41   O13   D    
C12   O3    A    
O30   H22   S    
C44   O20   S    
C39   O10   S    
C6    C18   A    
C4    C34   S    
C1    C19   S    
O16   H13   S    
C45   O22   S    
C27   C31   A    
C24   C25   A    
C42   O16   S    
O24   H18   S    
C24   H14   S    
C23   O6    A    
Cu1   N1    S    
C5    C18   A    
C20   C28   A    
C25   C26   A    
C45   O21   D    
C33   O7    A    
O14   H5    S    
C29   C30   A    
C21   N2    A    
C11   C16   A    
C2    C38   S    
O20   H16   S    
C3    C35   S    
O10   H3    S    
C3    C47   S    
C49   O30   S    
C5    C14   A    
C32   H8    S    
Cu1   O5    S    
C4    C38   S    
C26   C30   A    
C7    C19   A    
C22   C24   A    
C20   H10   S    
C16   H7    S    
C15   C48   S    
C3    C4    S    
C34   C42   S    
Cu1   Cu2   S    
Cu1   O3    S    
C20   C32   A    
C2    C36   S    
Cu2   O4    S    
C6    C17   A    
C5    C49   S    
C36   C37   S    
C22   C43   S    
C42   O15   D    
C10   C13   A    
C39   O9    D    
C25   C27   A    
C9    H1    S    
C13   C17   A    
C30   C44   S    
C2    C3    S    
Cu2   O8    S    
C1    O1    A    
C40   O11   D    
C2    H2    S    
Cu2   O6    S    
C6    C23   S    
O28   H21   S    
C32   N1    A    
C49   O29   D    
C48   O28   S    
C23   O5    A    
C10   C11   A    
O18   H15   S    
O12   H4    S    
C46   O24   S    
C27   C28   A    
C14   C15   A    
C46   O23   D    
C13   C14   A    
C17   C40   S    
