data_mof_unit_44621.cif
_audit_creation_date              2012-12-11T16:08:59-0500
_audit_creation_method            fapswitch 2.2
_symmetry_space_group_name_H-M    P1
_symmetry_Int_Tables_number       1
_space_group_crystal_system       triclinic
_cell_length_a                    12.949217
_cell_length_b                    13.298069
_cell_length_c                    27.680528
_cell_angle_alpha                 94.79959
_cell_angle_beta                  90.344123
_cell_angle_gamma                 119.070792
_cell_volume                      4145.51170812

loop_
_atom_site_label
_atom_site_type_symbol
_atom_type_description
_atom_site_fract_x
_atom_site_fract_y
_atom_site_fract_z
_atom_type_partial_charge
C1    C     C_R   0.626212 0.897349 0.426354 0.567734
C2    C     C_R   0.110938 0.721914 0.307677 0.031957
C3    C     C_R   0.094839 0.708259 0.206147 -0.001615
C4    C     C_R   0.601730 0.223087 0.440837 0.543282
C5    C     C_R   0.072640 0.610724 0.229399 -0.135705
C6    C     C_R   0.079267 0.616940 0.279740 -0.103608
C7    C     C_R   0.089320 0.701641 0.156026 -0.163160
C8    C     C_R   0.104311 0.796145 0.131664 0.019379
C9    C     C_R   0.188210 0.937926 0.360815 -0.169072
C10   C     C_R   0.157083 0.924120 0.311520 0.003408
C11   C     C_R   0.127977 0.819029 0.284169 0.032373
C12   C     C_R   0.598102 0.360542 0.231362 0.269579
C13   C     C_R   0.164139 0.016662 0.288461 -0.149379
C14   C     C_R   0.156492 0.010500 0.237944 -0.110404
C15   C     C_R   0.138051 0.909773 0.209589 0.033237
C16   C     C_R   0.264443 0.874279 0.427051 0.572233
C17   C     C_R   0.119157 0.812109 0.233251 0.031801
C18   C     C_R   0.134914 0.902780 0.158385 0.202693
C19   C     C_R   0.188314 0.846785 0.382897 0.014527
C20   C     C_R   0.713180 0.966081 0.350081 -0.174346
C21   C     C_R   0.708448 0.956679 0.300029 -0.003908
C22   C     C_R   0.711687 0.937128 0.198934 0.026145
C23   C     C_R   0.593597 0.354164 0.281907 0.313418
C24   C     C_R   0.770382 0.046270 0.225537 -0.114789
C25   C     C_R   0.771885 0.055349 0.275816 -0.135119
C26   C     C_R   0.729987 0.922682 0.149436 0.264342
C27   C     C_R   0.673150 0.809895 0.124837 0.008977
C28   C     C_R   0.627264 0.898936 0.564953 0.547926
C29   C     C_R   0.566572 0.761860 0.349639 0.259767
C30   C     C_R   0.567176 0.749894 0.298487 0.017086
C31   C     C_R   0.637217 0.848527 0.273915 0.022477
C32   C     C_R   0.497945 0.642746 0.271183 -0.086866
C33   C     C_R   0.497671 0.634042 0.220728 -0.102546
C34   C     C_R   0.678711 0.338372 0.306957 0.022891
C35   C     C_R   0.571924 0.730062 0.196760 -0.007084
C36   C     C_R   0.639317 0.838754 0.223125 0.022877
C37   C     C_R   0.586965 0.716888 0.147459 -0.169783
C38   C     C_R   0.640915 0.871031 0.375300 0.017720
C39   C     C_R   0.749703 0.312503 0.650973 0.206266
C40   C     C_R   0.604626 0.229699 0.578084 0.576681
C41   C     C_R   0.759839 0.329051 0.702151 0.001436
C42   C     C_R   0.770869 0.349131 0.804654 0.026683
C43   C     C_R   0.864188 0.348279 0.779165 0.259929
C44   C     C_R   0.858697 0.339663 0.728375 -0.049525
C45   C     C_R   0.689452 0.354957 0.206184 0.017497
C46   C     C_R   0.778924 0.368662 0.855393 -0.115097
C47   C     C_R   0.687505 0.374544 0.880016 -0.035631
C48   C     C_R   0.565896 0.321657 0.652217 0.234851
C49   C     C_R   0.569831 0.327389 0.702746 -0.020536
C50   C     C_R   0.666157 0.329829 0.727855 -0.042938
C51   C     C_R   0.476285 0.326606 0.728301 -0.086793
C52   C     C_R   0.271920 0.879531 0.563398 0.558638
C53   C     C_R   0.475664 0.325399 0.778508 0.252112
C54   C     C_R   0.574414 0.334235 0.804073 0.025557
C55   C     C_R   0.670082 0.336599 0.778828 -0.017668
C56   C     C_1   0.699529 0.372605 0.155197 0.024125
C57   C     C_R   0.582266 0.348080 0.854524 -0.111224
C58   C     C_R   0.645462 0.295916 0.626464 0.024397
C59   C     C_1   0.223111 0.862895 0.610239 0.034364
C60   C     C_R   0.067523 0.757990 0.718696 0.250344
C61   C     C_R   0.053607 0.748551 0.768487 -0.034726
C62   C     C_R   0.250872 0.910942 0.786302 -0.109897
C63   C     C_R   0.265175 0.920974 0.736628 -0.122651
C64   C     C_1   0.638680 0.277440 0.396582 0.012887
C65   C     C_R   0.173979 0.844740 0.702638 0.038075
C66   C     C_R   0.145056 0.824738 0.802292 -0.006922
C67   C     C_1   0.662295 0.311242 0.356813 0.004860
C68   C     C_1   0.127524 0.813865 0.853236 -0.039177
C69   C     C_1   0.195336 0.853107 0.651754 0.017373
C70   C     C_1   0.102624 0.797542 0.894764 0.008172
C71   C     C_1   0.642425 0.865155 0.611051 0.015794
C72   C     C_R   0.747708 0.828688 0.724185 -0.145484
C73   C     C_R   0.754384 0.822510 0.774293 0.243110
C74   C     C_R   0.551036 0.786677 0.779178 0.258910
C75   C     C_R   0.546828 0.797444 0.729111 0.292457
C76   C     C_R   0.770174 0.333921 0.281741 -0.163551
C77   C     C_R   0.646115 0.819373 0.701844 -0.061817
C78   C     C_1   0.706377 0.396968 0.113830 0.034932
C79   C     C_R   0.656009 0.801292 0.801872 -0.001131
C80   C     C_1   0.666024 0.796188 0.853412 0.019464
C81   C     C_1   0.647039 0.841967 0.651849 -0.013669
C82   C     C_1   0.683041 0.789344 0.895536 0.010101
C83   C     C_R   0.061576 0.770344 0.080411 0.582257
C84   C     C_R   0.717474 0.441481 0.067433 0.549653
C85   C     C_R   0.718705 0.784001 0.079956 0.564354
C86   C     C_R   0.056938 0.766282 0.941420 0.555946
C87   C     C_R   0.709900 0.433251 0.929171 0.548583
C88   C     C_R   0.776185 0.343240 0.231690 -0.171371
C89   C     C_R   0.133637 0.734614 0.358097 0.208922
C90   C     C_R   0.715930 0.776258 0.943104 0.545672
C91   C     C_3   0.924453 0.054951 0.137991 -0.054501
C92   C     C_3   0.377710 0.642372 0.371774 -0.048111
C93   C     C_3   0.956977 0.253642 0.804719 -0.137273
C94   C     C_3   0.290289 0.212410 0.802232 -0.139091
C95   C     C_3   0.519953 0.441343 0.615319 -0.093852
C96   C     C_3   0.943394 0.950703 0.801128 -0.124196
C97   C     C_3   0.392645 0.656928 0.817758 -0.087572
C98   C     C_3   0.373113 0.687942 0.684814 -0.081888
C99   C     C_3   0.408464 0.268888 0.309532 -0.094957
Cl1   Cl    Cl    0.867004 0.313192 0.617946 -0.557459
Cl2   Cl    Cl    0.950986 0.659275 0.677565 -0.597062
Cl3   Cl    Cl    0.487129 0.372781 0.199536 -0.620922
Cl4   Cl    Cl    0.095319 0.611699 0.389864 -0.632796
Cl5   Cl    Cl    0.175833 0.027492 0.127789 -0.622629
Cr1   Cr    Cr6+3 0.416430 0.829200 0.492370 1.065904
Cr2   Cr    Cr6+3 0.674630 0.087020 0.504170 1.101803
Cr3   Cr    Cr6+3 0.408920 0.083740 0.503490 1.058561
Cr4   Cr    Cr6+3 0.914010 0.832750 0.013970 1.078798
Cr5   Cr    Cr6+3 0.922310 0.578600 0.003000 1.034997
Cr6   Cr    Cr6+3 0.656280 0.574630 0.003870 1.049301
H1    H     H_    0.836679 0.322928 0.300801 0.131469
H2    H     H_    0.445179 0.564734 0.288355 0.185034
H3    H     H_    0.848266 0.341016 0.212881 0.116106
H4    H     H_    0.859408 0.387425 0.875461 0.178142
H5    H     H_    0.932803 0.340982 0.710062 0.187906
H6    H     H_    0.510566 0.349914 0.873833 0.185295
H7    H     H_    0.401490 0.324379 0.709478 0.171921
H8    H     H_    0.971445 0.681636 0.780825 0.173260
H9    H     H_    0.322222 0.969899 0.812117 0.132270
H10   H     H_    0.348078 0.987477 0.724659 0.138159
H11   H     H_    0.823418 0.844470 0.703047 0.168298
H12   H     H_    0.165617 0.085241 0.221535 0.175129
H13   H     H_    0.065870 0.619045 0.136063 0.146695
H14   H     H_    0.051494 0.529730 0.208578 0.106648
H15   H     H_    0.064609 0.540398 0.296176 0.165814
H16   H     H_    0.939653 0.992178 0.157074 0.139122
H17   H     H_    0.963676 0.138869 0.160765 0.107620
H18   H     H_    0.974129 0.070847 0.104415 0.203224
H19   H     H_    0.364323 0.713823 0.360164 0.128296
H20   H     H_    0.341326 0.623198 0.408102 0.200964
H21   H     H_    0.324564 0.563300 0.346742 0.118481
H22   H     H_    0.876319 0.192994 0.822606 0.116223
H23   H     H_    0.178669 0.095022 0.309588 0.097404
H24   H     H_    0.958932 0.215767 0.767556 0.117343
H25   H     H_    0.034895 0.264486 0.826231 0.143649
H26   H     H_    0.318107 0.159233 0.821965 0.114705
H27   H     H_    0.256964 0.171887 0.764537 0.117536
H28   H     H_    0.215652 0.213428 0.821297 0.133965
H29   H     H_    0.592250 0.463506 0.589733 0.145746
H30   H     H_    0.551304 0.505353 0.648058 0.120272
H31   H     H_    0.447518 0.447479 0.596606 0.146824
H32   H     H_    0.911242 0.005933 0.820745 0.103896
H33   H     H_    0.974909 0.981533 0.765153 0.111426
H34   H     H_    0.223228 0.022796 0.380628 0.135666
H35   H     H_    0.020445 0.960572 0.822929 0.142510
H36   H     H_    0.431862 0.647110 0.851586 0.132973
H37   H     H_    0.388055 0.592351 0.788196 0.117421
H38   H     H_    0.300422 0.636192 0.824720 0.167970
H39   H     H_    0.335203 0.622496 0.711322 0.130170
H40   H     H_    0.417496 0.660667 0.656459 0.103584
H41   H     H_    0.298365 0.690867 0.666472 0.170120
H42   H     H_    0.424093 0.206234 0.328231 0.106918
H43   H     H_    0.366801 0.230293 0.272649 0.167843
H44   H     H_    0.345231 0.285990 0.330702 0.142728
H45   H     H_    0.767813 0.050993 0.369289 0.150757
H46   H     H_    0.818770 0.124611 0.208045 0.140167
H47   H     H_    0.823770 0.139415 0.295867 0.107768
H48   H     H_    0.540786 0.631089 0.128131 0.164145
H49   H     H_    0.441856 0.551374 0.200378 0.185806
O1    O     O_R   0.296680 0.802170 0.437540 -0.478035
O2    O     O_R   0.637200 0.461990 0.052510 -0.481957
O3    O     O_R   0.664790 0.681920 0.057970 -0.513893
O4    O     O_R   0.525380 0.838530 0.443500 -0.481356
O5    O     O_R   0.815840 0.852920 0.961840 -0.501995
O6    O     O_R   0.012100 0.822630 0.963670 -0.488870
O7    O     O_R   0.037010 0.668460 0.953040 -0.502006
O8    O     O_R   0.813390 0.478970 0.949660 -0.499761
O9    O     O_R   0.632250 0.456930 0.945520 -0.513081
O10   O     O_R   0.660200 0.677230 0.958780 -0.496542
O11   O     O_3   0.830870 0.661990 0.006950 -0.264018
O12   O     O_R   0.662610 0.183990 0.557860 -0.445277
O13   O     O_R   0.702130 0.995190 0.446810 -0.524758
O14   O     O_R   0.661770 0.181390 0.458760 -0.490681
O15   O     O_R   0.499820 0.198480 0.455280 -0.511006
O16   O     O_R   0.311660 0.976250 0.449080 -0.515807
O17   O     O_R   0.297580 0.804960 0.544440 -0.488903
O18   O     O_R   0.526220 0.841130 0.542590 -0.502130
O19   O     O_R   0.703030 0.997990 0.553710 -0.471749
O20   O     O_3   0.804080 0.017038 0.124995 -0.563848
O21   O     O_3   0.497335 0.667718 0.374925 -0.556951
O22   O     O_3   0.964504 0.362880 0.803818 -0.571694
O23   O     O_R   0.500730 0.201280 0.562180 -0.462777
O24   O     O_3   0.383313 0.327088 0.802725 -0.581615
O25   O     O_3   0.475297 0.327678 0.628133 -0.555128
O26   O     O_3   0.855854 0.833045 0.796337 -0.549665
O27   O     O_3   0.455448 0.772212 0.805845 -0.542350
O28   O     O_3   0.450032 0.798641 0.708282 -0.538534
O29   O     O_3   0.513151 0.374499 0.307514 -0.528593
O30   O     O_R   0.312500 0.978850 0.548170 -0.492614
O31   O     O_3   0.499990 0.999990 0.500010 -0.279770
O32   O     O_R   0.820790 0.857990 0.068830 -0.478955
O33   O     O_R   0.016700 0.827330 0.062850 -0.450899
O34   O     O_R   0.041970 0.673520 0.060040 -0.531729
O35   O     O_R   0.817980 0.483660 0.048840 -0.508536

loop_
_geom_bond_atom_site_label_1
_geom_bond_atom_site_label_2
_ccdc_geom_bond_type
C20   C38   A    
C15   C18   A    
C66   C68   S    
Cr4   O6    S    
C63   C65   A    
C14   H12   S    
C20   H45   S    
Cr4   O11   S    
C72   H11   S    
C16   O1    A    
C8    C83   S    
Cr2   O12   S    
C35   C36   A    
C86   O7    A    
Cr6   O3    S    
C7    C8    A    
C39   C41   A    
C53   C54   A    
C96   H35   S    
Cr4   O5    S    
C5    H14   S    
C98   H40   S    
C26   C27   A    
C72   C77   A    
C91   H17   S    
C5    C6    A    
C91   H16   S    
C52   O17   A    
C3    C7    A    
C53   O24   S    
C42   C46   A    
C23   O29   S    
C95   O25   S    
Cr1   O1    S    
C99   H44   S    
C56   C78   T    
C90   O10   A    
C97   H36   S    
C88   H3    S    
C27   C85   S    
C92   O21   S    
C33   C35   A    
C46   C47   A    
C93   O22   S    
C61   C66   A    
C9    C19   A    
C87   O8    A    
C44   H5    S    
C84   O35   A    
C49   C51   A    
Cr1   O17   S    
C91   O20   S    
C29   C38   A    
C94   H26   S    
Cr1   O4    S    
Cr4   O32   S    
Cr5   O34   S    
C93   H22   S    
Cr5   O8    S    
C9    C10   A    
C76   C88   A    
C9    H34   S    
C4    O15   A    
C13   C14   A    
C89   Cl4   S    
C85   O3    A    
C97   H37   S    
C2    C6    A    
C86   O6    A    
Cr6   O9    S    
C2    C11   A    
Cr1   O31   S    
C99   O29   S    
Cr6   O2    S    
C57   H6    S    
C40   O23   A    
C98   H41   S    
C73   C79   A    
C97   O27   S    
C40   C58   S    
C74   C75   A    
C62   C66   A    
Cr3   O23   S    
C64   C67   T    
C83   O33   A    
C92   H21   S    
C24   C25   A    
C45   C56   S    
C80   C82   T    
C93   H24   S    
C91   H18   S    
C7    H13   S    
C48   O25   S    
C46   H4    S    
C72   C73   A    
C97   H38   S    
C3    C5    A    
C26   O20   S    
C39   C58   A    
C96   H32   S    
Cr5   O7    S    
C29   O21   S    
C8    C18   A    
C90   O5    A    
C60   C61   A    
C51   C53   A    
C47   C87   S    
C37   H48   S    
C83   O34   A    
C2    C89   A    
C92   H20   S    
C43   C44   A    
C12   Cl3   S    
C62   C63   A    
C19   C89   A    
C52   C59   S    
C42   C55   A    
C47   C57   A    
C21   C31   A    
C87   O9    A    
C12   C23   A    
C77   C81   S    
C23   C34   A    
Cr3   O30   S    
C95   H30   S    
Cr5   O35   S    
C18   Cl5   S    
C75   C77   A    
C62   H9    S    
C1    C38   S    
C59   C69   T    
C24   H46   S    
C76   H1    S    
C45   C88   A    
Cr6   O11   S    
C16   O16   A    
C48   C49   A    
C60   C65   A    
C95   H31   S    
C98   O28   S    
C74   C79   A    
C25   H47   S    
C94   H28   S    
C41   C44   A    
C22   C24   A    
C28   C71   S    
C42   C43   A    
Cr2   O31   S    
C60   Cl2   S    
C70   C86   S    
C41   C50   A    
Cr5   O11   S    
C28   O18   A    
C15   C17   A    
C21   C25   A    
C54   C55   A    
C11   C17   A    
C32   H2    S    
C35   C37   A    
C61   H8    S    
C14   C15   A    
Cr2   O13   S    
C96   O26   S    
C75   O28   S    
C6    H15   S    
Cr1   O18   S    
C12   C45   A    
C93   H25   S    
C10   C13   A    
C34   C67   S    
C73   O26   S    
C48   C58   A    
Cr3   O15   S    
C85   O32   A    
C22   C36   A    
C99   H42   S    
C4    C64   S    
C1    O13   A    
C95   H29   S    
C50   C55   A    
C82   C90   S    
C4    O14   A    
C32   C33   A    
C92   H19   S    
C54   C57   A    
C96   H33   S    
C30   C32   A    
C63   H10   S    
C39   Cl1   S    
C30   C31   A    
Cr3   O16   S    
C27   C37   A    
C16   C19   S    
C65   C69   S    
C99   H43   S    
Cr3   O31   S    
C51   H7    S    
Cr2   O14   S    
C43   O22   S    
C3    C17   A    
C52   O30   A    
C13   H23   S    
C10   C11   A    
C29   C30   A    
C79   C80   S    
Cr6   O10   S    
C78   C84   S    
C20   C21   A    
C1    O4    A    
C68   C70   T    
C49   C50   A    
C22   C26   A    
C94   H27   S    
C31   C36   A    
Cr4   O33   S    
C74   O27   S    
C94   O24   S    
C28   O19   A    
Cr2   O19   S    
C40   O12   A    
C84   O2    A    
C33   H49   S    
C34   C76   A    
C71   C81   T    
C98   H39   S    
