data_mof_unit_29509.cif
_audit_creation_date              2013-03-05T16:00:38-0500
_audit_creation_method            fapswitch 2.2
_symmetry_space_group_name_H-M    P1
_symmetry_Int_Tables_number       1
_space_group_crystal_system       triclinic
_cell_length_a                    8.382505
_cell_length_b                    12.807628
_cell_length_c                    19.16762
_cell_angle_alpha                 100.386313
_cell_angle_beta                  91.63784
_cell_angle_gamma                 98.288999
_cell_volume                      1999.82158043

loop_
_atom_site_label
_atom_site_type_symbol
_atom_site_description
_atom_site_fract_x
_atom_site_fract_y
_atom_site_fract_z
_atom_type_partial_charge
P1    P     P_3+3 0.042930 0.392230 0.337410 0.500736
O1    O     O_2   0.875110 0.423180 0.326290 -0.340878
O2    O     O_3   0.123410 0.433040 0.414950 -0.406363
O3    O     O_3   0.661010 0.625070 0.369680 -0.392668
O4    O     O_2   0.715655 0.515052 0.248807 -0.401333
O5    O     O_3   0.011930 0.251949 0.318343 -0.528201
O6    O     O_3   0.712675 0.722105 0.249895 -0.521103
H1    H     H_    0.754554 0.834137 0.343234 0.140941
C1    C     C_3   0.671895 0.905231 0.257346 -0.878403
H2    H     H_    0.670893 0.979470 0.297772 0.248542
H3    H     H_    0.782392 0.913633 0.226906 0.279730
P2    P     P_3+3 0.672230 0.754900 0.555730 0.547139
P3    P     P_3+3 0.140323 0.821457 0.407560 0.473736
O7    O     O_2   0.847800 0.768730 0.534310 -0.434105
O8    O     O_3   0.082250 0.684470 0.405440 -0.352830
O9    O     O_2   0.036512 0.880218 0.462538 -0.383274
O10   O     O_3   0.688711 0.801727 0.647496 -0.523156
O11   O     O_3   0.073732 0.850637 0.326928 -0.525757
C2    C     C_3   0.145527 0.788030 0.272194 0.439568
H4    H     H_    0.098714 0.701171 0.268904 0.111728
H5    H     H_    0.279441 0.802308 0.281022 0.013654
C3    C     C_3   0.105091 0.819289 0.201475 -0.945015
H6    H     H_    0.979671 0.782835 0.181606 0.273718
H7    H     H_    0.117343 0.908183 0.207774 0.270248
C4    C     C_3   0.139566 0.797720 0.638395 0.858020
H8    H     H_    0.029840 0.751889 0.611256 0.043619
C5    C     C_3   0.096937 0.906638 0.672606 -1.011368
H9    H     H_    0.167629 0.938299 0.723735 0.280912
H10   H     H_    0.119381 0.962960 0.635152 0.285748
H11   H     H_    0.967602 0.899663 0.684770 0.240973
Ba1   Ba    Ba6+2 0.853180 0.547790 0.465300 1.624413
C6    C     C_3   0.958084 0.210114 0.377482 0.409645
H12   H     H_    0.828369 0.215601 0.381690 0.095636
H13   H     H_    0.026782 0.251229 0.427700 0.107170
C7    C     C_3   0.981076 0.092869 0.365603 -0.869857
H14   H     H_    0.941194 0.053781 0.310351 0.282928
H15   H     H_    0.910863 0.049907 0.402685 0.210241
H16   H     H_    0.110789 0.087232 0.373423 0.260252
C8    C     C_3   0.705293 0.717252 0.683171 0.319082
H17   H     H_    0.824002 0.691322 0.672952 -0.067161
H18   H     H_    0.607847 0.647891 0.666459 0.131491
C9    C     C_3   0.699107 0.757574 0.763017 -0.107213
H19   H     H_    0.796257 0.827093 0.780753 0.119782
H20   H     H_    0.720943 0.692595 0.791858 0.050680
P4    P     P_3+3 0.146790 0.607860 0.662600 0.544393
O12   O     O_2   0.314600 0.576860 0.673750 -0.307468
O13   O     O_3   0.066300 0.567050 0.585060 -0.393348
O14   O     O_3   0.528700 0.375020 0.630330 -0.375761
O15   O     O_3   0.192821 0.746616 0.690480 -0.557822
P5    P     P_3+3 0.067211 0.175269 0.589747 0.461617
O16   O     O_3   0.611760 0.365720 0.463870 -0.400292
O17   O     O_3   0.107460 0.315620 0.594570 -0.375821
O18   O     O_2   0.199174 0.123676 0.547345 -0.392972
O19   O     O_3   0.097946 0.147212 0.675532 -0.620617
Ba2   Ba    Ba6+2 0.336650 0.452300 0.534710 1.620485
P6    P     P_3+3 0.623834 0.607100 0.279208 0.416958
C10   C     C_3   0.668297 0.811028 0.295697 0.415475
H21   H     H_    0.543610 0.795253 0.313892 -0.001593
H22   H     H_    0.562465 0.894086 0.220405 0.247500
O20   O     O_3   0.577950 0.634370 0.536140 -0.363177
C11   C     C_3   0.476488 0.276551 0.316474 0.254570
H23   H     H_    0.357046 0.300622 0.329475 0.047674
H24   H     H_    0.573160 0.346115 0.334125 0.129987
C12   C     C_3   0.480200 0.243182 0.235724 -0.100751
H25   H     H_    0.387831 0.171428 0.216818 0.127801
H26   H     H_    0.449247 0.309663 0.210029 0.065590
P7    P     P_3+3 0.519750 0.229791 0.440727 0.434462
O21   O     O_2   0.341900 0.231310 0.465740 -0.363752
O22   O     O_3   0.499159 0.188882 0.348347 -0.565038
H27   H     H_    0.189918 0.789763 0.161408 0.220366
C13   C     C_3   0.059852 0.230156 0.728318 0.881601
H28   H     H_    0.127814 0.309148 0.722504 0.033761
C14   C     C_3   0.110480 0.211028 0.802709 -1.005099
H29   H     H_    0.226550 0.265393 0.824152 0.244344
H30   H     H_    0.019587 0.229251 0.844011 0.269276
H31   H     H_    0.122720 0.124231 0.799914 0.267238
P8    P     P_3+3 0.560558 0.401616 0.722840 0.455484
C15   C     C_3   0.471038 0.198034 0.703787 0.480069
H32   H     H_    0.574831 0.192643 0.670200 0.146438
O23   O     O_2   0.451883 0.484274 0.752053 -0.434595
O24   O     O_3   0.490839 0.288533 0.758652 -0.539398
H33   H     H_    0.368397 0.201038 0.667756 0.135468
H34   H     H_    0.560146 0.072616 0.752041 0.301922
C16   C     C_3   0.444772 0.096759 0.735187 -0.751479
H35   H     H_    0.385146 0.031218 0.693179 0.263985
H36   H     H_    0.370398 0.106051 0.782468 0.242347
C17   C     C_R   0.067921 0.567382 0.803519 -0.286456
H37   H     H_    0.173347 0.625105 0.823031 0.206305
C18   C     C_R   0.021959 0.552085 0.729790 0.246998
C19   C     C_R   0.837397 0.439970 0.816966 -0.288849
H38   H     H_    0.779480 0.373916 0.839029 0.204889
C20   C     C_R   0.768734 0.457094 0.753367 0.368942
C21   C     C_R   0.337439 0.591158 0.193957 -0.364699
H39   H     H_    0.389510 0.662129 0.174888 0.147504
C22   C     C_R   0.408331 0.570009 0.255879 0.244720
C23   C     C_R   0.121392 0.447646 0.199304 -0.291282
H40   H     H_    0.018893 0.388860 0.176781 0.194417
C24   C     C_R   0.167757 0.454756 0.272464 0.295629
C25   C     C_R   0.979926 0.504744 0.849572 0.027561
C26   C     C_R   0.866270 0.504324 0.707441 -0.415898
H41   H     H_    0.820440 0.503060 0.653913 0.152015
C27   C     C_R   0.203245 0.520749 0.157845 0.089819
C28   C     C_R   0.318077 0.509707 0.297662 -0.458699
H42   H     H_    0.366868 0.503688 0.349426 0.157941
C29   C     C_R   0.757081 0.453039 0.968643 -0.175088
C30   C     C_R   0.656467 0.418926 0.018953 -0.118078
C31   C     C_R   0.707785 0.446713 0.089480 -0.000547
C32   C     C_R   0.864893 0.497393 0.107881 -0.134111
C33   C     C_R   0.981612 0.500773 0.056871 0.041939
C34   C     C_R   0.925224 0.486117 0.983384 0.095307
C35   C     C_R   0.148383 0.524709 0.079674 -0.053945
C36   C     C_R   0.257709 0.547015 0.025670 0.099994
C37   C     C_R   0.201722 0.528913 0.951808 0.057654
C38   C     C_R   0.034918 0.505232 0.928760 -0.037759
C39   C     C_R   0.424806 0.586250 0.041101 -0.195288
C40   C     C_R   0.523978 0.618418 0.989433 -0.122674
C41   C     C_R   0.473744 0.584212 0.918595 -0.005037
C42   C     C_R   0.319125 0.529142 0.901028 -0.153027
H43   H     H_    0.693046 0.462277 0.921951 0.124750
H44   H     H_    0.530780 0.386800 0.004380 0.141370
H45   H     H_    0.621488 0.435102 0.129007 0.162305
H46   H     H_    0.897227 0.533996 0.162094 0.182224
H47   H     H_    0.489623 0.585266 0.089709 0.143866
H48   H     H_    0.648661 0.654050 0.003704 0.139187
H49   H     H_    0.558946 0.592917 0.878054 0.147180
H50   H     H_    0.289732 0.486917 0.847638 0.178909
C43   C     C_R   0.770109 0.179374 0.520181 -0.432798
C44   C     C_R   0.458418 0.803471 0.453198 -0.388277
C45   C     C_R   0.412056 0.981061 0.442010 -0.167821
C46   C     C_R   0.356770 0.871510 0.432908 0.183863
C47   C     C_R   0.594486 0.845802 0.499787 0.409706
C48   C     C_R   0.654084 0.958394 0.508595 -0.079821
C49   C     C_R   0.562729 0.025823 0.477118 -0.050480
C50   C     C_R   0.621171 0.137134 0.484350 0.212391
C51   C     C_R   0.863684 0.114412 0.548902 0.302766
C52   C     C_R   0.802392 0.005777 0.546296 -0.196414
H51   H     H_    0.333333 0.030642 0.423208 0.175943
H52   H     H_    0.874121 0.959252 0.572079 0.182924
H53   H     H_    0.816415 0.263686 0.523779 0.171997
H54   H     H_    0.418664 0.717693 0.441206 0.179406
N1    N     N_R   0.542553 0.790546 0.779830 0.296850
O25   O     O_R   0.494933 0.868288 0.753596 -0.327647
O26   O     O_R   0.457006 0.749536 0.826588 -0.402535
N2    N     N_R   0.639552 0.218102 0.215435 0.289433
O27   O     O_R   0.714580 0.263405 0.167496 -0.397162
O28   O     O_R   0.700652 0.142871 0.239761 -0.368384
N3    N     N_R   0.887643 0.233111 0.721459 0.192079
O29   O     O_R   0.832946 0.276311 0.671137 -0.516516
O30   O     O_R   0.789337 0.201977 0.767806 -0.468272
N4    N     N_R   0.264808 0.805695 0.588024 0.215620
O31   O     O_R   0.376241 0.890183 0.598462 -0.457078
O32   O     O_R   0.296750 0.716241 0.551268 -0.401238

loop_
_geom_bond_atom_site_label_1
_geom_bond_atom_site_label_2
_geom_bond_distance
_ccdc_geom_bond_type
O14   P8    1.749429 S    
O14   Ba2   2.806303 S    
C13   N3    1.452321 S    
C29   C34   1.416968 A    
P8    C20   1.823907 S    
C21   H39   1.079285 S    
P2    C47   1.886513 S    
C23   C27   1.446748 A    
C5    H10   1.107459 S    
C14   H29   1.130934 S    
O4    P6    1.536679 D    
O5    C6    1.397952 S    
C2    H4    1.114881 S    
C43   C50   1.394750 A    
O7    Ba1   2.906819 S    
C17   H37   1.077245 S    
C25   C38   1.572301 S    
Ba2   O21   2.906995 S    
C19   H38   1.073574 S    
C51   C52   1.403460 A    
C8    H18   1.110054 S    
P4    O12   1.535080 D    
C40   C41   1.382930 A    
P5    O19   1.764847 S    
C43   H53   1.082691 S    
P3    O11   1.748991 S    
N3    O30   1.304640 A    
C43   C51   1.392560 A    
O11   C2    1.406311 S    
P5    C51   1.857776 S    
C33   C35   1.425656 A    
C30   C31   1.374153 A    
P6    C22   1.821731 S    
C24   C28   1.379600 A    
P1    Ba1   3.447339 S    
C32   C33   1.404577 A    
P1    O1    1.534802 D    
O10   C8    1.400775 S    
C11   H24   1.110134 S    
N3    O29   1.298850 A    
O2    Ba2   2.821255 S    
O19   C13   1.408159 S    
C35   C36   1.441634 A    
C48   C49   1.431221 A    
C23   C24   1.427738 A    
O12   Ba2   2.874362 S    
P3    C46   1.854963 S    
P5    O17   1.765518 S    
C31   C32   1.387269 A    
P4    O15   1.743769 S    
P4    C18   1.859327 S    
C1    H2    1.114266 S    
C34   C38   1.443693 A    
O16   Ba2   2.960560 S    
O17   Ba2   2.819994 S    
C21   C22   1.399022 A    
Ba1   O13   2.820655 S    
Ba2   O20   2.853690 S    
O3    P6    1.720989 S    
C5    H11   1.109847 S    
C14   H30   1.131743 S    
C27   C35   1.566485 S    
C9    H20   1.111639 S    
O6    P6    1.745250 S    
C36   C37   1.445917 A    
C22   C28   1.378208 A    
C8    C9    1.529378 S    
C17   C25   1.445281 A    
P4    O13   1.580592 S    
P5    O18   1.545751 D    
C39   H47   1.068023 S    
C18   C26   1.379951 A    
P7    O21   1.580718 D    
C6    C7    1.518736 S    
C2    C3    1.523527 S    
C16   H35   1.102307 S    
C52   H52   1.073933 S    
C32   H46   1.069886 S    
C8    H17   1.105350 S    
C13   C14   1.547464 S    
C15   H32   1.099783 S    
C12   N2    1.465285 S    
C4    H8    1.080755 S    
P1    O5    1.747084 S    
C4    N4    1.451678 S    
P1    O2    1.580566 S    
C7    H14   1.106489 S    
C6    H13   1.110649 S    
Ba1   O20   2.961409 S    
P2    O10   1.747709 S    
C11   C12   1.532105 S    
N4    O32   1.299553 A    
H1    C10   1.115356 S    
C15   H33   1.097209 S    
C19   C20   1.399332 A    
H34   C16   1.113426 S    
P3    O8    1.744630 S    
P8    O24   1.745765 S    
C48   C52   1.417393 A    
C23   H40   1.080063 S    
P7    C50   1.854262 S    
C9    N1    1.462621 S    
O16   P7    1.771245 S    
O2    Ba1   2.965795 S    
C1    H3    1.111178 S    
C45   C49   1.407214 A    
N2    O28   1.303354 A    
P2    O7    1.533458 D    
C17   C18   1.425215 A    
P2    Ba1   3.463227 S    
C49   C50   1.419552 A    
C14   H31   1.122903 S    
C3    H7    1.112370 S    
C9    H19   1.112419 S    
C31   H45   1.077208 S    
C47   C48   1.434298 A    
C44   C47   1.407568 A    
C19   C25   1.410972 A    
C5    H9    1.109166 S    
C20   C26   1.378348 A    
O13   Ba2   2.966643 S    
C37   C38   1.427001 A    
P8    O23   1.535457 D    
C11   O22   1.404395 S    
C40   H48   1.084687 S    
C30   H44   1.083544 S    
N4    O31   1.305098 A    
C3    H6    1.113457 S    
C29   H43   1.064014 S    
Ba1   O16   2.854286 S    
N2    O27   1.302541 A    
C44   C46   1.397849 A    
C21   C27   1.412661 A    
O8    Ba1   2.819385 S    
C4    C5    1.526744 S    
C29   C30   1.387179 A    
C41   C42   1.384392 A    
Ba1   Ba2   4.625757 S    
C12   H25   1.110907 S    
N1    O26   1.300468 A    
C45   C46   1.390503 A    
P1    C24   1.864973 S    
C7    H15   1.107210 S    
N1    O25   1.298945 A    
C6    H12   1.103971 S    
C15   O24   1.404279 S    
C10   H21   1.113656 S    
C41   H49   1.079985 S    
C16   H36   1.113083 S    
C26   H41   1.081761 S    
C3    H27   1.114645 S    
C1    C10   1.519052 S    
C44   H54   1.081591 S    
C11   H23   1.111380 S    
C4    O15   1.385192 S    
O3    Ba1   2.806915 S    
C37   C42   1.403861 A    
P2    O20   1.603393 S    
C15   C16   1.516529 S    
C13   H28   1.112920 S    
C45   H51   1.076265 S    
P4    Ba2   3.447857 S    
P3    O9    1.545771 D    
C28   H42   1.082179 S    
C7    H16   1.107769 S    
O1    Ba1   2.873970 S    
C42   H50   1.071477 S    
P7    O22   1.749750 S    
C33   C34   1.443519 A    
C1    H22   1.118859 S    
O6    C10   1.409445 S    
C36   C39   1.421871 A    
C39   C40   1.391786 A    
C12   H26   1.114665 S    
C2    H5    1.113986 S    
