data_mof_unit_26269.cif
_audit_creation_date              2013-03-05T15:59:22-0500
_audit_creation_method            fapswitch 2.2
_symmetry_space_group_name_H-M    P1
_symmetry_Int_Tables_number       1
_space_group_crystal_system       triclinic
_cell_length_a                    10.526693
_cell_length_b                    12.591526
_cell_length_c                    13.186451
_cell_angle_alpha                 82.346579
_cell_angle_beta                  90.179104
_cell_angle_gamma                 102.011077
_cell_volume                      1693.78745552

loop_
_atom_site_label
_atom_site_type_symbol
_atom_site_description
_atom_site_fract_x
_atom_site_fract_y
_atom_site_fract_z
_atom_type_partial_charge
O1    O     O_R   0.467970 0.366730 0.627150 -0.571461
O2    O     O_R   0.510820 0.544830 0.662520 -0.627622
C1    C     C_R   0.480255 0.438613 0.691645 0.858961
O3    O     O_R   0.664630 0.410960 0.482340 -0.624750
O4    O     O_R   0.707470 0.589060 0.517710 -0.616950
C2    C     C_R   0.741868 0.500246 0.499580 0.917842
Zn1   Zn    Zn3+2 0.471390 0.381080 0.476380 1.018694
Zn2   Zn    Zn3+2 0.528610 0.618920 0.523620 0.982960
O5    O     O_R   0.489180 0.455170 0.337480 -0.611751
O6    O     O_R   0.532030 0.633270 0.372850 -0.648909
O7    O     O_R   0.292530 0.410940 0.482290 -0.587201
O8    O     O_R   0.335370 0.589040 0.517660 -0.616966
C3    C     C_R   0.516239 0.561258 0.309050 0.921717
C4    C     C_R   0.258026 0.500042 0.499978 0.946530
C5    C     C_3   0.934842 0.407085 0.466267 -0.158024
C6    C     C_3   0.020113 0.413141 0.562418 -0.235250
H1    H     H_    0.879921 0.331662 0.438500 0.190893
C7    C     C_3   0.123227 0.501237 0.499092 -0.196302
C8    C     C_3   0.038575 0.496081 0.405314 0.292205
C9    C     C_3   0.977606 0.588982 0.434557 -0.241369
C10   C     C_3   0.060907 0.591557 0.530373 0.326333
C11   C     C_3   0.958048 0.505409 0.594927 -0.199433
C12   C     C_3   0.876486 0.500193 0.498516 -0.115900
H2    H     H_    0.957606 0.660189 0.382513 0.222820
H3    H     H_    0.921306 0.510801 0.672518 0.181623
C13   C     C_R   0.474638 0.725522 0.058679 -0.056177
H4    H     H_    0.492336 0.762231 0.212550 0.185721
H5    H     H_    0.444654 0.801542 0.032794 0.218311
C14   C     C_R   0.522883 0.599715 0.200242 -0.066229
C15   C     C_R   0.514745 0.302952 0.840434 0.266906
C16   C     C_R   0.581176 0.298021 0.932024 -0.202339
C17   C     C_R   0.601937 0.386071 0.988486 0.225692
C18   C     C_R   0.532517 0.471844 0.963639 -0.022565
C19   C     C_R   0.469135 0.478974 0.869463 -0.030666
C20   C     C_R   0.521960 0.549768 0.029484 0.087379
C21   C     C_R   0.475831 0.645979 0.993229 0.004333
C22   C     C_R   0.418046 0.653873 0.897495 0.266192
C23   C     C_R   0.404578 0.566115 0.841574 -0.172979
C24   C     C_R   0.537771 0.526055 0.134099 -0.107171
C25   C     C_R   0.500701 0.703006 0.161846 -0.112405
C26   C     C_R   0.475691 0.401343 0.802573 -0.199714
H6    H     H_    0.549813 0.445424 0.166298 0.178219
H7    H     H_    0.624551 0.228216 0.955943 0.234108
H8    H     H_    0.345982 0.568238 0.774012 0.208557
C27   C     C_R   0.346908 0.099008 0.327731 0.249948
H9    H     H_    0.330753 0.267647 0.314426 0.193864
N1    N     N_R   0.432930 0.222190 0.444670 -0.135871
C28   C     C_R   0.651517 0.799309 0.630391 0.057414
C29   C     C_R   0.683797 0.904371 0.656903 -0.148289
C30   C     C_R   0.627165 0.986106 0.605872 -0.087308
C31   C     C_R   0.536379 0.962640 0.528235 0.042439
C32   C     C_R   0.509228 0.855048 0.502805 0.207212
C33   C     C_R   0.474129 0.041879 0.473885 -0.066076
C34   C     C_R   0.392307 0.014555 0.390262 -0.065507
C35   C     C_R   0.358668 0.904222 0.372450 0.298207
C36   C     C_R   0.421369 0.828100 0.425962 -0.244789
C37   C     C_R   0.489817 0.148121 0.499955 0.039137
C38   C     C_R   0.364812 0.201596 0.359961 -0.043033
N2    N     N_R   0.566370 0.776980 0.554790 -0.126376
H10   H     H_    0.546139 0.175010 0.563481 0.161679
H11   H     H_    0.658445 0.066742 0.627506 0.170946
H12   H     H_    0.752889 0.922605 0.716391 0.185601
H13   H     H_    0.396138 0.746666 0.407940 0.228254
H14   H     H_    0.040638 0.341968 0.614191 0.198486
N3    N     N_R   0.494755 0.210628 0.784538 0.227026
O9    O     O_R   0.381901 0.177248 0.745852 -0.320972
O10   O     O_R   0.578932 0.147797 0.789080 -0.393905
N4    N     N_R   0.703435 0.392482 0.062137 0.202824
O11   O     O_R   0.784586 0.485077 0.066256 -0.311496
O12   O     O_R   0.726240 0.303754 0.114951 -0.337776
N5    N     N_R   0.251311 0.864976 0.309674 0.249855
O13   O     O_R   0.253727 0.783252 0.259322 -0.367241
O14   O     O_R   0.141975 0.896328 0.318053 -0.293773
N6    N     N_R   0.298285 0.086970 0.226997 0.240329
O15   O     O_R   0.359543 0.042220 0.164354 -0.327578
O16   O     O_R   0.208949 0.138405 0.191391 -0.307854
H15   H     H_    0.694916 0.735138 0.669625 0.150505
N7    N     N_R   0.080657 0.490838 0.301214 0.239736
O17   O     O_R   0.996236 0.484243 0.228948 -0.266486
O18   O     O_R   0.202153 0.495654 0.279110 -0.383838
N8    N     N_R   0.128995 0.691308 0.567652 0.228436
O19   O     O_R   0.108897 0.786041 0.527004 -0.336978
O20   O     O_R   0.197793 0.684962 0.649331 -0.337319
N9    N     N_R   0.360911 0.745048 0.860920 0.219489
O21   O     O_R   0.235786 0.731006 0.851168 -0.267690
O22   O     O_R   0.433842 0.842173 0.837026 -0.335098

loop_
_geom_bond_atom_site_label_1
_geom_bond_atom_site_label_2
_geom_bond_distance
_ccdc_geom_bond_type
C35   C36   1.390148 A    
C7    C10   1.526774 S    
C4    C7    1.422189 S    
C8    C9    1.537248 S    
N8    O19   1.299575 A    
C33   C34   1.431071 A    
Zn1   O7    1.998936 S    
C16   H7    1.082962 S    
C3    C14   1.448953 S    
C21   C22   1.400175 A    
N9    O22   1.300919 A    
Zn2   N2    2.043407 S    
C15   C16   1.394398 A    
O7    C4    1.298026 A    
N7    O18   1.299886 A    
C5    C6    1.552167 S    
Zn1   O5    1.932469 S    
C7    C8    1.522463 S    
O5    C3    1.309579 A    
C5    C8    1.533120 S    
C20   C21   1.421629 A    
N4    O11   1.301570 A    
N3    O10   1.301336 A    
C11   H3    1.110379 S    
C15   C26   1.413890 A    
C17   N4    1.438671 S    
C5    C12   1.538435 S    
O1    Zn1   1.971959 S    
C10   C11   1.531209 S    
H9    C38   1.081912 S    
C19   C26   1.412929 A    
O3    Zn1   1.993477 S    
N8    O20   1.298935 A    
C18   C19   1.409058 A    
C24   H6    1.079591 S    
C27   C38   1.388933 A    
N6    O15   1.301619 A    
C31   C32   1.410228 A    
C9    H2    1.110388 S    
N9    O21   1.300288 A    
O3    C2    1.289629 A    
N5    O14   1.301630 A    
C33   C37   1.401869 A    
N7    O17   1.299923 A    
C37   H10   1.075519 S    
C27   N6    1.437522 S    
C31   C33   1.420284 A    
Zn1   N1    2.055741 S    
C28   H15   1.081691 S    
C8    N7    1.457748 S    
C20   C24   1.389028 A    
C23   H8    1.082577 S    
C22   C23   1.391423 A    
C32   N2    1.364566 A    
N1    C37   1.344807 A    
C16   C17   1.396162 A    
C9    C12   1.534090 S    
H4    C25   1.082312 S    
Zn2   O8    1.993479 S    
C14   C24   1.386493 A    
C30   C31   1.416204 A    
C36   H13   1.062820 S    
C22   N9    1.431919 S    
N6    O16   1.301537 A    
C13   C21   1.408439 A    
C28   C29   1.386749 A    
O8    C4    1.289081 A    
C27   C34   1.419358 A    
N3    O9    1.301423 A    
C28   N2    1.356631 A    
C5    H1    1.110415 S    
C34   C35   1.411462 A    
C1    C26   1.473212 S    
C6    C11   1.552656 S    
C29   H12   1.082558 S    
C19   C23   1.415031 A    
Zn2   O6    1.971961 S    
O2    Zn2   1.932467 S    
C10   N8    1.456205 S    
O6    C3    1.302748 A    
O4    Zn2   1.998933 S    
C13   H5    1.081865 S    
C17   C18   1.428469 A    
O2    C1    1.313248 A    
N5    O13   1.301298 A    
N1    C38   1.350513 A    
C13   C25   1.390559 A    
O4    C2    1.295830 A    
C2    C12   1.417341 S    
C14   C25   1.397381 A    
C18   C20   1.414874 A    
C15   N3    1.436804 S    
C30   H11   1.076162 S    
C9    C10   1.535739 S    
C6    C7    1.537455 S    
C29   C30   1.391323 A    
N4    O12   1.301606 A    
C11   C12   1.532871 S    
C6    H14   1.110218 S    
O1    C1    1.309528 A    
C35   N5    1.441278 S    
C32   C36   1.397270 A    
