data_mof_unit_34827.cif
_audit_creation_date              2012-12-10T18:58:12-0500
_audit_creation_method            fapswitch 2.2
_symmetry_space_group_name_H-M    P1
_symmetry_Int_Tables_number       1
_space_group_crystal_system       triclinic
_cell_length_a                    11.020586
_cell_length_b                    10.846488
_cell_length_c                    9.561769
_cell_angle_alpha                 90.867755
_cell_angle_beta                  102.237295
_cell_angle_gamma                 90.789763
_cell_volume                      1116.69549167

loop_
_atom_site_label
_atom_site_type_symbol
_atom_type_description
_atom_site_fract_x
_atom_site_fract_y
_atom_site_fract_z
_atom_type_partial_charge
C1    C     C_R   0.496613 0.262572 0.498002 0.796514
C2    C     C_R   0.483754 0.129734 0.490362 -0.080674
C3    C     C_R   0.515185 0.063133 0.376561 -0.216430
C4    C     C_R   0.517553 0.934819 0.379616 -0.207466
C5    C     C_R   0.488706 0.871404 0.496135 -0.106223
C6    C     C_R   0.438995 0.938502 0.596231 0.059299
C7    C     C_3   0.466763 0.940732 0.756685 -0.056308
C8    C     C_3   0.460188 0.080908 0.750870 -0.444240
C9    C     C_R   0.602706 0.541050 0.099100 0.215828
C10   C     C_R   0.404819 0.447727 0.050163 -0.081414
C11   C     C_R   0.404840 0.447710 0.901517 -0.089183
C12   C     C_R   0.262709 0.497107 0.442344 0.862296
C13   C     C_R   0.601849 0.540222 0.951374 0.229923
C14   C     C_3   0.659238 0.664316 0.955986 -0.557980
C15   C     C_3   0.660572 0.669037 0.115509 -0.095874
C16   C     C_R   0.498167 0.737867 0.500258 0.785119
C17   C     C_R   0.737044 0.497242 0.557990 0.856112
C18   C     C_2   0.127696 0.485133 0.411305 -0.362864
C19   C     C_2   0.067952 0.479721 0.519049 -0.156405
C20   C     C_2   0.871985 0.495443 0.591715 -0.355079
C21   C     C_2   0.933715 0.465169 0.490865 -0.153762
C22   C     C_R   0.436245 0.065524 0.592526 0.069013
Cu1   Cu    Cu3+1 0.499990 0.499980 0.640670 0.927108
Cu2   Cu    Cu3+1 0.500010 0.500020 0.359330 0.935281
H1    H     H_    0.884811 0.432979 0.385677 0.167037
H2    H     H_    0.550776 0.127585 0.796160 0.187342
H3    H     H_    0.326815 0.406889 0.085716 0.139214
H4    H     H_    0.326836 0.406841 0.826459 0.134247
H5    H     H_    0.751254 0.660587 0.926022 0.187219
H6    H     H_    0.594448 0.730015 0.894638 0.206365
H7    H     H_    0.596486 0.738573 0.143145 0.179811
H8    H     H_    0.117866 0.489766 0.629774 0.173893
H9    H     H_    0.921267 0.522803 0.698825 0.140400
H10   H     H_    0.077140 0.478290 0.300641 0.140868
H11   H     H_    0.545447 0.109673 0.290140 0.162494
H12   H     H_    0.548618 0.886316 0.294743 0.155239
H13   H     H_    0.562165 0.910033 0.802877 0.151341
H14   H     H_    0.379119 0.121320 0.785933 0.194145
N1    N     N_R   0.500780 0.500930 0.148120 -0.193108
N2    N     N_R   0.500790 0.500890 0.852210 -0.181864
O1    O     O_R   0.500000 0.319640 0.618810 -0.580863
O2    O     O_R   0.500010 0.319680 0.381230 -0.587954
O3    O     O_R   0.320680 0.500000 0.575130 -0.588777
O4    O     O_R   0.320690 0.500040 0.337550 -0.585875
O5    O     O_R   0.499990 0.680320 0.618770 -0.589262
O6    O     O_R   0.500000 0.680360 0.381190 -0.582581
O7    O     O_R   0.679310 0.499960 0.662450 -0.580065
O8    O     O_R   0.679320 0.500000 0.424870 -0.574750
C23   C     C_3   0.794113 0.678416 0.207006 -0.334817
C24   C     C_3   0.802281 0.758970 0.341079 -0.819166
H15   H     H_    0.779702 0.855719 0.310655 0.232653
H16   H     H_    0.737491 0.725662 0.406540 0.266372
H17   H     H_    0.898196 0.757295 0.406975 0.242026
H18   H     H_    0.829886 0.585638 0.236280 0.202514
H19   H     H_    0.858117 0.721169 0.145316 0.198682
C25   C     C_3   0.363634 0.878579 0.818233 -0.354887
C26   C     C_3   0.378652 0.908252 0.977642 -0.844965
H20   H     H_    0.475928 0.894553 0.034373 0.239381
H21   H     H_    0.353840 0.005419 0.994355 0.251607
H22   H     H_    0.316628 0.846934 0.024181 0.246185
H23   H     H_    0.270393 0.908360 0.760674 0.205900
H24   H     H_    0.368188 0.777099 0.803343 0.221409

loop_
_geom_bond_atom_site_label_1
_geom_bond_atom_site_label_2
_ccdc_geom_bond_type
C10   H3    S    
C2    C22   A    
C8    C22   S    
Cu1   Cu2   S    
C4    H12   S    
C15   H7    S    
C6    C7    S    
Cu1   O5    S    
C8    H2    S    
C24   H16   S    
Cu1   O1    S    
C17   O8    A    
C3    H11   S    
Cu2   O6    S    
Cu2   N1    S    
C14   C15   S    
C2    C3    A    
C7    H13   S    
Cu1   O3    S    
C7    C8    S    
C12   O4    A    
C13   C14   S    
C25   C26   S    
C18   H10   S    
C13   N2    A    
C26   H20   S    
C11   N2    A    
C8    H14   S    
C11   H4    S    
C14   H6    S    
C20   H9    S    
C7    C25   S    
C1    O1    A    
C19   C21   S    
C18   C19   D    
C12   O3    A    
C15   C23   S    
C9    C15   S    
C5    C6    A    
Cu2   O4    S    
C25   H24   S    
C26   H21   S    
C24   H17   S    
Cu1   O7    S    
C10   C11   A    
C19   H8    S    
C16   O5    A    
C12   C18   S    
Cu1   N2    S    
C6    C22   A    
C17   O7    A    
C1    O2    A    
C9    N1    A    
C17   C20   S    
Cu2   O2    S    
C20   C21   D    
C1    C2    S    
C16   O6    A    
C23   C24   S    
C9    C13   A    
C25   H23   S    
C4    C5    A    
C26   H22   S    
C21   H1    S    
C14   H5    S    
C24   H15   S    
C23   H19   S    
C3    C4    A    
C23   H18   S    
C10   N1    A    
C5    C16   S    
Cu2   O8    S    
