data_mof_unit_45589.cif
_audit_creation_date              2012-12-11T14:33:10-0500
_audit_creation_method            fapswitch 2.2
_symmetry_space_group_name_H-M    P1
_symmetry_Int_Tables_number       1
_space_group_crystal_system       triclinic
_cell_length_a                    6.943542
_cell_length_b                    13.745734
_cell_length_c                    17.966867
_cell_angle_alpha                 112.447482
_cell_angle_beta                  95.39936
_cell_angle_gamma                 90.372936
_cell_volume                      1576.18687185

loop_
_atom_site_label
_atom_site_type_symbol
_atom_type_description
_atom_site_fract_x
_atom_site_fract_y
_atom_site_fract_z
_atom_type_partial_charge
O1    O     O_R   0.484560 0.544530 0.414330 -0.517822
O2    O     O_R   0.197040 0.638810 0.585080 -0.541996
O3    O     O_R   0.026800 0.455470 0.585670 -0.545653
C1    C     C_R   0.374017 0.678956 0.610358 0.674270
O4    O     O_R   0.155000 0.556150 0.414940 -0.531749
O5    O     O_R   0.984450 0.372220 0.414320 -0.534868
C2    C     C_R   0.317681 0.561396 0.384711 0.801327
O6    O     O_R   0.526900 0.627780 0.585680 -0.541424
O7    O     O_3   0.339170 0.439750 0.499990 -0.381051
V1    V     V_3+5 0.064350 0.511180 0.500000 1.409930
O8    O     O_R   0.654880 0.361190 0.414920 -0.536329
C3    C     C_R   0.817146 0.323996 0.386953 0.803938
O9    O     O_R   0.696930 0.443850 0.585060 -0.545133
C4    C     C_R   0.873057 0.433494 0.612293 0.676251
V2    V     V_3+5 0.564340 0.488820 0.500000 1.406988
O10   O     O_3   0.839390 0.560250 0.500010 -0.364295
C5    C     C_R   0.041915 0.861087 0.822826 -0.051539
C6    C     C_R   0.905936 0.397353 0.679646 -0.047101
C7    C     C_R   0.921907 0.821185 0.683153 -0.127944
C8    C     C_R   0.974192 0.788046 0.746009 -0.146135
C9    C     C_R   0.052554 0.968962 0.836918 -0.212002
C10   C     C_R   0.997715 0.005220 0.773761 0.096391
C11   C     C_R   0.933493 0.928352 0.696102 0.121578
C12   C     C_R   0.002601 0.114389 0.784800 0.063536
C13   C     C_R   0.945231 0.144069 0.717697 0.067880
C14   C     C_R   0.885326 0.063619 0.641846 -0.179406
C15   C     C_R   0.879474 0.958382 0.631595 -0.219649
C16   C     C_R   0.062520 0.194839 0.860651 -0.177306
C17   C     C_R   0.068444 0.300073 0.870890 -0.214674
C18   C     C_R   0.014450 0.330098 0.806376 0.116971
C19   C     C_R   0.950133 0.253234 0.728729 0.097279
C20   C     C_R   0.026159 0.437254 0.819301 -0.127661
C21   C     C_R   0.973837 0.470386 0.756443 -0.144946
C22   C     C_R   0.895244 0.289487 0.665572 -0.212298
H1    H     H_    0.830660 0.899586 0.572237 0.119338
H2    H     H_    0.847130 0.236544 0.604649 0.090283
H3    H     H_    0.988373 0.553348 0.767674 0.091047
H4    H     H_    0.117301 0.358869 0.930244 0.126692
H5    H     H_    0.870118 0.762717 0.624150 0.137933
H6    H     H_    0.959786 0.705073 0.734756 0.090772
H7    H     H_    0.100605 0.021905 0.897849 0.095970
H8    H     H_    0.840384 0.079151 0.588645 0.122482
H9    H     H_    0.107454 0.179308 0.913855 0.130018
H10   H     H_    0.078088 0.495714 0.878284 0.139808
H11   H     H_    0.114227 0.223934 0.308936 0.156605
H12   H     H_    0.834359 0.034294 0.193829 0.154105
C23   C     C_2   0.135824 0.037597 0.184076 -0.347608
C24   C     C_2   0.972804 0.077713 0.217171 -0.126445
H13   H     H_    0.674715 0.176865 0.295071 0.124899
C25   C     C_2   0.812865 0.220427 0.318860 -0.330564
C26   C     C_2   0.975827 0.180446 0.285652 -0.116417
H14   H     H_    0.273985 0.081152 0.207883 0.129927
C27   C     C_R   0.409370 0.785163 0.677229 -0.055003
C28   C     C_R   0.539096 0.473054 0.825499 -0.058290
C29   C     C_R   0.531040 0.886957 0.816958 -0.125187
C30   C     C_R   0.478926 0.790407 0.754210 -0.141895
C31   C     C_R   0.397681 0.880119 0.663502 -0.210117
C32   C     C_R   0.452199 0.980781 0.727193 0.097774
C33   C     C_R   0.517592 0.981474 0.804545 0.115137
C34   C     C_R   0.445759 0.080430 0.717490 0.067115
C35   C     C_R   0.502354 0.177816 0.785306 0.062568
C36   C     C_R   0.563081 0.172194 0.860489 -0.177457
C37   C     C_R   0.570781 0.076309 0.869586 -0.213993
C38   C     C_R   0.384984 0.086054 0.642314 -0.179079
C39   C     C_R   0.377314 0.181931 0.633209 -0.218066
C40   C     C_R   0.430599 0.276760 0.698233 0.119995
C41   C     C_R   0.495986 0.277458 0.775589 0.096806
C42   C     C_R   0.417260 0.371261 0.685795 -0.126086
C43   C     C_R   0.469533 0.467802 0.748518 -0.142148
C44   C     C_R   0.550601 0.378118 0.839262 -0.210855
H15   H     H_    0.620374 0.076411 0.928668 0.125170
H16   H     H_    0.599735 0.385630 0.899972 0.098614
H17   H     H_    0.453809 0.539035 0.736828 0.090694
H18   H     H_    0.327699 0.181827 0.574129 0.116136
H19   H     H_    0.583819 0.887715 0.875834 0.143170
H20   H     H_    0.494745 0.719166 0.765881 0.090941
H21   H     H_    0.348501 0.872615 0.602797 0.091580
H22   H     H_    0.607211 0.241109 0.913917 0.132287
H23   H     H_    0.340796 0.017145 0.588894 0.122618
H24   H     H_    0.364435 0.370505 0.626923 0.140487
H25   H     H_    0.334812 0.667894 0.195186 0.141877
C45   C     C_2   0.319515 0.600535 0.318195 -0.362754
C46   C     C_2   0.464971 0.583563 0.269288 0.202484
H26   H     H_    0.769506 0.623803 0.197976 0.162072
C47   C     C_2   0.632161 0.648833 0.179045 -0.318742
C48   C     C_2   0.469225 0.637328 0.211526 -0.165352
H27   H     H_    0.202897 0.650170 0.312039 0.112496
O11   O     O_R   0.421600 0.630430 0.917010 -0.539543
O12   O     O_R   0.793840 0.702190 0.087630 -0.542367
O13   O     O_R   0.964010 0.886170 0.088190 -0.536464
C49   C     C_R   0.630786 0.692671 0.115535 0.751250
O14   O     O_R   0.751460 0.619510 0.917500 -0.539435
O15   O     O_R   0.921330 0.802900 0.916840 -0.542235
C50   C     C_R   0.574497 0.579278 0.892333 0.686843
O16   O     O_R   0.464290 0.713700 0.088350 -0.536228
O17   O     O_3   0.609200 0.818520 0.002630 -0.374514
V3    V     V_3+5 0.884140 0.747190 0.002530 1.378958
O18   O     O_R   0.251150 0.814630 0.917340 -0.542278
C51   C     C_R   0.074951 0.824922 0.890159 0.691644
O19   O     O_R   0.293530 0.897310 0.087470 -0.542411
C52   C     C_R   0.131530 0.933996 0.115999 0.761512
V4    V     V_3+5 0.384070 0.769710 0.002370 1.378437
O20   O     O_3   0.109180 0.698190 0.002460 -0.373781
I1    I     I_    0.677515 0.468143 0.261307 -0.428588

loop_
_geom_bond_atom_site_label_1
_geom_bond_atom_site_label_2
_ccdc_geom_bond_type
C42   H24   S    
C40   C42   A    
C29   C30   A    
C13   C19   A    
C30   H20   S    
O17   V4    S    
C1    C27   S    
C4    C6    S    
O2    C1    A    
C7    C8    A    
C1    O6    A    
C47   C49   S    
C47   C48   D    
C14   C15   A    
C17   C18   A    
C23   C52   S    
C16   C17   A    
C29   C33   A    
O5    C3    A    
C18   C19   A    
C8    H6    S    
H11   C26   S    
C32   C34   A    
V2    O10   S    
O18   C51   A    
C5    C8    A    
O8    V2    S    
C24   C26   S    
C42   C43   A    
C17   H4    S    
C43   H17   S    
O1    V2    S    
C11   C15   A    
O12   C49   A    
O7    V1    S    
O15   C51   A    
O13   V3    S    
H25   C48   S    
O16   V4    S    
C29   H19   S    
C40   C41   A    
O9    C4    A    
V4    O20   S    
O19   V4    S    
O14   V3    S    
H12   C24   S    
O11   C50   A    
C46   I1    S    
C31   H21   S    
H26   C47   S    
O4    C2    A    
C27   C31   A    
C15   H1    S    
C32   C33   A    
O18   V4    S    
C21   H3    S    
C39   H18   S    
O12   V3    S    
C34   C35   A    
C7    C11   A    
O13   C52   A    
C36   C37   A    
C5    C51   S    
C35   C41   A    
C3    C25   S    
C23   C24   D    
C28   C44   A    
O17   V3    S    
C46   C48   S    
O14   C50   A    
C25   C26   D    
C20   H10   S    
C19   C22   A    
C12   C13   A    
C6    C22   A    
V3    O20   S    
O3    C4    A    
C7    H5    S    
C9    H7    S    
C37   H15   S    
C45   C46   D    
O6    V2    S    
O9    V2    S    
C38   H23   S    
C10   C12   A    
O2    V1    S    
O15   V3    S    
C14   H8    S    
C27   C30   A    
O1    C2    A    
C36   H22   S    
C12   C16   A    
O5    V1    S    
O11   V4    S    
O8    C3    A    
C23   H14   S    
C16   H9    S    
C33   C37   A    
C34   C38   A    
C41   C44   A    
C20   C21   A    
C13   C14   A    
O4    V1    S    
O3    V1    S    
V1    O10   S    
C38   C39   A    
C18   C20   A    
C31   C32   A    
C28   C43   A    
O19   C52   A    
C22   H2    S    
C39   C40   A    
O7    V2    S    
C35   C36   A    
C6    C21   A    
C5    C9    A    
C28   C50   S    
C49   O16   A    
C2    C45   S    
H13   C25   S    
C10   C11   A    
C44   H16   S    
C9    C10   A    
C45   H27   S    
