data_mof_unit_50856.cif
_audit_creation_date              2012-10-26T18:40:20-0400
_audit_creation_method            fapswitch 2.2
_symmetry_space_group_name_H-M    P1
_symmetry_Int_Tables_number       1
_space_group_crystal_system       triclinic
_cell_length_a                    8.733684
_cell_length_b                    15.094017
_cell_length_c                    13.870089
_cell_angle_alpha                 90.139556
_cell_angle_beta                  97.935013
_cell_angle_gamma                 90.129916
_cell_volume                      1810.9250988

loop_
_atom_site_label
_atom_site_type_symbol
_atom_type_description
_atom_site_fract_x
_atom_site_fract_y
_atom_site_fract_z
_atom_type_partial_charge
C1    C     C_R   0.500420 0.329908 0.499885 0.544668
C2    C     C_R   0.618753 0.541659 0.902472 -0.142958
C3    C     C_R   0.500126 0.499984 0.054686 0.024828
C4    C     C_R   0.500080 0.499998 0.945316 0.024857
C5    C     C_R   0.203693 0.499961 0.475112 0.551215
C6    C     C_R   0.796310 0.500018 0.524896 0.550213
C7    C     C_2   0.037900 0.499982 0.461391 -0.156260
C8    C     C_2   0.962107 0.499968 0.538645 -0.158180
C9    C     C_R   0.428157 0.094081 0.563952 -0.136616
C10   C     C_R   0.430596 0.905732 0.422766 -0.137664
C11   C     C_R   0.426172 0.186061 0.564846 -0.140271
C12   C     C_R   0.500606 0.670108 0.500196 0.545351
C13   C     C_R   0.428723 0.813749 0.421540 -0.143533
C14   C     C_R   0.503445 0.233441 0.499616 0.003469
C15   C     C_R   0.503719 0.766614 0.500963 0.003698
C16   C     C_R   0.584897 0.188444 0.434398 -0.113683
C17   C     C_R   0.582918 0.811912 0.581085 -0.109602
C18   C     C_R   0.591451 0.095863 0.434711 0.005798
C19   C     C_R   0.589290 0.904520 0.581981 0.006980
C20   C     C_R   0.511127 0.048585 0.499921 0.044725
C21   C     C_R   0.511188 0.951516 0.502030 0.045032
C22   C     C_3   0.686980 0.049061 0.367714 -0.403866
C23   C     C_R   0.571896 0.568321 0.114351 -0.143242
C24   C     C_3   0.682260 0.951665 0.666554 -0.402902
C25   C     C_R   0.381344 0.458350 0.881665 -0.143342
C26   C     C_R   0.571490 0.566715 0.215756 0.042376
C27   C     C_R   0.384143 0.458541 0.780468 0.044125
C28   C     C_R   0.428721 0.433257 0.202996 0.043803
C29   C     C_R   0.615873 0.541442 0.800772 0.044513
C30   C     C_R   0.428399 0.431628 0.101516 -0.142999
Cu1   Cu    Cu3+1 0.500000 0.499990 0.596430 0.934949
Cu2   Cu    Cu3+1 0.500000 0.500010 0.403570 0.932309
H1    H     H_    0.977959 0.500041 0.387276 0.129506
H2    H     H_    0.707437 0.574401 0.769549 0.118205
H3    H     H_    0.373770 0.376207 0.060692 0.087111
H4    H     H_    0.715024 0.573428 0.946831 0.087192
H5    H     H_    0.365186 0.058081 0.613464 0.110683
H6    H     H_    0.369355 0.941511 0.361677 0.109939
H7    H     H_    0.773414 0.005793 0.410810 0.140170
H8    H     H_    0.611397 0.008202 0.314072 0.129860
H9    H     H_    0.750284 0.096699 0.326670 0.119593
H10   H     H_    0.769719 0.995270 0.639674 0.139550
H11   H     H_    0.605076 0.992225 0.705964 0.131775
H12   H     H_    0.022034 0.499910 0.612766 0.120801
H13   H     H_    0.744152 0.904257 0.719261 0.117702
H14   H     H_    0.626617 0.623714 0.083329 0.086830
H15   H     H_    0.285093 0.426596 0.909158 0.087098
H16   H     H_    0.362139 0.220204 0.615218 0.119392
H17   H     H_    0.366495 0.779416 0.359408 0.123474
H18   H     H_    0.645972 0.225709 0.384833 0.120345
H19   H     H_    0.642336 0.774880 0.641869 0.115944
H20   H     H_    0.628340 0.619461 0.260038 0.122834
H21   H     H_    0.292529 0.425548 0.733228 0.116688
H22   H     H_    0.372006 0.380472 0.237142 0.123091
N1    N     N_R   0.500000 0.500020 0.258690 -0.222219
N2    N     N_R   0.500000 0.499980 0.741310 -0.220020
O1    O     O_R   0.500010 0.371450 0.581430 -0.498480
O2    O     O_R   0.499990 0.628550 0.418570 -0.510700
O3    O     O_R   0.500010 0.371460 0.418560 -0.513014
O4    O     O_R   0.499990 0.628540 0.581440 -0.500758
O5    O     O_R   0.274840 0.499990 0.562640 -0.507441
O6    O     O_R   0.725160 0.500010 0.437360 -0.498686
O7    O     O_R   0.274840 0.500000 0.399770 -0.496429
O8    O     O_R   0.725160 0.500000 0.600230 -0.507828

loop_
_geom_bond_atom_site_label_1
_geom_bond_atom_site_label_2
_ccdc_geom_bond_type
Cu1   O4    S    
C3    C30   A    
C2    C4    A    
C27   H21   S    
C13   C15   A    
C29   N2    A    
C26   H20   S    
Cu1   N2    S    
C25   C27   A    
C24   H10   S    
C25   H15   S    
Cu2   N1    S    
C3    C23   A    
Cu1   Cu2   S    
C12   C15   S    
Cu2   O2    S    
C6    O6    A    
C10   H6    S    
C22   H8    S    
C26   N1    A    
Cu1   O1    S    
C9    H5    S    
C19   C24   S    
C12   O2    A    
C7    C8    D    
C23   H14   S    
C7    H1    S    
C17   H19   S    
C11   H16   S    
Cu1   O8    S    
C30   H3    S    
C2    C29   A    
C13   H17   S    
C24   H13   S    
C6    C8    S    
C28   C30   A    
C17   C19   A    
C28   N1    A    
C16   H18   S    
C4    C25   A    
C1    O1    A    
C9    C11   A    
C10   C21   A    
C11   C14   A    
C14   C16   A    
C22   H9    S    
C22   H7    S    
Cu2   O6    S    
C3    C4    S    
C12   O4    A    
C8    H12   S    
C2    H4    S    
C20   C21   S    
C5    O7    A    
C18   C20   A    
C5    C7    S    
C23   C26   A    
C6    O8    A    
C1    O3    A    
C15   C17   A    
C24   H11   S    
Cu1   O5    S    
C27   N2    A    
C28   H22   S    
C1    C14   S    
C9    C20   A    
Cu2   O3    S    
C19   C21   A    
C18   C22   S    
C29   H2    S    
C16   C18   A    
C5    O5    A    
Cu2   O7    S    
C10   C13   A    
