data_mof_unit_40700.cif
_audit_creation_date              2012-12-11T15:55:36-0500
_audit_creation_method            fapswitch 2.2
_symmetry_space_group_name_H-M    P1
_symmetry_Int_Tables_number       1
_space_group_crystal_system       triclinic
_cell_length_a                    6.935275
_cell_length_b                    14.542145
_cell_length_c                    16.089261
_cell_angle_alpha                 89.950791
_cell_angle_beta                  90.054944
_cell_angle_gamma                 90.100213
_cell_volume                      1622.65887919

loop_
_atom_site_label
_atom_site_type_symbol
_atom_type_description
_atom_site_fract_x
_atom_site_fract_y
_atom_site_fract_z
_atom_type_partial_charge
O1    O     O_R   0.505680 0.583900 0.413320 -0.540621
O2    O     O_R   0.176010 0.594950 0.586080 -0.543194
O3    O     O_R   0.005680 0.416100 0.586680 -0.537871
C1    C     C_R   0.345220 0.616991 0.614935 0.693362
O4    O     O_R   0.175960 0.594930 0.413930 -0.543147
O5    O     O_R   0.005640 0.416080 0.413300 -0.540520
C2    C     C_R   0.345042 0.617157 0.384995 0.686976
O6    O     O_R   0.505720 0.583920 0.586700 -0.540111
O7    O     O_3   0.339190 0.441320 0.500000 -0.369533
V1    V     V_3+5 0.064350 0.510890 0.500000 1.396492
O8    O     O_R   0.675920 0.405050 0.413920 -0.543511
C3    C     C_R   0.844879 0.382753 0.385000 0.685867
O9    O     O_R   0.675960 0.405070 0.586070 -0.542167
C4    C     C_R   0.844685 0.382948 0.614844 0.701660
V2    V     V_3+5 0.564340 0.489110 0.500000 1.395190
O10   O     O_3   0.839370 0.558680 0.500000 -0.369912
C5    C     C_R   0.001491 0.248049 0.686271 0.054483
C6    C     C_R   0.852222 0.312612 0.681491 -0.105617
C7    C     C_R   0.704050 0.305754 0.741139 -0.174229
H1    H     H_    0.583912 0.353013 0.739399 0.121583
C8    C     C_R   0.716464 0.242157 0.807237 -0.179586
H2    H     H_    0.604809 0.241847 0.854148 0.129085
C9    C     C_R   0.876825 0.183287 0.815328 -0.136335
C10   C     C_R   0.012961 0.184732 0.751086 0.103070
C11   C     C_3   0.227794 0.191015 0.753964 -0.032128
C12   C     C_3   0.214804 0.260374 0.682795 -0.385804
H3    H     H_    0.281064 0.221139 0.813137 0.141207
H4    H     H_    0.276092 0.236141 0.622853 0.177921
H5    H     H_    0.258726 0.331037 0.701038 0.148139
C13   C     C_R   0.046928 0.224655 0.217792 -0.157785
H6    H     H_    0.187687 0.206205 0.194080 0.116369
C14   C     C_R   0.035673 0.288181 0.283008 -0.151803
H7    H     H_    0.168384 0.316851 0.307332 0.118765
C15   C     C_R   0.856042 0.314387 0.316185 -0.046640
C16   C     C_R   0.687992 0.275248 0.282240 -0.157492
H8    H     H_    0.547235 0.293695 0.305956 0.116392
C17   C     C_R   0.699247 0.211720 0.217025 -0.152043
H9    H     H_    0.566537 0.183046 0.192705 0.118864
C18   C     C_R   0.878877 0.185533 0.183833 -0.046788
C19   C     C_R   0.197124 0.696019 0.737241 -0.152656
H10   H     H_    0.067570 0.655870 0.726689 0.118508
C20   C     C_R   0.204519 0.757419 0.804711 0.153781
C21   C     C_R   0.374384 0.810815 0.818637 -0.057385
C22   C     C_R   0.532843 0.797686 0.765395 -0.197133
H11   H     H_    0.663386 0.837525 0.773577 0.128576
C23   C     C_R   0.524425 0.734642 0.699809 -0.158076
H12   H     H_    0.649432 0.726715 0.660164 0.129887
C24   C     C_R   0.355642 0.683998 0.684429 -0.083976
C25   C     C_R   0.188112 0.724307 0.282217 -0.156853
H13   H     H_    0.047374 0.705646 0.305996 0.116766
C26   C     C_R   0.199244 0.787845 0.216959 -0.153162
H14   H     H_    0.066524 0.816339 0.192641 0.119217
C27   C     C_R   0.378837 0.814284 0.183750 -0.046994
C28   C     C_R   0.546982 0.775385 0.217626 -0.156599
H15   H     H_    0.687715 0.794043 0.193837 0.116900
C29   C     C_R   0.535848 0.711838 0.282881 -0.152308
H16   H     H_    0.668562 0.683328 0.307187 0.118867
C30   C     C_R   0.356259 0.685446 0.316129 -0.046618
O11   O     O_R   0.229200 0.915950 0.913350 -0.537499
O12   O     O_R   0.559090 0.905000 0.086080 -0.542324
O13   O     O_R   0.729280 0.083880 0.086680 -0.540485
C31   C     C_R   0.390025 0.882670 0.114972 0.686747
O14   O     O_R   0.558920 0.904980 0.913920 -0.542890
O15   O     O_R   0.729110 0.083860 0.913300 -0.536898
C32   C     C_R   0.388712 0.880951 0.886367 0.689342
O16   O     O_R   0.229360 0.915970 0.086730 -0.540557
O17   O     O_3   0.395680 0.058580 0.000030 -0.368806
V3    V     V_3+5 0.670570 0.989070 0.999990 1.391965
O18   O     O_R   0.058820 0.094950 0.913870 -0.541616
C33   C     C_R   0.889789 0.117054 0.885158 0.704412
O19   O     O_R   0.058990 0.094970 0.086020 -0.543469
C34   C     C_R   0.890038 0.117205 0.114985 0.685413
V4    V     V_3+5 0.170560 0.010930 0.999930 1.389668
O20   O     O_3   0.895590 0.941310 0.999960 -0.370030
C35   C     C_3   0.031481 0.761646 0.861411 -0.743130
H17   H     H_    0.923381 0.707716 0.846269 0.188045
H18   H     H_    0.076866 0.750827 0.926898 0.202690
H19   H     H_    0.958649 0.829074 0.854834 0.221549
C36   C     C_3   0.325269 0.100425 0.730196 -0.736234
H20   H     H_    0.480930 0.112441 0.718514 0.218475
H21   H     H_    0.310706 0.050426 0.781944 0.210275
H22   H     H_    0.259418 0.070333 0.673346 0.206025

loop_
_geom_bond_atom_site_label_1
_geom_bond_atom_site_label_2
_ccdc_geom_bond_type
O14   C32   A    
V4    O20   S    
C4    C6    S    
C7    H1    S    
C1    O6    A    
C27   C28   A    
C20   C35   S    
C5    C12   S    
O15   V3    S    
C7    C8    A    
C6    C7    A    
O5    C3    A    
C13   H6    S    
V3    O20   S    
V2    O10   S    
C29   H16   S    
O12   C31   A    
C15   C16   A    
C28   H15   S    
O8    V2    S    
C16   H8    S    
C25   C26   A    
C18   C34   S    
O18   V4    S    
O17   V4    S    
O15   C33   A    
O7    V1    S    
O11   V4    S    
C2    C30   S    
C19   C20   A    
C11   C36   S    
O9    C4    A    
C9    C33   S    
C22   C23   A    
C28   C29   A    
C23   C24   A    
C5    C10   A    
C31   O16   A    
C26   H14   S    
C10   C11   S    
C36   H21   S    
C11   C12   S    
O16   V4    S    
C25   C30   A    
O17   V3    S    
C26   C27   A    
C14   C15   A    
O2    C1    A    
C35   H17   S    
C17   H9    S    
C27   C31   S    
C21   C32   S    
C5    C6    A    
C35   H18   S    
O3    C4    A    
O1    V2    S    
O13   C34   A    
C19   H10   S    
O6    V2    S    
O9    V2    S    
C21   C22   A    
C20   C21   A    
C3    C15   S    
O2    V1    S    
C22   H11   S    
O4    C2    A    
C1    C24   S    
C19   C24   A    
C23   H12   S    
C16   C17   A    
O1    C2    A    
O5    V1    S    
C36   H22   S    
O8    C3    A    
C11   H3    S    
O14   V3    S    
C12   H4    S    
C14   H7    S    
C8    C9    A    
O7    V2    S    
O4    V1    S    
C17   C18   A    
O3    V1    S    
V1    O10   S    
O11   C32   A    
C13   C14   A    
O13   V3    S    
C29   C30   A    
C13   C18   A    
O18   C33   A    
C35   H19   S    
C9    C10   A    
C36   H20   S    
O19   C34   A    
O12   V3    S    
C12   H5    S    
C25   H13   S    
O19   V4    S    
C8    H2    S    
