data_mof_unit_56917.cif
_audit_creation_date              2012-12-11T15:48:09-0500
_audit_creation_method            fapswitch 2.2
_symmetry_space_group_name_H-M    P1
_symmetry_Int_Tables_number       1
_space_group_crystal_system       triclinic
_cell_length_a                    6.931613
_cell_length_b                    17.597894
_cell_length_c                    19.462846
_cell_angle_alpha                 108.523066
_cell_angle_beta                  89.46853
_cell_angle_gamma                 90.654071
_cell_volume                      2250.93725072

loop_
_atom_site_label
_atom_site_type_symbol
_atom_type_description
_atom_site_fract_x
_atom_site_fract_y
_atom_site_fract_z
_atom_type_partial_charge
O1    O     O_R   0.494330 0.415710 0.413720 -0.540448
O2    O     O_R   0.819360 0.430070 0.560210 -0.540493
O3    O     O_R   0.994320 0.584290 0.586280 -0.558352
C1    C     C_R   0.649840 0.414778 0.581717 0.773459
O4    O     O_R   0.823740 0.406290 0.412670 -0.504702
O5    O     O_R   0.998730 0.560340 0.437690 -0.548744
C2    C     C_R   0.655016 0.382912 0.384757 0.777583
O6    O     O_R   0.489920 0.439660 0.562310 -0.512042
O7    O     O_3   0.662330 0.550570 0.508380 -0.382281
V1    V     V_3+5 0.935370 0.490620 0.498440 1.598940
O8    O     O_R   0.328720 0.569930 0.439790 -0.519528
C3    C     C_R   0.161122 0.584614 0.417767 0.743236
O9    O     O_R   0.324340 0.593710 0.587330 -0.513129
C4    C     C_R   0.155475 0.616719 0.615498 0.703754
V2    V     V_3+5 0.435940 0.509380 0.501560 1.618767
O10   O     O_3   0.159110 0.449430 0.491620 -0.344983
C5    C     C_R   0.310885 0.713136 0.727053 0.617663
C6    C     C_R   0.298498 0.777229 0.791702 -0.226265
C7    C     C_R   0.121041 0.814464 0.816218 -0.136683
C8    C     C_R   0.955750 0.786060 0.774188 -0.130572
H1    H     H_    0.816828 0.813523 0.791109 0.148063
C9    C     C_R   0.968109 0.722507 0.709097 -0.203755
H2    H     H_    0.838439 0.703044 0.677643 0.211430
C10   C     C_R   0.145468 0.685049 0.684473 -0.175353
C11   C     C_R   0.308012 0.631996 0.319333 0.619331
C12   C     C_R   0.154794 0.633592 0.368070 -0.223726
C13   C     C_R   0.993686 0.681614 0.368775 -0.191745
C14   C     C_R   0.985060 0.728605 0.322611 0.086722
C15   C     C_R   0.137528 0.726558 0.273543 -0.058455
C16   C     C_R   0.299716 0.677667 0.271435 -0.124049
C17   C     C_R   0.826042 0.777856 0.324970 -0.187983
C18   C     C_R   0.815776 0.824406 0.278772 0.660158
C19   C     C_R   0.965182 0.822275 0.228513 -0.125929
C20   C     C_R   0.127371 0.773385 0.226407 -0.058388
C21   C     C_R   0.279840 0.771338 0.177338 0.087499
C22   C     C_R   0.438861 0.722089 0.174982 -0.190045
C23   C     C_R   0.449126 0.675539 0.221179 0.653712
C24   C     C_R   0.956878 0.867941 0.180612 0.626388
C25   C     C_R   0.110092 0.866341 0.131873 -0.231376
C26   C     C_R   0.271208 0.818325 0.131172 -0.187300
H3    H     H_    0.875655 0.683317 0.406187 0.158456
H4    H     H_    0.708316 0.780148 0.362603 0.144399
C27   C     C_R   0.783514 0.181941 0.866232 -0.164242
C28   C     C_R   0.622982 0.132893 0.867731 -0.109549
C29   C     C_R   0.467201 0.130138 0.821115 -0.115267
C30   C     C_R   0.470892 0.175216 0.773233 0.083777
C31   C     C_R   0.630412 0.225458 0.772818 0.016848
C32   C     C_R   0.787322 0.229184 0.819809 -0.000553
C33   C     C_R   0.317276 0.170814 0.725764 -0.238911
C34   C     C_R   0.319188 0.216546 0.678674 0.667727
C35   C     C_R   0.475867 0.268266 0.678312 -0.131838
C36   C     C_R   0.632794 0.272101 0.725454 -0.097005
C37   C     C_R   0.792485 0.322431 0.725331 0.077659
C38   C     C_R   0.946363 0.326538 0.772792 -0.174410
C39   C     C_R   0.944156 0.280490 0.819654 0.584553
C40   C     C_R   0.480090 0.315845 0.631895 0.628223
C41   C     C_R   0.640724 0.365530 0.631188 -0.221961
C42   C     C_R   0.796138 0.367965 0.677869 -0.166069
H5    H     H_    0.903364 0.184401 0.902271 0.179892
H6    H     H_    0.343503 0.091961 0.821461 0.116211
H7    H     H_    0.194252 0.132096 0.725347 0.145678
H8    H     H_    0.069538 0.365226 0.773366 0.143981
C43   C     C_R   0.809108 0.268581 0.286355 0.635169
C44   C     C_R   0.796901 0.205163 0.221261 -0.185562
H9    H     H_    0.926064 0.171363 0.200269 0.151915
C45   C     C_R   0.620901 0.184977 0.184175 -0.145491
C46   C     C_R   0.456689 0.230031 0.213921 -0.115611
H10   H     H_    0.318704 0.216331 0.186904 0.151003
C47   C     C_R   0.468703 0.293937 0.278753 -0.147824
H11   H     H_    0.339718 0.327894 0.299434 0.208080
C48   C     C_R   0.644704 0.314249 0.316031 -0.181012
O11   O     O_R   0.774940 0.060470 0.937800 -0.547332
O12   O     O_R   0.440880 0.093730 0.087350 -0.543772
O13   O     O_R   0.266130 0.939630 0.062280 -0.537371
C49   C     C_R   0.609701 0.116853 0.115383 0.770793
O14   O     O_R   0.445480 0.069960 0.939820 -0.541844
O15   O     O_R   0.270770 0.915690 0.913690 -0.548692
C50   C     C_R   0.614796 0.084765 0.917972 0.694055
O16   O     O_R   0.770300 0.084410 0.086380 -0.537008
O17   O     O_3   0.602600 0.949510 0.991670 -0.368581
V3    V     V_3+5 0.329470 0.009370 0.001550 1.460893
O18   O     O_R   0.940760 0.906160 0.912560 -0.550099
C51   C     C_R   0.109921 0.883010 0.884710 0.697011
O19   O     O_R   0.936150 0.929930 0.060100 -0.508448
C52   C     C_R   0.103748 0.915311 0.082170 0.777102
V4    V     V_3+5 0.828930 0.990450 0.998310 1.487480
O20   O     O_3   0.105670 0.050490 0.008320 -0.377389
F1    F     F_    0.484604 0.677909 0.707283 -0.716573
H12   H     H_    0.389237 0.816622 0.093758 0.161381
H13   H     H_    0.556589 0.719799 0.137350 0.144096
F2    F     F_    0.606210 0.628693 0.216342 -0.629587
F3    F     F_    0.166693 0.209907 0.633800 -0.618481
F4    F     F_    0.330951 0.312519 0.586151 -0.617878
H14   H     H_    0.919701 0.406355 0.677936 0.157448
H15   H     H_    0.428530 0.797143 0.822977 0.145188
F5    F     F_    0.095709 0.286199 0.864795 -0.688354
F6    F     F_    0.981996 0.284167 0.320333 -0.685869
F7    F     F_    0.462369 0.584404 0.317471 -0.636913
F8    F     F_    0.658694 0.871253 0.283610 -0.622351
F9    F     F_    0.802520 0.915531 0.182470 -0.627554

loop_
_geom_bond_atom_site_label_1
_geom_bond_atom_site_label_2
_ccdc_geom_bond_type
C32   C39   A    
C29   H6    S    
C17   H4    S    
C5    F1    S    
C21   C22   A    
C1    O6    A    
C29   C30   A    
C28   C29   A    
C30   C33   A    
C12   C13   A    
C14   C15   A    
O14   C50   A    
C6    C7    A    
O5    C3    A    
C24   C25   A    
O15   C51   A    
V2    O10   S    
C40   C41   A    
C20   C21   A    
C4    C10   S    
C47   C48   A    
O17   V4    S    
C30   C31   A    
O8    V2    S    
C17   C18   A    
C1    C41   S    
O11   C50   A    
O1    V2    S    
C26   H12   S    
C27   C32   A    
C27   H5    S    
C45   C46   A    
O9    C4    A    
C6    H15   S    
O12   C49   A    
C7    C51   S    
O12   V3    S    
C5    C6    A    
C40   F4    S    
C5    C10   A    
C33   H7    S    
C23   F2    S    
C46   H10   S    
O19   C52   A    
C24   F9    S    
C25   C26   A    
O4    C2    A    
V4    O20   S    
O17   V3    S    
C38   H8    S    
C34   C35   A    
C11   C12   A    
O18   V4    S    
C15   C20   A    
C35   C36   A    
C16   C23   A    
C3    C12   S    
C46   C47   A    
C44   C45   A    
O2    C1    A    
C27   C28   A    
C15   C16   A    
C13   H3    S    
C31   C32   A    
O15   V3    S    
C37   C42   A    
C19   C20   A    
V3    O20   S    
O3    C4    A    
C34   F3    S    
C8    C9    A    
O18   C51   A    
O6    V2    S    
O9    V2    S    
C9    C10   A    
C25   C52   S    
O13   V3    S    
O2    V1    S    
C36   C37   A    
O7    V1    S    
C22   H13   S    
C11   C16   A    
C38   C39   A    
C22   C23   A    
O1    C2    A    
C14   C17   A    
C35   C40   A    
C43   C48   A    
C39   F5    S    
O14   V3    S    
O5    V1    S    
O11   V4    S    
O8    C3    A    
C37   C38   A    
C31   C36   A    
C19   C24   A    
C18   F8    S    
C44   H9    S    
C7    C8    A    
C28   C50   S    
C21   C26   A    
C42   H14   S    
O4    V1    S    
C43   F6    S    
O3    V1    S    
V1    O10   S    
C18   C19   A    
C2    C48   S    
C41   C42   A    
C45   C49   S    
O13   C52   A    
O7    V2    S    
C47   H11   S    
C43   C44   A    
C11   F7    S    
C8    H1    S    
C33   C34   A    
C13   C14   A    
C9    H2    S    
O19   V4    S    
C49   O16   A    
O16   V4    S    
