data_mof_unit_61634.cif
_audit_creation_date              2012-12-10T16:43:22-0500
_audit_creation_method            fapswitch 2.2
_symmetry_space_group_name_H-M    P1
_symmetry_Int_Tables_number       1
_space_group_crystal_system       monoclinic
_cell_length_a                    30.166617
_cell_length_b                    31.353933
_cell_length_c                    21.728474
_cell_angle_alpha                 90.0
_cell_angle_beta                  135.026932
_cell_angle_gamma                 90.0
_cell_volume                      14525.4176084

loop_
_atom_site_label
_atom_site_type_symbol
_atom_type_description
_atom_site_fract_x
_atom_site_fract_y
_atom_site_fract_z
_atom_type_partial_charge
C1    C     C_R   0.689856 0.808608 0.882137 0.845978
C2    C     C_R   0.310511 0.808364 0.118316 0.846094
C3    C     C_R   0.189488 0.308364 0.881684 0.846094
C4    C     C_R   0.810144 0.308608 0.117863 0.845978
C5    C     C_R   0.453216 0.788668 0.999574 0.110378
C6    C     C_R   0.547013 0.788664 0.000899 0.109469
C7    C     C_R   0.952987 0.288664 0.999101 0.109469
C8    C     C_R   0.046784 0.288668 0.000426 0.110378
C9    C     C_R   0.477304 0.671909 0.000891 -0.209608
C10   C     C_R   0.522201 0.671912 0.998166 -0.210073
C11   C     C_R   0.977799 0.171912 0.001834 -0.210073
C12   C     C_R   0.022696 0.171909 0.999109 -0.209607
C13   C     C_R   0.523709 0.827290 0.001134 -0.209861
C14   C     C_R   0.476762 0.827293 0.999812 -0.210597
C15   C     C_R   0.023238 0.327293 0.000187 -0.210597
C16   C     C_R   0.976291 0.327290 0.998866 -0.209861
C17   C     C_2   0.561248 0.874206 0.679077 -0.154973
C18   C     C_2   0.404037 0.907955 0.250431 -0.155818
C19   C     C_2   0.095963 0.407955 0.749569 -0.155818
C20   C     C_2   0.938751 0.374206 0.320923 -0.154973
C21   C     C_2   0.590990 0.904799 0.676527 -0.311890
C22   C     C_2   0.402662 0.910939 0.310579 -0.309645
C23   C     C_2   0.097338 0.410939 0.689421 -0.309646
C24   C     C_2   0.909010 0.404800 0.323473 -0.311890
C25   C     C_2   0.595991 0.837777 0.739589 -0.158020
C26   C     C_2   0.363332 0.877514 0.177634 -0.155906
C27   C     C_2   0.136668 0.377515 0.822366 -0.155906
C28   C     C_2   0.904009 0.337777 0.260411 -0.158020
C29   C     C_2   0.655130 0.842471 0.817370 -0.316001
C30   C     C_2   0.348381 0.839784 0.187935 -0.313242
C31   C     C_2   0.151619 0.339784 0.812065 -0.313242
C32   C     C_2   0.844870 0.342471 0.182630 -0.316001
C33   C     C_R   0.133134 0.749670 0.078923 -0.242007
C34   C     C_R   0.866865 0.749680 0.921075 -0.241390
C35   C     C_R   0.633135 0.249680 0.078924 -0.241390
C36   C     C_R   0.366866 0.249670 0.921077 -0.242006
C37   C     C_R   0.115855 0.750907 0.999753 -0.057508
C38   C     C_R   0.884144 0.750906 0.000246 -0.058387
C39   C     C_R   0.615855 0.250906 0.999754 -0.058387
C40   C     C_R   0.384145 0.250906 0.000246 -0.057508
C41   C     C_R   0.052468 0.752549 0.920670 -0.244227
C42   C     C_R   0.947532 0.752539 0.079329 -0.244728
C43   C     C_R   0.552468 0.252539 0.920670 -0.244728
C44   C     C_R   0.447532 0.252549 0.079329 -0.244227
C45   C     C_R   0.664113 0.749822 0.999601 0.810195
C46   C     C_R   0.335884 0.749822 0.000399 0.810258
C47   C     C_R   0.164116 0.249822 0.999601 0.810258
C48   C     C_R   0.835887 0.249822 0.000399 0.810195
C49   C     C_R   0.005860 0.752040 0.920137 0.110130
C50   C     C_R   0.994140 0.752030 0.079862 0.110520
C51   C     C_R   0.505860 0.252030 0.920138 0.110520
C52   C     C_R   0.494140 0.252040 0.079862 0.110130
C53   C     C_R   0.023273 0.751409 0.999948 0.060133
C54   C     C_R   0.976726 0.751409 0.000051 0.060147
C55   C     C_R   0.523274 0.251409 0.999949 0.060147
C56   C     C_R   0.476727 0.251409 0.000052 0.060133
C57   C     C_R   0.087196 0.750650 0.079655 0.109309
C58   C     C_R   0.912802 0.750659 0.920343 0.108409
C59   C     C_R   0.587197 0.250659 0.079656 0.108409
C60   C     C_R   0.412804 0.250650 0.920345 0.109309
C61   C     C_R   0.942223 0.751908 0.841333 -0.209312
C62   C     C_R   0.057776 0.751888 0.158666 -0.209641
C63   C     C_R   0.442223 0.251888 0.841333 -0.209641
C64   C     C_R   0.557777 0.251908 0.158667 -0.209312
C65   C     C_R   0.895992 0.750891 0.841435 -0.209433
C66   C     C_R   0.104006 0.750872 0.158564 -0.210534
C67   C     C_R   0.395993 0.250872 0.841436 -0.210534
C68   C     C_R   0.604008 0.250891 0.158565 -0.209434
C69   C     C_2   0.904200 0.591436 0.249403 -0.136367
C70   C     C_2   0.095873 0.591390 0.750677 -0.137868
C71   C     C_2   0.404126 0.091390 0.249322 -0.137869
C72   C     C_2   0.595800 0.091436 0.750597 -0.136367
C73   C     C_2   0.899506 0.585885 0.305656 -0.265300
C74   C     C_2   0.100495 0.585888 0.694339 -0.262183
C75   C     C_2   0.399505 0.085888 0.305661 -0.262183
C76   C     C_2   0.600494 0.085885 0.694344 -0.265299
C77   C     C_2   0.862712 0.622172 0.177291 -0.159350
C78   C     C_2   0.137351 0.622139 0.822770 -0.158703
C79   C     C_2   0.362648 0.122139 0.177229 -0.158703
C80   C     C_2   0.637288 0.122172 0.822709 -0.159350
C81   C     C_2   0.851286 0.661012 0.189975 0.006696
C82   C     C_2   0.148683 0.661005 0.810032 0.006833
C83   C     C_2   0.351317 0.161005 0.189968 0.006833
C84   C     C_2   0.648714 0.161012 0.810025 0.006696
C85   C     C_R   0.060896 0.556847 0.620817 0.838067
C86   C     C_R   0.939104 0.556845 0.379182 0.842106
C87   C     C_R   0.560896 0.056845 0.620818 0.842106
C88   C     C_R   0.439104 0.056847 0.379183 0.838068
C89   C     C_R   0.811113 0.691714 0.118530 0.790112
C90   C     C_R   0.188878 0.691712 0.881470 0.789812
C91   C     C_R   0.311122 0.191712 0.118530 0.789811
C92   C     C_R   0.688887 0.191714 0.881470 0.790112
C93   C     C_R   0.558041 0.940209 0.615254 0.841880
C94   C     C_R   0.439951 0.942106 0.380769 0.837853
C95   C     C_R   0.060049 0.442105 0.619231 0.837853
C96   C     C_R   0.941959 0.440209 0.384746 0.841880
C97   C     C_R   0.835768 0.750241 0.000170 0.807662
C98   C     C_R   0.164232 0.750242 0.999830 0.807504
C99   C     C_R   0.335768 0.250242 0.000170 0.807504
C100  C     C_R   0.664232 0.250241 0.999830 0.807662
C101  C     C_R   0.406408 0.788383 0.998579 -0.242502
C102  C     C_R   0.593819 0.788374 0.001890 -0.242661
C103  C     C_R   0.906181 0.288374 0.998110 -0.242661
C104  C     C_R   0.093592 0.288383 0.001421 -0.242503
C105  C     C_R   0.384671 0.749645 0.001275 -0.058553
C106  C     C_R   0.615320 0.749645 0.998724 -0.060276
C107  C     C_R   0.884680 0.249645 0.001275 -0.060276
C108  C     C_R   0.115329 0.249645 0.998724 -0.058553
C109  C     C_R   0.409016 0.710858 0.003826 -0.243621
C110  C     C_R   0.590734 0.710867 0.995706 -0.244473
C111  C     C_R   0.909266 0.210868 0.004294 -0.244473
C112  C     C_R   0.090984 0.210859 0.996174 -0.243621
C113  C     C_R   0.454347 0.710531 0.001851 0.109471
C114  C     C_R   0.545398 0.710536 0.997674 0.109578
C115  C     C_R   0.954602 0.210536 0.002326 0.109578
C116  C     C_R   0.045653 0.210531 0.998149 0.109471
C117  C     C_R   0.476886 0.749593 0.000372 0.060218
C118  C     C_R   0.523100 0.749593 0.999625 0.060397
C119  C     C_R   0.976900 0.249593 0.000375 0.060397
C120  C     C_R   0.023114 0.249593 0.999628 0.060218
Cu1   Cu    Cu3+1 0.719490 0.719480 0.938970 0.945156
Cu2   Cu    Cu3+1 0.280510 0.719480 0.061030 0.946388
Cu3   Cu    Cu3+1 0.219490 0.219480 0.938970 0.946388
Cu4   Cu    Cu3+1 0.780510 0.219480 0.061030 0.945156
Cu5   Cu    Cu3+1 0.780480 0.780500 0.060980 0.944683
Cu6   Cu    Cu3+1 0.219520 0.780500 0.939020 0.943876
Cu7   Cu    Cu3+1 0.280480 0.280500 0.060980 0.943876
Cu8   Cu    Cu3+1 0.719520 0.280500 0.939020 0.944683
Cu9   Cu    Cu3+1 0.455530 0.999980 0.499990 0.950188
Cu10  Cu    Cu3+1 0.544470 0.999980 0.500010 0.951237
Cu11  Cu    Cu3+1 0.955530 0.499980 0.499990 0.951237
Cu12  Cu    Cu3+1 0.044470 0.499980 0.500010 0.950188
H1    H     H_    0.387582 0.818242 0.997254 0.141820
H2    H     H_    0.612827 0.818230 0.003582 0.145404
H3    H     H_    0.887173 0.318231 0.996418 0.145404
H4    H     H_    0.112417 0.318242 0.002745 0.141820
H5    H     H_    0.039587 0.753184 0.859734 0.143130
H6    H     H_    0.960413 0.753167 0.140266 0.143091
H7    H     H_    0.539587 0.253167 0.859734 0.143091
H8    H     H_    0.460413 0.253184 0.140265 0.143130
H9    H     H_    0.928231 0.752266 0.779651 0.145828
H10   H     H_    0.071768 0.752239 0.220349 0.145306
H11   H     H_    0.428232 0.252239 0.779651 0.145306
H12   H     H_    0.571769 0.252266 0.220349 0.145828
H13   H     H_    0.847095 0.750465 0.779825 0.146213
H14   H     H_    0.152903 0.750438 0.220173 0.144574
H15   H     H_    0.347096 0.250438 0.779827 0.144574
H16   H     H_    0.652905 0.250465 0.220175 0.146213
H17   H     H_    0.936531 0.572404 0.254002 0.155098
H18   H     H_    0.063616 0.572307 0.746164 0.152628
H19   H     H_    0.436383 0.072307 0.253836 0.152628
H20   H     H_    0.563469 0.072404 0.745998 0.155098
H21   H     H_    0.861964 0.601444 0.294133 0.173329
H22   H     H_    0.137982 0.601490 0.705786 0.173336
H23   H     H_    0.362018 0.101490 0.294213 0.173336
H24   H     H_    0.638036 0.101444 0.705867 0.173329
H25   H     H_    0.843944 0.613506 0.114096 0.137796
H26   H     H_    0.156205 0.613453 0.886006 0.137268
H27   H     H_    0.343795 0.113453 0.113994 0.137268
H28   H     H_    0.656055 0.113506 0.885903 0.137796
H29   H     H_    0.391508 0.681035 0.005195 0.144724
H30   H     H_    0.608056 0.681047 0.993979 0.144865
H31   H     H_    0.891944 0.181047 0.006021 0.144865
H32   H     H_    0.108492 0.181035 0.994805 0.144724
H33   H     H_    0.460260 0.641714 0.001725 0.145557
H34   H     H_    0.539058 0.641720 0.996966 0.145333
H35   H     H_    0.960942 0.141720 0.003034 0.145333
H36   H     H_    0.039740 0.141714 0.998275 0.145557
H37   H     H_    0.541556 0.857484 0.001865 0.145104
H38   H     H_    0.459105 0.857489 0.999453 0.143790
H39   H     H_    0.040895 0.357489 0.000547 0.143790
H40   H     H_    0.958444 0.357484 0.998135 0.145104
H41   H     H_    0.510492 0.874718 0.633494 0.161187
H42   H     H_    0.432639 0.929725 0.251596 0.160036
H43   H     H_    0.067361 0.429725 0.748404 0.160036
H44   H     H_    0.989508 0.374719 0.366506 0.161187
H45   H     H_    0.640666 0.901848 0.715096 0.153481
H46   H     H_    0.369121 0.892434 0.304160 0.152938
H47   H     H_    0.130878 0.392434 0.695840 0.152938
H48   H     H_    0.859334 0.401848 0.284904 0.153481
H49   H     H_    0.571425 0.807805 0.722357 0.162076
H50   H     H_    0.348396 0.885314 0.116507 0.159430
H51   H     H_    0.151604 0.385314 0.883493 0.159430
H52   H     H_    0.928575 0.307805 0.277643 0.162076
H53   H     H_    0.677221 0.873685 0.838462 0.154766
H54   H     H_    0.368857 0.829995 0.251592 0.152768
H55   H     H_    0.131142 0.329995 0.748407 0.152768
H56   H     H_    0.822779 0.373685 0.161538 0.154766
H57   H     H_    0.182358 0.748740 0.139811 0.143325
H58   H     H_    0.817640 0.748756 0.860187 0.145667
H59   H     H_    0.682360 0.248756 0.139813 0.145667
H60   H     H_    0.317642 0.248740 0.860189 0.143325
O1    O     O_R   0.679710 0.768740 0.859430 -0.580961
O2    O     O_R   0.320290 0.768740 0.140570 -0.587732
O3    O     O_R   0.179710 0.268740 0.859430 -0.587732
O4    O     O_R   0.820290 0.268740 0.140570 -0.580961
O5    O     O_R   0.082020 0.544510 0.588970 -0.588380
O6    O     O_R   0.917980 0.544510 0.411030 -0.588688
O7    O     O_R   0.582020 0.044510 0.588970 -0.588688
O8    O     O_R   0.417980 0.044510 0.411030 -0.588379
O9    O     O_R   0.506970 0.955460 0.589020 -0.584816
O10   O     O_R   0.493030 0.955460 0.410980 -0.583866
O11   O     O_R   0.006970 0.455460 0.589020 -0.583866
O12   O     O_R   0.993030 0.455460 0.410980 -0.584816
O13   O     O_R   0.582050 0.955480 0.588990 -0.587735
O14   O     O_R   0.417950 0.955480 0.411010 -0.592065
O15   O     O_R   0.082050 0.455480 0.588990 -0.592065
O16   O     O_R   0.917950 0.455480 0.411010 -0.587735
O17   O     O_R   0.731220 0.820270 0.962460 -0.587423
O18   O     O_R   0.268780 0.820270 0.037540 -0.580585
O19   O     O_R   0.231220 0.320270 0.962460 -0.580585
O20   O     O_R   0.768780 0.320270 0.037540 -0.587423
O21   O     O_R   0.659370 0.724200 0.948480 -0.586725
O22   O     O_R   0.340630 0.724200 0.051520 -0.583610
O23   O     O_R   0.159370 0.224200 0.948480 -0.583610
O24   O     O_R   0.840630 0.224200 0.051520 -0.586725
O25   O     O_R   0.710880 0.775730 0.051510 -0.585388
O26   O     O_R   0.289120 0.775730 0.948490 -0.588300
O27   O     O_R   0.210880 0.275730 0.051510 -0.588299
O28   O     O_R   0.789120 0.275730 0.948490 -0.585388
O29   O     O_R   0.768760 0.679710 0.037490 -0.591658
O30   O     O_R   0.231240 0.679710 0.962510 -0.591592
O31   O     O_R   0.268760 0.179710 0.037490 -0.591592
O32   O     O_R   0.731240 0.179710 0.962510 -0.591658
O33   O     O_R   0.820270 0.731240 0.140520 -0.590762
O34   O     O_R   0.179730 0.731240 0.859480 -0.590911
O35   O     O_R   0.320270 0.231240 0.140520 -0.590911
O36   O     O_R   0.679730 0.231240 0.859480 -0.590762
O37   O     O_R   0.789100 0.724240 0.948440 -0.586694
O38   O     O_R   0.210900 0.724240 0.051560 -0.588060
O39   O     O_R   0.289100 0.224240 0.948440 -0.588061
O40   O     O_R   0.710900 0.224240 0.051560 -0.586694
O41   O     O_R   0.840600 0.775770 0.051470 -0.586384
O42   O     O_R   0.159400 0.775770 0.948530 -0.585010
O43   O     O_R   0.340600 0.275770 0.051470 -0.585010
O44   O     O_R   0.659400 0.275770 0.948530 -0.586384
O45   O     O_R   0.006940 0.544490 0.589000 -0.580800
O46   O     O_R   0.993060 0.544490 0.411000 -0.577738
O47   O     O_R   0.506940 0.044490 0.589000 -0.577738
O48   O     O_R   0.493060 0.044490 0.411000 -0.580801
N1    N     N_3   0.884534 0.675194 0.276566 -0.575712
H61   H     H_    0.913413 0.700772 0.292682 0.235807
H62   H     H_    0.851625 0.686156 0.276226 0.214956
N2    N     N_3   0.115328 0.675200 0.723407 -0.575753
H63   H     H_    0.086446 0.700758 0.707365 0.235826
H64   H     H_    0.148171 0.686193 0.723640 0.214813
N3    N     N_3   0.384672 0.175200 0.276593 -0.575752
H65   H     H_    0.413554 0.200758 0.292635 0.235826
H66   H     H_    0.351829 0.186194 0.276360 0.214813
N4    N     N_3   0.615466 0.175194 0.723434 -0.575712
H67   H     H_    0.586587 0.200772 0.707318 0.235808
H68   H     H_    0.648375 0.186156 0.723774 0.214956

loop_
_geom_bond_atom_site_label_1
_geom_bond_atom_site_label_2
_ccdc_geom_bond_type
Cu8   O44   S    
Cu7   O35   S    
C55   C56   A    
C48   O24   A    
C46   O26   A    
Cu3   O23   S    
C42   H6    S    
C45   O25   A    
C69   C77   S    
C18   C26   S    
C87   O7    A    
C57   C66   A    
C72   C76   D    
C93   O13   A    
C25   H49   S    
C40   C99   S    
C71   C79   S    
C110  H30   S    
Cu7   O27   S    
C51   C55   A    
C53   C54   A    
Cu1   Cu5   S    
Cu10  O48   S    
C50   C54   A    
C21   C93   S    
C23   C95   S    
C64   C68   A    
C92   O32   A    
C35   C59   A    
C56   C60   A    
Cu2   O2    S    
C90   O30   A    
C55   C59   A    
C24   C96   S    
C79   H27   S    
C35   C39   A    
C59   C68   A    
C34   C58   A    
C116  C120  A    
C83   N3    S    
C96   O16   A    
C48   C107  S    
C70   C78   S    
C68   H16   S    
N4    H68   S    
C15   C16   A    
C88   O48   A    
C46   C105  S    
Cu5   O25   S    
C99   O43   A    
N2    H63   S    
C74   H22   S    
C33   H57   S    
N1    H61   S    
C81   N1    S    
Cu12  O46   S    
C36   C40   A    
C103  H3    S    
C98   O38   A    
C52   C56   A    
C93   O9    A    
C78   H26   S    
C97   O37   A    
C63   H11   S    
Cu4   O32   S    
C60   C67   A    
N2    H64   S    
C70   H18   S    
C46   O22   A    
C47   O23   A    
Cu3   O39   S    
C24   H48   S    
C45   O21   A    
C69   C73   D    
C94   O10   A    
C10   H34   S    
C19   C27   S    
C9    C10   A    
Cu8   O28   S    
C95   O11   A    
C23   H47   S    
C10   C114  A    
C51   C63   A    
C22   H46   S    
Cu4   Cu8   S    
C81   C89   S    
C35   H59   S    
C44   C52   A    
C13   H37   S    
C44   H8    S    
C36   H60   S    
C13   C14   A    
Cu9   O47   S    
C11   H35   S    
C22   C94   S    
Cu3   O3    S    
Cu6   O34   S    
C107  C111  A    
C62   H10   S    
C38   C97   S    
Cu5   O33   S    
Cu11  O16   S    
Cu1   O1    S    
C37   C98   S    
C95   O15   A    
C17   H41   S    
C96   O12   A    
C2    O18   A    
C27   H51   S    
C7    C103  A    
N3    H66   S    
C25   C29   D    
C112  H32   S    
C34   H58   S    
C5    C101  A    
Cu12  O12   S    
C101  C105  A    
C87   O47   A    
C62   C66   A    
C1    O17   A    
C80   C84   D    
Cu9   O8    S    
C11   C12   A    
C7    C119  A    
C28   C32   D    
Cu11  O6    S    
C49   C61   A    
C12   C116  A    
Cu1   O37   S    
Cu6   O18   S    
C84   N4    S    
Cu5   O17   S    
C19   C23   D    
C34   C38   A    
C39   C43   A    
C20   C28   S    
C3    O19   A    
C72   H20   S    
N4    H67   S    
C27   C31   D    
C76   H24   S    
C3    O3    A    
Cu2   O22   S    
C5    C117  A    
N1    H62   S    
Cu1   O21   S    
Cu2   Cu6   S    
C1    O1    A    
C102  H2    S    
C63   C67   A    
C70   C74   D    
Cu2   O38   S    
C61   C65   A    
C11   C115  A    
C48   O28   A    
C78   C82   D    
C58   C65   A    
Cu3   Cu7   S    
Cu5   O41   S    
C98   O42   A    
C77   C81   D    
Cu8   O36   S    
C97   O41   A    
C101  H1    S    
Cu4   O4    S    
C1    C29   S    
C82   N2    S    
C31   H55   S    
Cu4   O40   S    
C82   C90   S    
C43   H7    S    
C109  C113  A    
C8    C104  A    
C76   C87   S    
C77   H25   S    
C5    C14   A    
C114  C118  A    
C71   H19   S    
C86   O6    A    
C113  C117  A    
C18   H42   S    
C111  C115  A    
Cu7   O19   S    
C7    C16   A    
C42   C50   A    
C26   C30   D    
C8    C15   A    
C115  C119  A    
C52   C64   A    
C15   H39   S    
C100  O44   A    
C91   O31   A    
Cu10  O7    S    
C26   H50   S    
C110  C114  A    
C104  C108  A    
Cu11  O11   S    
C45   C106  S    
C8    C120  A    
C33   C37   A    
Cu9   Cu10  S    
Cu4   O24   S    
C61   H9    S    
C4    O4    A    
C105  C109  A    
C53   C57   A    
C104  H4    S    
C91   O35   A    
C18   C22   D    
C41   H5    S    
C90   O34   A    
C71   C75   D    
C89   O33   A    
C17   C25   S    
C36   C60   A    
Cu10  O10   S    
C12   H36   S    
C99   O39   A    
C119  C120  A    
C112  C116  A    
C75   H23   S    
C38   C42   A    
C33   C57   A    
C94   O14   A    
C41   C49   A    
C83   C91   S    
Cu7   O43   S    
Cu3   O31   S    
C4    O20   A    
C2    C30   S    
C69   H17   S    
C88   O8    A    
C9    H33   S    
C28   H52   S    
Cu9   O9    S    
C72   C80   S    
C111  H31   S    
C109  H29   S    
C117  C118  A    
Cu8   O20   S    
C3    C31   S    
C89   O29   A    
Cu9   O14   S    
C43   C51   A    
C39   C100  S    
C20   H44   S    
C47   O27   A    
C14   H38   S    
Cu11  O45   S    
C50   C62   A    
C32   H56   S    
C21   H45   S    
Cu12  O5    S    
C86   O46   A    
C29   H53   S    
C102  C106  A    
C85   O45   A    
C6    C102  A    
C74   C85   S    
C37   C41   A    
Cu11  Cu12  S    
Cu6   O42   S    
C19   H43   S    
C9    C113  A    
C66   H14   S    
C49   C53   A    
C80   H28   S    
C4    C32   S    
C79   C83   D    
C108  C112  A    
C75   C88   S    
C40   C44   A    
C30   H54   S    
C54   C58   A    
C92   O36   A    
Cu12  O15   S    
C106  C110  A    
C47   C108  S    
Cu2   O30   S    
C67   H15   S    
C73   H21   S    
Cu10  O13   S    
Cu1   O29   S    
C85   O5    A    
C100  O40   A    
C103  C107  A    
C73   C86   S    
C84   C92   S    
C64   H12   S    
C2    O2    A    
C65   H13   S    
C20   C24   D    
Cu6   O26   S    
N3    H65   S    
C6    C118  A    
C16   H40   S    
C6    C13   A    
C17   C21   D    
