data_mof_unit_20470.cif
_audit_creation_date              2012-12-10T17:31:22-0500
_audit_creation_method            fapswitch 2.2
_symmetry_space_group_name_H-M    P1
_symmetry_Int_Tables_number       1
_space_group_crystal_system       triclinic
_cell_length_a                    18.818989
_cell_length_b                    18.53083
_cell_length_c                    12.363791
_cell_angle_alpha                 90.124119
_cell_angle_beta                  129.037491
_cell_angle_gamma                 89.871877
_cell_volume                      3348.98992784

loop_
_atom_site_label
_atom_site_type_symbol
_atom_type_description
_atom_site_fract_x
_atom_site_fract_y
_atom_site_fract_z
_atom_type_partial_charge
C1    C     C_R   0.610457 0.896648 0.650085 0.783175
C2    C     C_R   0.613101 0.101295 0.653508 0.781774
C3    C     C_R   0.110457 0.396648 0.650085 0.783175
C4    C     C_R   0.113101 0.601295 0.653508 0.781774
C5    C     C_R   0.243537 0.776981 0.033825 0.070176
C6    C     C_R   0.239190 0.220680 0.030303 0.068866
C7    C     C_R   0.743537 0.276981 0.033825 0.070176
C8    C     C_R   0.739190 0.720680 0.030303 0.068866
C9    C     C_R   0.662707 0.270999 0.018576 0.142380
C10   C     C_R   0.669123 0.740410 0.036273 0.137543
C11   C     C_R   0.162707 0.770999 0.018576 0.142380
C12   C     C_R   0.169123 0.240410 0.036273 0.137543
C13   C     C_R   0.584632 0.240341 0.898787 -0.230525
C14   C     C_R   0.591220 0.775465 0.924475 -0.237797
C15   C     C_R   0.084632 0.740341 0.898787 -0.230525
C16   C     C_R   0.091220 0.275465 0.924475 -0.237797
C17   C     C_R   0.588313 0.209890 0.800156 -0.205911
C18   C     C_R   0.586785 0.798401 0.814168 -0.207361
C19   C     C_R   0.088313 0.709890 0.800156 -0.205911
C20   C     C_R   0.086785 0.298401 0.814168 -0.207361
C21   C     C_R   0.314873 0.818846 0.143673 -0.290815
C22   C     C_R   0.309424 0.176270 0.136086 -0.286204
C23   C     C_R   0.814873 0.318846 0.143673 -0.290815
C24   C     C_R   0.809424 0.676270 0.136086 -0.286204
C25   C     C_R   0.237378 0.828938 0.242879 0.088602
C26   C     C_R   0.252896 0.187313 0.266712 0.098108
C27   C     C_R   0.737378 0.328938 0.242879 0.088602
C28   C     C_R   0.752896 0.687313 0.266712 0.098108
C29   C     C_R   0.681653 0.156751 0.743687 -0.103957
C30   C     C_R   0.670496 0.834160 0.728976 -0.108450
C31   C     C_R   0.181653 0.656751 0.743687 -0.103957
C32   C     C_R   0.170496 0.334160 0.728976 -0.108450
C33   C     C_R   0.685812 0.999980 0.285974 -0.305888
C34   C     C_R   0.185812 0.499980 0.285974 -0.305888
C35   C     C_R   0.342977 0.999869 0.628311 0.057664
C36   C     C_R   0.842977 0.499869 0.628311 0.057664
C37   C     C_R   0.308083 0.998007 0.699732 -0.271509
C38   C     C_R   0.808083 0.498007 0.699732 -0.271509
C39   C     C_R   0.385671 0.101222 0.345344 0.790642
C40   C     C_R   0.384156 0.900195 0.343120 0.788493
C41   C     C_R   0.885671 0.601221 0.345344 0.790642
C42   C     C_R   0.884156 0.400195 0.343120 0.788493
C43   C     C_R   0.367014 0.997934 0.844845 -0.196569
C44   C     C_R   0.867014 0.497934 0.844845 -0.196569
C45   C     C_R   0.462450 0.999090 0.921299 -0.009200
C46   C     C_R   0.962449 0.499090 0.921299 -0.009200
C47   C     C_R   0.495133 0.999691 0.842894 0.280089
C48   C     C_R   0.995133 0.499691 0.842894 0.280089
C49   C     C_R   0.526506 0.999411 0.071995 -0.040777
C50   C     C_R   0.026506 0.499411 0.071995 -0.040777
C51   C     C_R   0.621377 0.999713 0.140045 0.173861
C52   C     C_R   0.121377 0.499713 0.140045 0.173861
C53   C     C_R   0.651785 0.999831 0.062452 -0.272245
C54   C     C_R   0.151785 0.499831 0.062452 -0.272245
C55   C     C_R   0.590375 0.999939 0.917860 -0.166979
C56   C     C_R   0.090375 0.499939 0.917860 -0.166979
C57   C     C_R   0.501349 0.999617 0.159497 0.010689
C58   C     C_R   0.001349 0.499617 0.159497 0.010689
C59   C     C_R   0.656759 0.000109 0.365304 0.061948
C60   C     C_R   0.156759 0.500109 0.365304 0.061948
C61   C     C_R   0.661030 0.294939 0.124092 -0.222568
C62   C     C_R   0.677805 0.725866 0.154609 -0.220856
C63   C     C_R   0.161030 0.794939 0.124092 -0.222568
C64   C     C_R   0.177805 0.225866 0.154609 -0.220856
C65   C     C_R   0.311876 0.847467 0.245642 -0.085114
C66   C     C_R   0.315858 0.156603 0.251763 -0.094526
C67   C     C_R   0.811876 0.347467 0.245642 -0.085114
C68   C     C_R   0.815858 0.656603 0.251763 -0.094526
C69   C     C_R   0.763593 0.155925 0.763273 -0.190084
C70   C     C_R   0.741192 0.819063 0.723319 -0.204117
C71   C     C_R   0.263593 0.655925 0.763273 -0.190085
C72   C     C_R   0.241192 0.319063 0.723319 -0.204117
C73   C     C_R   0.338219 0.695810 0.869561 -0.164624
C74   C     C_R   0.307564 0.268119 0.811424 -0.157459
C75   C     C_R   0.838219 0.195810 0.869561 -0.164625
C76   C     C_R   0.807564 0.768119 0.811424 -0.157459
C77   C     C_R   0.332624 0.736783 0.958116 -0.180200
C78   C     C_R   0.307511 0.234070 0.911466 -0.180928
C79   C     C_R   0.832624 0.236783 0.958116 -0.180200
C80   C     C_R   0.807511 0.734070 0.911466 -0.180928
C81   C     C_R   0.750106 0.240620 0.939111 0.090965
C82   C     C_R   0.737301 0.747777 0.920693 0.090629
C83   C     C_R   0.250106 0.740620 0.939111 0.090964
C84   C     C_R   0.237301 0.247777 0.920693 0.090629
C85   C     C_R   0.672496 0.202672 0.825865 0.079967
C86   C     C_R   0.663870 0.793577 0.819613 0.083119
C87   C     C_R   0.172496 0.702672 0.825865 0.079967
C88   C     C_R   0.163870 0.293577 0.819613 0.083119
Cu1   Cu    Cu3+1 0.526340 0.000000 0.421010 0.928291
Cu2   Cu    Cu3+1 0.026340 0.500000 0.421010 0.928291
Cu3   Cu    Cu3+1 0.473640 1.000000 0.578990 0.909016
Cu4   Cu    Cu3+1 0.973640 0.500000 0.578990 0.909016
H1    H     H_    0.724435 0.000023 0.114336 0.151901
H2    H     H_    0.224435 0.500023 0.114336 0.151901
H3    H     H_    0.758535 0.000152 0.338599 0.134772
H4    H     H_    0.258535 0.500152 0.338599 0.134772
H5    H     H_    0.430630 0.999612 0.116211 0.122769
H6    H     H_    0.930630 0.499612 0.116211 0.122769
H7    H     H_    0.296793 0.000344 0.516357 0.121514
H8    H     H_    0.796793 0.500344 0.516357 0.121514
H9    H     H_    0.336186 0.996812 0.894496 0.138781
H10   H     H_    0.836186 0.496812 0.894496 0.138781
H11   H     H_    0.234828 0.996871 0.642107 0.152880
H12   H     H_    0.734828 0.496871 0.642107 0.152880
H13   H     H_    0.620996 0.000222 0.868950 0.208241
H14   H     H_    0.120996 0.500222 0.868950 0.208241
H15   H     H_    0.520544 0.239701 0.881395 0.133906
H16   H     H_    0.533808 0.785838 0.922829 0.141957
H17   H     H_    0.020544 0.739701 0.881395 0.133906
H18   H     H_    0.033808 0.285838 0.922829 0.141957
H19   H     H_    0.601056 0.284566 0.115846 0.129072
H20   H     H_    0.627204 0.747374 0.161746 0.132538
H21   H     H_    0.101056 0.784566 0.115846 0.129072
H22   H     H_    0.127204 0.247374 0.161746 0.132538
H23   H     H_    0.372909 0.831625 0.149507 0.161781
H24   H     H_    0.359569 0.155265 0.128977 0.162308
H25   H     H_    0.872909 0.331625 0.149507 0.161781
H26   H     H_    0.859569 0.655265 0.128977 0.162308
H27   H     H_    0.771841 0.121113 0.701332 0.149897
H28   H     H_    0.746732 0.848006 0.652889 0.152265
H29   H     H_    0.271841 0.621113 0.701332 0.149897
H30   H     H_    0.246732 0.348006 0.652889 0.152265
H31   H     H_    0.395215 0.762513 0.043002 0.122613
H32   H     H_    0.364141 0.198252 0.980517 0.124755
H33   H     H_    0.895214 0.262513 0.043002 0.122613
H34   H     H_    0.864141 0.698252 0.980517 0.124755
H35   H     H_    0.402394 0.692399 0.887628 0.132567
H36   H     H_    0.361735 0.257081 0.805947 0.132393
H37   H     H_    0.902394 0.192399 0.887628 0.132567
H38   H     H_    0.861735 0.757081 0.805947 0.132393
H39   H     H_    0.524681 0.190510 0.705455 0.161814
H40   H     H_    0.522476 0.820814 0.726391 0.180841
H41   H     H_    0.024681 0.690510 0.705455 0.161814
H42   H     H_    0.022476 0.320814 0.726391 0.180841
H43   H     H_    0.706548 0.000319 0.477782 0.116218
H44   H     H_    0.206548 0.500319 0.477782 0.116218
N1    N     N_R   0.566260 1.000000 0.302220 -0.174770
N2    N     N_R   0.066260 0.500000 0.302220 -0.174770
N3    N     N_R   0.434410 0.000000 0.697680 -0.205284
N4    N     N_R   0.934410 0.500000 0.697680 -0.205284
O1    O     O_R   0.608610 0.924520 0.551740 -0.580263
O2    O     O_R   0.608610 0.075480 0.551740 -0.577367
O3    O     O_R   0.108610 0.424520 0.551740 -0.580263
O4    O     O_R   0.108610 0.575480 0.551740 -0.577367
O5    O     O_R   0.564110 0.924510 0.685150 -0.601838
O6    O     O_R   0.564110 0.075490 0.685150 -0.598944
O7    O     O_R   0.064110 0.424510 0.685150 -0.601838
O8    O     O_R   0.064110 0.575490 0.685150 -0.598944
O9    O     O_R   0.435880 0.075470 0.314850 -0.581615
O10   O     O_R   0.435880 0.924530 0.314850 -0.583007
O11   O     O_R   0.935880 0.575470 0.314850 -0.581615
O12   O     O_R   0.935880 0.424530 0.314850 -0.583007
O13   O     O_R   0.391380 0.075460 0.448260 -0.592916
O14   O     O_R   0.391380 0.924540 0.448260 -0.588549
O15   O     O_R   0.891380 0.575460 0.448260 -0.592916
O16   O     O_R   0.891380 0.424540 0.448260 -0.588549
C89   C     C_3   0.238610 0.838733 0.365508 -0.384968
C90   C     C_3   0.308053 0.786600 0.482707 -0.322067
C91   C     C_3   0.317583 0.798414 0.613164 -0.837574
H45   H     H_    0.344452 0.853105 0.655947 0.266709
H46   H     H_    0.250657 0.791178 0.590119 0.263100
H47   H     H_    0.367043 0.758603 0.692920 0.233341
H48   H     H_    0.285383 0.730138 0.446329 0.215160
H49   H     H_    0.376279 0.793181 0.510051 0.215231
H50   H     H_    0.252251 0.895427 0.400174 0.203343
H51   H     H_    0.170313 0.826671 0.335313 0.179543
C92   C     C_3   0.264076 0.187052 0.399388 -0.395374
C93   C     C_3   0.189060 0.142456 0.382835 -0.345159
C94   C     C_3   0.192293 0.151904 0.508527 -0.842646
H52   H     H_    0.262235 0.141483 0.606831 0.266869
H53   H     H_    0.171944 0.207780 0.511006 0.260752
H54   H     H_    0.143812 0.113830 0.500826 0.236713
H55   H     H_    0.120156 0.159500 0.288801 0.212901
H56   H     H_    0.197200 0.084788 0.369008 0.211120
H57   H     H_    0.332554 0.169195 0.491795 0.211884
H58   H     H_    0.258910 0.243903 0.423068 0.188562
C95   C     C_3   0.738610 0.338733 0.365508 -0.384968
C96   C     C_3   0.808053 0.286600 0.482707 -0.322067
C97   C     C_3   0.817583 0.298414 0.613164 -0.837575
H59   H     H_    0.844452 0.353105 0.655947 0.266709
H60   H     H_    0.750658 0.291178 0.590119 0.263101
H61   H     H_    0.867043 0.258603 0.692920 0.233341
H62   H     H_    0.785383 0.230138 0.446329 0.215160
H63   H     H_    0.876279 0.293181 0.510051 0.215231
H64   H     H_    0.752251 0.395427 0.400174 0.203343
H65   H     H_    0.670313 0.326671 0.335313 0.179543
C98   C     C_3   0.764076 0.687051 0.399388 -0.395374
C99   C     C_3   0.689060 0.642456 0.382835 -0.345159
C100  C     C_3   0.692293 0.651904 0.508527 -0.842646
H66   H     H_    0.762235 0.641483 0.606831 0.266869
H67   H     H_    0.671944 0.707780 0.511006 0.260752
H68   H     H_    0.643812 0.613830 0.500826 0.236713
H69   H     H_    0.620156 0.659500 0.288802 0.212901
H70   H     H_    0.697200 0.584788 0.369008 0.211120
H71   H     H_    0.832554 0.669195 0.491795 0.211884
H72   H     H_    0.758910 0.743902 0.423068 0.188562

loop_
_geom_bond_atom_site_label_1
_geom_bond_atom_site_label_2
_ccdc_geom_bond_type
C83   C87   A    
C3    O7    A    
C89   C90   S    
C98   H72   S    
Cu4   O8    S    
C94   H52   S    
C14   C18   A    
C18   H40   S    
C58   H6    S    
C13   H15   S    
C39   C66   S    
C96   C97   S    
C16   H18   S    
C32   C72   A    
C42   O16   A    
C1    C30   S    
C93   H56   S    
C4    O4    A    
C18   C86   A    
C55   H13   S    
C2    C29   S    
C9    C61   A    
C92   H57   S    
C28   C68   A    
C34   H4    S    
C5    C11   A    
C19   C87   A    
C6    C12   A    
C5    C83   A    
Cu1   O1    S    
C17   H39   S    
C59   N1    A    
C95   H64   S    
Cu1   O2    S    
C6    C22   A    
C49   C57   A    
C48   C56   A    
C25   C63   A    
C45   C47   A    
C23   C67   A    
C100  H67   S    
C9    C13   A    
C22   C66   A    
C38   H12   S    
C27   C61   A    
Cu1   O9    S    
C35   N3    A    
C76   H38   S    
C3    O3    A    
C74   H36   S    
C12   C16   A    
C70   H28   S    
C49   C51   A    
C96   H63   S    
C50   C52   A    
C31   C71   A    
C91   H46   S    
Cu1   Cu3   S    
C78   H32   S    
C30   C70   A    
C29   C85   A    
Cu2   O3    S    
C90   H49   S    
C97   H61   S    
C72   H30   S    
C58   N2    A    
C62   H20   S    
C22   H24   S    
C79   H33   S    
C99   H70   S    
C33   C59   A    
Cu4   O7    S    
C34   C60   A    
C94   H53   S    
C40   O14   A    
C10   C62   A    
C11   C15   A    
C35   H7    S    
C33   H3    S    
C21   C65   A    
Cu2   N2    S    
C44   C46   A    
C46   C50   A    
C41   C68   S    
C29   C69   A    
C53   C55   A    
C93   H55   S    
C46   C48   A    
C26   C92   S    
C6    C84   A    
C28   C62   A    
C48   N4    A    
C57   N1    A    
C53   H1    S    
C26   C66   A    
C84   C88   A    
C31   C87   A    
Cu3   O14   S    
C72   C74   A    
C10   C14   A    
C28   C98   S    
C89   H50   S    
C92   C93   S    
C71   C73   A    
C44   H10   S    
C82   C86   A    
C69   H27   S    
C95   H65   S    
C99   C100  S    
C51   C53   A    
C4    O8    A    
C50   C58   A    
C37   C43   A    
C100  H68   S    
C15   C19   A    
C43   H9    S    
C38   C44   A    
C77   H31   S    
C43   C45   A    
Cu2   Cu4   S    
C91   H45   S    
C45   C49   A    
C16   C20   A    
C57   H5    S    
C91   H47   S    
C40   O10   A    
C3    C32   S    
C36   H8    S    
C36   N4    A    
C56   H14   S    
C90   H48   S    
Cu3   N3    S    
C19   H41   S    
Cu2   O12   S    
Cu1   O10   S    
C7    C81   A    
C39   O13   A    
C99   H69   S    
Cu1   N1    S    
C40   C65   S    
C25   C89   S    
C42   C67   S    
C2    O2    A    
C94   H54   S    
C17   C85   A    
C33   C51   A    
C1    O5    A    
Cu4   O16   S    
Cu4   N4    S    
C30   C86   A    
C96   H62   S    
Cu3   O5    S    
C42   O12   A    
C35   C37   A    
C47   C55   A    
C7    C9    A    
C12   C64   A    
C60   H44   S    
C93   C94   S    
C73   C77   A    
C98   H71   S    
C34   C52   A    
C71   H29   S    
C76   C80   A    
Cu2   O11   S    
C89   H51   S    
C23   H25   S    
C37   H11   S    
C27   C95   S    
C54   C56   A    
Cu3   O13   S    
C41   O11   A    
C26   C64   A    
C2    O6    A    
C39   O9    A    
C79   C81   A    
C21   H23   S    
C13   C17   A    
C36   C38   A    
C98   C99   S    
C73   H35   S    
C70   C76   A    
C14   H16   S    
C15   H17   S    
C1    O1    A    
C90   C91   S    
C80   H34   S    
C61   H19   S    
C7    C23   A    
C20   C88   A    
C59   H43   S    
C24   H26   S    
C8    C24   A    
C80   C82   A    
C52   C54   A    
C69   C75   A    
Cu4   O15   S    
C100  H66   S    
Cu2   O4    S    
C54   H2    S    
C4    C31   S    
C27   C67   A    
C24   C68   A    
C97   H59   S    
C63   H21   S    
C78   C84   A    
C8    C82   A    
C5    C21   A    
C64   H22   S    
C8    C10   A    
C95   C96   S    
C74   C78   A    
C47   N3    A    
C25   C65   A    
C77   C83   A    
C97   H60   S    
C20   H42   S    
C11   C63   A    
C75   C79   A    
Cu3   O6    S    
C81   C85   A    
C75   H37   S    
C60   N2    A    
C92   H58   S    
C41   O15   A    
C32   C88   A    
