data_mof_unit_21077.cif
_audit_creation_date              2012-12-10T16:48:07-0500
_audit_creation_method            fapswitch 2.2
_symmetry_space_group_name_H-M    P1
_symmetry_Int_Tables_number       1
_space_group_crystal_system       triclinic
_cell_length_a                    15.826813
_cell_length_b                    8.688176
_cell_length_c                    7.521674
_cell_angle_alpha                 103.330089
_cell_angle_beta                  94.768323
_cell_angle_gamma                 93.269535
_cell_volume                      999.826266599

loop_
_atom_site_label
_atom_site_type_symbol
_atom_type_description
_atom_site_fract_x
_atom_site_fract_y
_atom_site_fract_z
_atom_type_partial_charge
C1    C     C_R   0.497346 0.199776 0.453012 0.861564
C2    C     C_R   0.502654 0.800224 0.546988 0.861567
C3    C     C_R   0.340093 0.499409 0.501207 0.807344
C4    C     C_R   0.659907 0.500588 0.498792 0.807341
C5    C     C_2   0.495937 0.031397 0.427217 -0.311773
C6    C     C_2   0.504063 0.968603 0.572783 -0.311774
C7    C     C_3   0.968968 0.369037 0.547860 -0.221542
C8    C     C_3   0.031032 0.630972 0.452141 -0.221541
C9    C     C_3   0.019471 0.371572 0.381535 0.448525
C10   C     C_3   0.980530 0.628437 0.618467 0.448525
C11   C     C_1   0.250489 0.499608 0.503914 -0.085418
C12   C     C_1   0.749511 0.500394 0.496087 -0.085418
C13   C     C_3   0.033897 0.499260 0.670570 -0.223157
C14   C     C_3   0.966104 0.500749 0.329432 -0.223157
C15   C     C_3   0.083128 0.500142 0.502710 0.011187
C16   C     C_3   0.916873 0.499867 0.497292 0.011188
C17   C     C_1   0.174882 0.499808 0.504251 0.068439
C18   C     C_1   0.825118 0.500198 0.495750 0.068438
Cu1   Cu    Cu3+1 0.509330 0.517380 0.684380 1.116642
Cu2   Cu    Cu3+1 0.490670 0.482620 0.315620 1.116642
H1    H     H_    0.942517 0.261044 0.585445 0.207100
H2    H     H_    0.057483 0.738965 0.414556 0.207100
H3    H     H_    0.937412 0.499906 0.189278 0.198318
H4    H     H_    0.062588 0.500103 0.810723 0.198318
H5    H     H_    0.488137 0.958850 0.287418 0.208510
H6    H     H_    0.511863 0.041150 0.712582 0.208510
N1    N     N_2   0.476600 0.456420 0.038510 0.110518
N2    N     N_2   0.523400 0.543580 0.961490 0.110518
O1    O     O_R   0.506070 0.286130 0.619780 -0.554891
O2    O     O_R   0.493930 0.713870 0.380220 -0.554890
O3    O     O_R   0.490300 0.256770 0.308360 -0.564111
O4    O     O_R   0.509700 0.743230 0.691640 -0.564111
O5    O     O_R   0.386960 0.514660 0.655680 -0.545744
O6    O     O_R   0.613040 0.485340 0.344320 -0.545743
O7    O     O_R   0.371190 0.485310 0.344260 -0.553892
O8    O     O_R   0.628810 0.514690 0.655740 -0.553891
Cl1   Cl    Cl    0.046401 0.199610 0.222931 -0.515416
Cl2   Cl    Cl    0.953599 0.800399 0.777070 -0.515415
Cl3   Cl    Cl    0.398933 0.319946 0.907804 -0.462207
Cl4   Cl    Cl    0.601067 0.680054 0.092196 -0.462206

loop_
_geom_bond_atom_site_label_1
_geom_bond_atom_site_label_2
_ccdc_geom_bond_type
C14   H3    S    
C8    H2    S    
C9    C14   S    
C4    O8    A    
C15   C17   S    
Cu2   N1    S    
C4    C12   S    
Cu1   Cu2   S    
C3    O7    A    
C10   Cl2   S    
Cu2   O6    S    
C1    O1    A    
C9    C15   S    
Cu2   O2    S    
Cu1   N2    S    
C6    H6    S    
C1    C5    S    
Cu1   O4    S    
C16   C18   S    
C7    C16   S    
C8    C15   S    
C4    O6    A    
Cu1   O8    S    
C13   C15   S    
C1    O3    A    
C5    C6    D    
C5    H5    S    
C3    C11   S    
C2    O2    A    
N2    Cl4   S    
Cu1   O1    S    
C7    C13   S    
C2    O4    A    
C9    Cl1   S    
Cu1   O5    S    
C12   C18   T    
N1    N2    D    
C7    C9    S    
C3    O5    A    
C11   C17   T    
C10   C16   S    
C8    C14   S    
C14   C16   S    
C7    H1    S    
Cu2   O7    S    
Cu2   O3    S    
C8    C10   S    
C2    C6    S    
C13   H4    S    
N1    Cl3   S    
C10   C13   S    
