data_mof_unit_58696.cif
_audit_creation_date              2012-12-11T15:44:45-0500
_audit_creation_method            fapswitch 2.2
_symmetry_space_group_name_H-M    P1
_symmetry_Int_Tables_number       1
_space_group_crystal_system       triclinic
_cell_length_a                    19.175492
_cell_length_b                    10.993764
_cell_length_c                    18.796596
_cell_angle_alpha                 90.367263
_cell_angle_beta                  90.23111
_cell_angle_gamma                 90.010532
_cell_volume                      3962.41234556

loop_
_atom_site_label
_atom_site_type_symbol
_atom_type_description
_atom_site_fract_x
_atom_site_fract_y
_atom_site_fract_z
_atom_type_partial_charge
C1    C     C_R   0.760666 0.534384 0.646296 0.528826
C2    C     C_R   0.238875 0.533353 0.353278 0.528201
C3    C     C_R   0.260632 0.034410 0.646289 0.528166
C4    C     C_R   0.738813 0.032718 0.353473 0.554706
C5    C     C_R   0.744519 0.014032 0.549828 0.226606
C6    C     C_R   0.163441 0.110168 0.480251 0.223044
C7    C     C_R   0.243943 0.514711 0.549623 0.227969
C8    C     C_R   0.663481 0.612426 0.480601 0.197472
C9    C     C_R   0.731611 0.986708 0.478722 -0.076755
C10   C     C_R   0.175454 0.090288 0.553221 -0.143659
C11   C     C_R   0.230650 0.488096 0.478464 -0.066070
C12   C     C_R   0.675582 0.592147 0.553520 -0.140089
C13   C     C_3   0.744145 0.303435 0.423824 0.098747
C14   C     C_3   0.368537 0.153676 0.525933 0.089133
C15   C     C_3   0.247724 0.806270 0.424443 0.105885
C16   C     C_3   0.869099 0.647176 0.525139 0.089553
C17   C     C_3   0.750240 0.334612 0.501896 -0.231452
C18   C     C_3   0.352324 0.195729 0.450944 -0.183057
C19   C     C_3   0.254485 0.836008 0.502604 -0.191721
C20   C     C_3   0.853245 0.690026 0.450211 -0.184679
C21   C     C_R   0.770688 0.130962 0.567165 0.024161
C22   C     C_R   0.217046 0.159767 0.438045 0.033059
C23   C     C_R   0.271044 0.630917 0.567106 0.024436
C24   C     C_R   0.717455 0.659760 0.438053 0.024137
C25   C     C_R   0.007205 0.350671 0.429683 -0.007079
C26   C     C_R   0.008079 0.325321 0.578805 -0.023626
C27   C     C_R   0.506999 0.850946 0.429564 -0.007757
C28   C     C_R   0.507761 0.825274 0.578642 -0.023876
C29   C     C_R   0.950275 0.152022 0.417256 -0.052507
C30   C     C_R   0.971101 0.108991 0.561370 -0.088617
C31   C     C_R   0.449765 0.652913 0.416799 -0.052689
C32   C     C_R   0.470089 0.609315 0.560931 -0.087646
C33   C     C_R   0.929897 0.041808 0.446354 -0.115435
C34   C     C_R   0.941580 0.019155 0.518012 -0.138966
C35   C     C_R   0.429377 0.542620 0.445626 -0.115679
C36   C     C_R   0.440714 0.519705 0.517316 -0.139314
C37   C     C_R   0.987231 0.225800 0.534262 0.021502
C38   C     C_R   0.981927 0.242922 0.459953 0.046930
C39   C     C_R   0.486531 0.726113 0.534004 0.024176
C40   C     C_R   0.481368 0.743481 0.459707 0.050219
C41   C     C_R   0.038016 0.428832 0.548343 0.038630
C42   C     C_R   0.028244 0.449958 0.475239 0.054175
C43   C     C_R   0.537939 0.928625 0.548252 0.037923
C44   C     C_R   0.528122 0.950016 0.475187 0.051274
C45   C     C_R   0.789233 0.165839 0.638575 0.551484
C46   C     C_R   0.208379 0.172018 0.360917 0.587010
C47   C     C_R   0.289272 0.665808 0.638592 0.549188
C48   C     C_R   0.708468 0.671963 0.360943 0.584650
C49   C     C_R   0.070738 0.518254 0.591446 -0.046546
C50   C     C_R   0.035847 0.572512 0.452081 -0.029799
C51   C     C_R   0.570764 0.017827 0.591415 -0.047447
C52   C     C_R   0.535549 0.072662 0.452178 -0.019266
C53   C     C_R   0.083780 0.633977 0.565353 -0.121872
C54   C     C_R   0.063488 0.662444 0.496633 -0.114053
C55   C     C_R   0.583370 0.133850 0.565577 -0.120851
C56   C     C_R   0.562739 0.162641 0.497004 -0.102849
C57   C     C_R   0.741559 0.052897 0.069186 -0.036861
C58   C     C_R   0.249548 0.073074 0.924544 -0.041025
C59   C     C_R   0.241563 0.552933 0.069194 -0.036845
C60   C     C_R   0.749550 0.573069 0.924545 -0.041052
C61   C     C_R   0.799174 0.004884 0.034101 -0.016422
C62   C     C_R   0.206131 0.997830 0.964425 -0.008555
C63   C     C_R   0.299180 0.504931 0.034110 -0.015937
C64   C     C_R   0.706134 0.497823 0.964426 -0.008591
C65   C     C_R   0.804801 0.014149 0.961183 0.074886
C66   C     C_R   0.204705 0.005558 0.038032 -0.003635
C67   C     C_R   0.304805 0.514169 0.961191 0.074815
C68   C     C_R   0.704707 0.505549 0.038033 -0.002271
C69   C     C_R   0.688941 0.094158 0.952463 -0.108369
C70   C     C_R   0.288294 0.169665 0.033654 -0.034867
C71   C     C_R   0.188944 0.594178 0.952469 -0.108414
C72   C     C_R   0.788293 0.669661 0.033655 -0.035601
C73   C     C_R   0.683720 0.093087 0.027075 0.213607
C74   C     C_R   0.290464 0.162164 0.959421 0.188450
C75   C     C_R   0.183724 0.593116 0.027082 0.214076
C76   C     C_R   0.790464 0.662159 0.959422 0.188432
C77   C     C_3   0.873778 0.039128 0.046721 0.066795
C78   C     C_3   0.128280 0.999283 0.958490 0.089349
C79   C     C_3   0.373779 0.539201 0.046727 0.066688
C80   C     C_3   0.628283 0.499272 0.958491 0.089116
C81   C     C_3   0.879672 0.049062 0.966731 0.157146
C82   C     C_3   0.126848 0.001444 0.038549 0.150829
C83   C     C_3   0.379676 0.549085 0.966736 0.157146
C84   C     C_3   0.626850 0.501430 0.038549 0.150576
C85   C     C_R   0.752626 0.069261 0.920082 -0.070945
C86   C     C_R   0.245242 0.092265 0.073751 -0.029238
C87   C     C_R   0.252628 0.569272 0.920087 -0.071107
C88   C     C_R   0.745243 0.592260 0.073752 -0.029254
C89   C     C_R   0.972889 0.343350 0.648150 0.520234
C90   C     C_R   0.031028 0.348759 0.354771 0.519115
C91   C     C_R   0.472782 0.843342 0.648077 0.519625
C92   C     C_R   0.531028 0.848820 0.354746 0.518516
C93   C     C_R   0.009395 0.342414 0.072327 0.023768
C94   C     C_R   0.001648 0.344911 0.923511 -0.029937
C95   C     C_R   0.509397 0.842414 0.072326 0.023543
C96   C     C_R   0.501649 0.844913 0.923511 -0.030003
C97   C     C_R   0.011920 0.451394 0.035376 0.098839
C98   C     C_R   0.007598 0.453574 0.962451 0.027317
C99   C     C_R   0.511916 0.951394 0.035376 0.098614
C100  C     C_R   0.507594 0.953575 0.962451 0.027303
C101  C     C_R   0.007424 0.234880 0.959691 -0.195320
C102  C     C_R   0.007243 0.233567 0.033952 -0.193589
C103  C     C_R   0.507431 0.734882 0.959689 -0.195348
C104  C     C_R   0.507251 0.733568 0.033951 -0.193535
C105  C     C_3   0.964869 0.557818 0.045443 0.154986
C106  C     C_3   0.958784 0.560370 0.965430 0.193236
C107  C     C_3   0.464860 0.057811 0.045445 0.155116
C108  C     C_3   0.458774 0.060363 0.965432 0.193255
C109  C     C_R   0.760249 0.533065 0.851755 0.537185
C110  C     C_R   0.237137 0.525481 0.145116 0.544558
C111  C     C_R   0.260249 0.033066 0.851755 0.537207
C112  C     C_R   0.737134 0.025464 0.145111 0.547097
C113  C     C_R   0.772033 0.122991 0.851833 0.543591
C114  C     C_R   0.226753 0.128150 0.146055 0.543800
C115  C     C_R   0.272033 0.622993 0.851835 0.543654
C116  C     C_R   0.726754 0.628149 0.146055 0.546536
C117  C     C_R   0.970068 0.347823 0.853478 0.538123
C118  C     C_R   0.030683 0.346797 0.145987 0.545266
C119  C     C_R   0.470068 0.847823 0.853477 0.538293
C120  C     C_R   0.530683 0.846797 0.145987 0.542842
C121  C     C_R   0.746631 0.070772 0.425421 0.035355
C122  C     C_R   0.242844 0.103924 0.582418 -0.001967
C123  C     C_R   0.246251 0.572047 0.425208 0.022196
C124  C     C_R   0.743165 0.603976 0.582425 0.000376
C125  C     C_R   0.774580 0.183148 0.442208 0.029646
C126  C     C_R   0.291988 0.166705 0.541674 0.055524
C127  C     C_R   0.275632 0.683362 0.442180 -0.003132
C128  C     C_R   0.792916 0.664608 0.541325 0.054535
C129  C     C_R   0.784242 0.214149 0.513139 -0.069570
C130  C     C_R   0.277739 0.199816 0.472515 -0.051042
C131  C     C_R   0.285755 0.713428 0.513131 -0.073225
C132  C     C_R   0.778810 0.697874 0.472137 -0.047065
Cr1   Cr    Cr6+3 0.885860 0.491680 0.749630 1.000465
Cr2   Cr    Cr6+3 0.114140 0.491680 0.250370 1.006237
Cr3   Cr    Cr6+3 0.385860 0.991680 0.749630 0.999937
Cr4   Cr    Cr6+3 0.614140 0.991680 0.250370 1.028116
Cr5   Cr    Cr6+3 0.730490 0.332970 0.748720 0.974359
Cr6   Cr    Cr6+3 0.269510 0.332970 0.251280 0.976132
Cr7   Cr    Cr6+3 0.230490 0.832970 0.748720 0.974094
Cr8   Cr    Cr6+3 0.769510 0.832970 0.251280 0.977217
Cr9   Cr    Cr6+3 0.887570 0.179310 0.750150 0.983048
Cr10  Cr    Cr6+3 0.112430 0.179310 0.249850 1.018097
Cr11  Cr    Cr6+3 0.387570 0.679310 0.750150 0.982631
Cr12  Cr    Cr6+3 0.612430 0.679310 0.249850 1.013975
H1    H     H_    0.106494 0.703110 0.599524 0.121233
H2    H     H_    0.068061 0.755050 0.478095 0.157753
H3    H     H_    0.605873 0.202977 0.599897 0.119366
H4    H     H_    0.566699 0.255531 0.478818 0.142764
H5    H     H_    0.645613 0.124692 0.920352 0.156685
H6    H     H_    0.316907 0.241768 0.059746 0.169104
H7    H     H_    0.145617 0.624708 0.920358 0.156677
H8    H     H_    0.816903 0.741767 0.059748 0.168952
H9    H     H_    0.879555 0.128044 0.074784 0.093437
H10   H     H_    0.110150 0.084388 0.933527 0.086111
H11   H     H_    0.379545 0.628138 0.074769 0.092539
H12   H     H_    0.610152 0.584377 0.933528 0.086120
H13   H     H_    0.887820 0.143317 0.947982 0.105001
H14   H     H_    0.104650 0.084663 0.061239 0.129568
H15   H     H_    0.387826 0.643327 0.947968 0.104977
H16   H     H_    0.604652 0.584647 0.061241 0.129083
H17   H     H_    0.003492 0.150242 0.930771 0.159650
H18   H     H_    0.002764 0.148461 0.061586 0.162447
H19   H     H_    0.503500 0.650243 0.930768 0.159681
H20   H     H_    0.502773 0.648462 0.061583 0.162635
H21   H     H_    0.990171 0.639386 0.069741 0.204978
H22   H     H_    0.905880 0.539385 0.944553 0.185890
H23   H     H_    0.490159 0.139382 0.069743 0.205152
H24   H     H_    0.405871 0.039368 0.944555 0.185833
H25   H     H_    0.707488 0.901083 0.464885 0.125486
H26   H     H_    0.134481 0.048452 0.584157 0.116252
H27   H     H_    0.205976 0.402929 0.464535 0.124403
H28   H     H_    0.634336 0.551691 0.584711 0.118043
H29   H     H_    0.778163 0.357782 0.388123 0.132190
H30   H     H_    0.403128 0.215523 0.557031 0.134303
H31   H     H_    0.282862 0.860609 0.389816 0.124094
H32   H     H_    0.905021 0.707179 0.555924 0.136287
H33   H     H_    0.786551 0.409755 0.511361 0.154540
H34   H     H_    0.373086 0.287268 0.439644 0.094041
H35   H     H_    0.292406 0.908428 0.512809 0.149684
H36   H     H_    0.875560 0.780566 0.438773 0.093336
H37   H     H_    0.699342 0.342150 0.529757 0.159312
H38   H     H_    0.362877 0.126394 0.408939 0.176039
H39   H     H_    0.203779 0.845862 0.530572 0.168179
H40   H     H_    0.862457 0.620168 0.408167 0.175753
H41   H     H_    0.906232 0.973512 0.412575 0.125452
H42   H     H_    0.928391 0.931454 0.540005 0.108856
H43   H     H_    0.405940 0.474670 0.411515 0.125515
H44   H     H_    0.427411 0.432006 0.539155 0.107244
H45   H     H_    0.939934 0.166310 0.361284 0.112976
H46   H     H_    0.983776 0.083256 0.615220 0.137173
H47   H     H_    0.439574 0.667440 0.360817 0.110776
H48   H     H_    0.482590 0.583217 0.614754 0.137426
H49   H     H_    0.015638 0.604539 0.402010 0.148062
H50   H     H_    0.083864 0.499773 0.646446 0.131288
H51   H     H_    0.515352 0.104659 0.402089 0.149301
H52   H     H_    0.584020 0.999091 0.646352 0.130911
O1    O     O_R   0.957020 0.451640 0.669920 -0.527792
O2    O     O_R   0.042980 0.451640 0.330080 -0.543234
O3    O     O_R   0.457020 0.951640 0.669920 -0.529136
O4    O     O_R   0.542980 0.951640 0.330080 -0.544234
O5    O     O_R   0.736470 0.210100 0.823360 -0.504135
O6    O     O_R   0.263530 0.210100 0.176640 -0.505579
O7    O     O_R   0.236470 0.710100 0.823360 -0.503982
O8    O     O_R   0.763530 0.710100 0.176640 -0.505816
O9    O     O_R   0.831960 0.093290 0.830130 -0.528398
O10   O     O_R   0.168040 0.093290 0.169870 -0.544763
O11   O     O_R   0.331960 0.593290 0.830130 -0.528414
O12   O     O_R   0.668040 0.593290 0.169870 -0.541032
O13   O     O_R   0.945600 0.250580 0.824860 -0.518256
O14   O     O_R   0.054400 0.250580 0.175140 -0.522839
O15   O     O_R   0.445600 0.750580 0.824860 -0.518127
O16   O     O_R   0.554400 0.750580 0.175140 -0.523379
O17   O     O_3   0.834640 0.334650 0.749500 -0.254453
O18   O     O_3   0.165360 0.334650 0.250500 -0.272605
O19   O     O_3   0.334640 0.834650 0.749500 -0.254060
O20   O     O_3   0.665360 0.834650 0.250500 -0.276261
O21   O     O_R   0.821450 0.543440 0.674610 -0.510021
O22   O     O_R   0.178550 0.543440 0.325390 -0.492933
O23   O     O_R   0.321450 0.043440 0.674610 -0.510636
O24   O     O_R   0.678550 0.043440 0.325390 -0.461647
O25   O     O_R   0.715320 0.458650 0.668100 -0.544388
O26   O     O_R   0.284680 0.458650 0.331900 -0.548464
O27   O     O_R   0.215320 0.958650 0.668100 -0.545089
O28   O     O_R   0.784680 0.958650 0.331900 -0.558107
O29   O     O_R   0.737170 0.209590 0.674530 -0.523528
O30   O     O_R   0.262830 0.209590 0.325470 -0.530181
O31   O     O_R   0.237170 0.709590 0.674530 -0.524146
O32   O     O_R   0.762830 0.709590 0.325470 -0.526860
O33   O     O_R   0.832710 0.092740 0.669580 -0.514530
O34   O     O_R   0.167290 0.092740 0.330420 -0.439076
O35   O     O_R   0.332710 0.592740 0.669580 -0.515222
O36   O     O_R   0.667290 0.592740 0.330420 -0.468664
O37   O     O_R   0.946290 0.250060 0.676040 -0.524821
O38   O     O_R   0.053710 0.250060 0.323960 -0.487276
O39   O     O_R   0.446290 0.750060 0.676040 -0.524898
O40   O     O_R   0.553710 0.750060 0.323960 -0.484139
O41   O     O_R   0.956270 0.452200 0.830470 -0.538476
O42   O     O_R   0.043730 0.452200 0.169530 -0.511813
O43   O     O_R   0.456270 0.952200 0.830470 -0.538292
O44   O     O_R   0.543730 0.952200 0.169530 -0.512816
O45   O     O_R   0.820760 0.543950 0.823440 -0.502428
O46   O     O_R   0.179240 0.543950 0.176560 -0.500278
O47   O     O_R   0.320760 0.043950 0.823440 -0.502389
O48   O     O_R   0.679240 0.043950 0.176560 -0.495989
O49   O     O_R   0.714570 0.459210 0.828640 -0.518090
O50   O     O_R   0.285430 0.459210 0.171360 -0.522922
O51   O     O_R   0.214570 0.959210 0.828640 -0.517985
O52   O     O_R   0.785430 0.959210 0.171360 -0.523878
O53   O     O_3   0.728308 0.926577 0.599569 -0.714522
H53   H     H_    0.728059 0.963265 0.647708 0.344653
O54   O     O_3   0.102640 0.070511 0.448417 -0.656341
H54   H     H_    0.079335 0.012563 0.480675 0.323323
O55   O     O_3   0.227178 0.427361 0.599237 -0.717316
H55   H     H_    0.227961 0.463453 0.647524 0.344981
O56   O     O_3   0.602032 0.575353 0.449111 -0.688234
H56   H     H_    0.578656 0.517100 0.481123 0.316542
O57   O     O_3   0.623175 0.137540 0.056001 -0.667680
H57   H     H_    0.635547 0.183822 0.099435 0.358635
O58   O     O_3   0.331351 0.244641 0.923633 -0.660738
H58   H     H_    0.315215 0.249320 0.873636 0.332905
O59   O     O_3   0.123179 0.637567 0.056007 -0.667437
H59   H     H_    0.135548 0.683841 0.099446 0.357035
O60   O     O_3   0.831352 0.744636 0.923635 -0.660677
H60   H     H_    0.815215 0.749317 0.873638 0.332962
N1    N     N_2   0.916713 0.941846 0.075883 -0.436653
H61   H     H_    0.912857 0.855934 0.054037 0.322387
C133  C     C_3   0.937085 0.948178 0.150060 -0.267565
H62   H     H_    0.905791 0.883238 0.181611 0.157785
H63   H     H_    0.931349 0.041540 0.172257 0.139732
H64   H     H_    0.992423 0.921132 0.155323 0.151316
N2    N     N_2   0.097714 0.889870 0.927937 -0.390576
H65   H     H_    0.117375 0.808535 0.945112 0.320203
C134  C     C_3   0.072799 0.892878 0.855056 -0.240867
H66   H     H_    0.107057 0.837078 0.820431 0.156204
H67   H     H_    0.069675 0.987124 0.834274 0.122092
H68   H     H_    0.020084 0.852553 0.852092 0.163148
N3    N     N_2   0.416716 0.441949 0.075919 -0.436547
H69   H     H_    0.412856 0.356015 0.054104 0.322335
C135  C     C_3   0.437094 0.448362 0.150092 -0.267620
H70   H     H_    0.405839 0.383387 0.181661 0.157752
H71   H     H_    0.431304 0.541724 0.172274 0.138784
H72   H     H_    0.492449 0.421422 0.155354 0.152353
N4    N     N_2   0.597719 0.389858 0.927936 -0.390540
H73   H     H_    0.617385 0.308524 0.945107 0.320222
C136  C     C_3   0.572799 0.392870 0.855058 -0.240868
H74   H     H_    0.607056 0.337076 0.820428 0.156162
H75   H     H_    0.569671 0.487118 0.834278 0.122089
H76   H     H_    0.520085 0.352541 0.852096 0.163102
O61   O     O_3   0.923248 0.960691 0.936179 -0.616724
H77   H     H_    0.929613 0.984262 0.885885 0.332275
O62   O     O_3   0.101115 0.894506 0.068775 -0.661574
H78   H     H_    0.110826 0.900628 0.120512 0.320894
O63   O     O_3   0.423254 0.460695 0.936205 -0.616710
H79   H     H_    0.429597 0.484209 0.885899 0.332269
O64   O     O_3   0.601118 0.394490 0.068773 -0.660963
H80   H     H_    0.610827 0.400612 0.120511 0.323300
O65   O     O_3   0.902362 0.523591 0.078028 -0.758495
H81   H     H_    0.909113 0.537830 0.129769 0.326179
O66   O     O_3   0.989188 0.665082 0.937177 -0.653602
H82   H     H_    0.977245 0.664250 0.885838 0.339158
O67   O     O_3   0.402355 0.023574 0.078030 -0.759149
H83   H     H_    0.409107 0.037808 0.129771 0.325697
O68   O     O_3   0.489172 0.165081 0.937178 -0.653588
H84   H     H_    0.477216 0.164260 0.885842 0.339168
O69   O     O_3   0.177954 0.803707 0.401998 -0.687738
H85   H     H_    0.179129 0.797166 0.349365 0.336125
O70   O     O_3   0.889859 0.525480 0.522221 -0.742685
H86   H     H_    0.884288 0.492420 0.570244 0.361367
O71   O     O_3   0.674847 0.293644 0.400671 -0.706565
H87   H     H_    0.659850 0.377323 0.388946 0.363573
O72   O     O_3   0.391593 0.033380 0.523022 -0.744553
H88   H     H_    0.386934 0.000529 0.571145 0.363083

loop_
_geom_bond_atom_site_label_1
_geom_bond_atom_site_label_2
_ccdc_geom_bond_type
C112  O52   A    
C11   H27   S    
Cr9   O13   S    
C9    H25   S    
O62   H78   S    
C70   H6    S    
Cr7   O51   S    
C12   H28   S    
O67   H83   S    
C13   H29   S    
C105  O65   S    
C106  H22   S    
Cr3   O3    S    
C94   C117  S    
C73   O57   S    
Cr7   O27   S    
N2    H65   S    
C29   C33   A    
C134  H68   S    
C1    O25   A    
Cr3   O47   S    
C34   H42   S    
C115  O7    A    
C70   C74   A    
C9    C121  A    
C113  O5    A    
C87   C115  S    
C20   H40   S    
C97   C105  S    
C122  C126  A    
C117  O41   A    
C15   C127  S    
C22   C130  A    
Cr2   O22   S    
Cr2   O42   S    
C20   C132  S    
C41   C49   A    
C116  O8    A    
C107  H23   S    
C100  C108  S    
O54   H54   S    
C30   C34   A    
C2    C123  S    
C60   C76   A    
C36   H44   S    
C25   C42   A    
C43   C44   A    
C37   C38   A    
Cr6   O50   S    
C66   C82   S    
C110  O46   A    
O68   H84   S    
C16   C20   S    
C45   O29   A    
C78   N2    S    
Cr4   O44   S    
C29   H45   S    
C18   C130  S    
C19   H39   S    
C19   H35   S    
Cr11  O19   S    
C17   H33   S    
Cr1   O1    S    
C28   C43   A    
C10   C122  A    
C14   C126  S    
C104  H20   S    
C57   C61   A    
C59   C63   A    
C98   C106  S    
C60   C64   A    
C1    C124  S    
C136  H75   S    
Cr6   O6    S    
C49   C53   A    
C51   C55   A    
Cr10  O10   S    
C127  C131  A    
Cr4   O4    S    
C82   O62   S    
C79   H11   S    
C61   C65   A    
C112  O48   A    
C5    C21   A    
C80   N4    S    
Cr9   O37   S    
C2    O22   A    
C126  C130  A    
C120  O16   A    
C75   O59   S    
C67   C83   S    
Cr5   O25   S    
C97   C98   A    
C84   O64   S    
C53   C54   A    
C5    C9    A    
C25   C90   S    
C64   C68   A    
Cr8   O8    S    
O55   H55   S    
C48   O32   A    
C133  H64   S    
Cr10  O34   S    
Cr6   O26   S    
C91   O39   A    
Cr6   O30   S    
O57   H57   S    
C89   O37   A    
Cr5   O29   S    
C60   C109  S    
C107  O67   S    
C77   H9    S    
C27   C44   A    
C61   C77   S    
C29   C38   A    
C107  C108  S    
C13   O71   S    
C44   C52   A    
C135  H71   S    
C108  H24   S    
C109  O49   A    
N3    H69   S    
Cr1   O41   S    
C33   C34   A    
C21   C45   S    
C71   H7    S    
Cr8   O32   S    
C23   C47   S    
C62   C66   A    
C24   C48   S    
Cr2   O2    S    
C88   C116  S    
C39   C40   A    
Cr12  O20   S    
Cr8   O28   S    
C4    O24   A    
C113  O9    A    
C121  C125  A    
O63   H79   S    
C125  C129  A    
C25   C38   A    
Cr5   O49   S    
C123  C127  A    
C27   C40   A    
C8    C12   A    
O61   H77   S    
C23   C131  A    
N1    C133  S    
C21   C129  A    
C116  O12   A    
C42   C50   A    
C35   H43   S    
C93   C97   A    
C69   C85   A    
C58   C74   A    
C3    O27   A    
Cr8   O52   S    
C62   C78   S    
C66   C86   A    
C33   H41   S    
C133  H62   S    
C89   O1    A    
C119  O15   A    
C54   H2    S    
C85   C113  S    
C13   C125  S    
C119  O43   A    
Cr5   O5    S    
C7    C23   A    
C96   C100  A    
C8    C24   A    
C28   C91   S    
C30   H46   S    
Cr9   O9    S    
C17   H37   S    
C47   O31   A    
C18   H34   S    
C111  O51   A    
N4    H73   S    
Cr11  O35   S    
C92   O4    A    
C81   O61   S    
O58   H58   S    
C58   C62   A    
C92   O40   A    
C55   C56   A    
C101  C102  A    
C64   C80   S    
C41   C42   A    
C96   C119  S    
C35   C36   A    
C80   C84   S    
C84   H16   S    
O60   H60   S    
C15   C19   S    
C50   C54   A    
C6    O54   S    
C49   H50   S    
C94   C98   A    
C95   C99   A    
Cr9   O33   S    
C6    C22   A    
C31   H47   S    
C2    O26   A    
C31   C40   A    
C32   H48   S    
Cr7   O31   S    
C32   C39   A    
Cr2   O46   S    
Cr11  O11   S    
Cr7   O19   S    
C72   H8    S    
C135  H70   S    
C114  O6    A    
C69   C73   A    
C106  O66   S    
C77   N1    S    
C124  C128  A    
C118  O42   A    
C46   O34   A    
C52   H51   S    
C81   H13   S    
Cr12  O40   S    
C58   C111  S    
C68   C84   S    
C5    O53   S    
Cr10  O18   S    
O64   H80   S    
C78   H10   S    
C28   C39   A    
O71   H87   S    
O70   H86   S    
C30   C37   A    
O66   H82   S    
C136  H74   S    
C24   C132  A    
C65   C81   S    
C16   O70   S    
C109  O45   A    
C102  H18   S    
C53   H1    S    
O53   H53   S    
C120  O44   A    
C71   C87   A    
C22   C46   S    
C31   C35   A    
C32   C36   A    
Cr12  O16   S    
Cr6   O18   S    
C67   C87   A    
Cr12  O36   S    
C11   C123  A    
C93   C102  A    
C6    C10   A    
C26   C37   A    
Cr4   O24   S    
C13   C17   S    
C95   C120  S    
C10   H26   S    
C99   C107  S    
C105  C106  S    
C8    O56   S    
Cr2   O18   S    
C86   C114  S    
C69   H5    S    
Cr1   O17   S    
C14   H30   S    
Cr7   O7    S    
C79   C83   S    
C133  H63   S    
C43   C51   A    
O59   H59   S    
C82   H14   S    
C117  O13   A    
C50   H49   S    
C105  H21   S    
C4    C121  S    
C16   H32   S    
C108  O68   S    
C3    O23   A    
O69   H85   S    
C96   C103  A    
C103  C104  A    
C1    O21   A    
Cr12  O12   S    
O72   H88   S    
C115  O11   A    
N4    C136  S    
O65   H81   S    
C14   C18   S    
C72   C76   A    
C20   H36   S    
C63   C79   S    
C74   O58   S    
C26   C89   S    
C7    C11   A    
C136  H76   S    
C51   H52   S    
C57   C112  S    
C47   O35   A    
C18   H38   S    
C57   C73   A    
C59   C110  S    
C90   O38   A    
C135  H72   S    
Cr11  O39   S    
C78   C82   S    
C134  H67   S    
Cr3   O19   S    
C94   C101  A    
C77   C81   S    
N1    H61   S    
C3    C122  S    
Cr1   O45   S    
C110  O50   A    
C7    O55   S    
C45   O33   A    
C128  C132  A    
C72   C88   A    
C80   H12   S    
C15   O69   S    
C19   C131  S    
C63   C67   A    
Cr4   O48   S    
C17   C129  S    
Cr9   O17   S    
Cr11  O15   S    
C4    O28   A    
Cr1   O21   S    
C114  O10   A    
C56   H4    S    
C55   H3    S    
C99   C100  A    
C12   C124  A    
C79   N3    S    
Cr3   O23   S    
C134  H66   S    
C46   O30   A    
C27   C92   S    
C16   C128  S    
C76   O60   S    
N3    C135  S    
C68   C88   A    
C93   C118  S    
Cr10  O14   S    
O56   H56   S    
C70   C86   A    
C59   C75   A    
C95   C104  A    
N2    C134  S    
Cr5   O17   S    
C65   C85   A    
C90   O2    A    
C103  H19   S    
C15   H31   S    
C118  O14   A    
C111  O47   A    
C101  H17   S    
C14   O72   S    
C91   O3    A    
C71   C75   A    
C83   O63   S    
Cr3   O43   S    
Cr8   O20   S    
C48   O36   A    
Cr10  O38   S    
C83   H15   S    
C52   C56   A    
C26   C41   A    
Cr4   O20   S    
