data_mof_unit_6353.cif
_audit_creation_date              2012-10-26T19:20:38-0400
_audit_creation_method            fapswitch 2.2
_symmetry_space_group_name_H-M    P1
_symmetry_Int_Tables_number       1
_space_group_crystal_system       triclinic
_cell_length_a                    10.850767
_cell_length_b                    11.047276
_cell_length_c                    9.865114
_cell_angle_alpha                 111.29323
_cell_angle_beta                  100.653971
_cell_angle_gamma                 90.138894
_cell_volume                      1079.69522441

loop_
_atom_site_label
_atom_site_type_symbol
_atom_type_description
_atom_site_fract_x
_atom_site_fract_y
_atom_site_fract_z
_atom_type_partial_charge
C1    C     C_R   0.490844 0.253912 0.440409 0.561141
C2    C     C_R   0.737647 0.486824 0.499202 0.544527
C3    C     C_R   0.162458 0.652537 0.768737 -0.071483
C4    C     C_R   0.837542 0.347463 0.231263 -0.071487
C5    C     C_R   0.128990 0.675268 0.904921 -0.100201
C6    C     C_R   0.871010 0.324733 0.095079 -0.100206
C7    C     C_R   0.018327 0.615327 0.909761 -0.100505
C8    C     C_R   0.981673 0.384674 0.090239 -0.100513
C9    C     C_R   0.936389 0.541362 0.778125 -0.077856
C10   C     C_R   0.063611 0.458639 0.221875 -0.077862
C11   C     C_R   0.962935 0.527732 0.637852 0.006480
C12   C     C_R   0.509156 0.746088 0.559591 0.561141
C13   C     C_R   0.037065 0.472268 0.362148 0.006482
C14   C     C_R   0.084776 0.569271 0.634462 0.017075
C15   C     C_R   0.915224 0.430730 0.365538 0.017076
C16   C     C_R   0.873728 0.472682 0.501862 -0.041333
C17   C     C_R   0.126272 0.527319 0.498138 -0.041332
C18   C     C_2   0.657131 0.647072 0.952432 0.336990
C19   C     C_2   0.342858 0.352940 0.047571 0.336986
C20   C     C_2   0.485865 0.114501 0.406669 -0.126483
C21   C     C_2   0.514135 0.885499 0.593330 -0.126484
C22   C     C_2   0.502366 0.069588 0.516607 -0.154500
C23   C     C_2   0.497634 0.930412 0.483392 -0.154499
C24   C     C_2   0.506690 0.512394 0.082421 0.040203
C25   C     C_2   0.493315 0.487601 0.917578 0.040207
C26   C     C_R   0.262353 0.513177 0.500798 0.544527
Cu1   Cu    Cu3+1 0.521920 0.521810 0.644910 0.934348
Cu2   Cu    Cu3+1 0.478080 0.478190 0.355090 0.934343
H1    H     H_    0.004644 0.373028 0.984226 0.151578
H2    H     H_    0.519531 0.135723 0.632178 0.153998
H3    H     H_    0.531325 0.951860 0.708722 0.093402
H4    H     H_    0.468675 0.048140 0.291278 0.093402
H5    H     H_    0.426041 0.410854 0.838182 0.185214
H6    H     H_    0.573970 0.589136 0.161817 0.185218
H7    H     H_    0.671600 0.734741 0.930396 0.119206
H8    H     H_    0.328372 0.265278 0.069614 0.119209
H9    H     H_    0.995356 0.626973 0.015774 0.151580
H10   H     H_    0.248876 0.702014 0.769418 0.129122
H11   H     H_    0.751124 0.297986 0.230582 0.129124
H12   H     H_    0.190710 0.736479 0.006864 0.110362
H13   H     H_    0.809289 0.263522 0.993136 0.110361
H14   H     H_    0.856215 0.490451 0.789180 0.166060
H15   H     H_    0.143785 0.509551 0.210820 0.166059
H16   H     H_    0.480469 0.864277 0.367822 0.154000
N1    N     N_2   0.445130 0.445420 0.137360 -0.269629
N2    N     N_2   0.554870 0.554580 0.862640 -0.269627
O1    O     O_R   0.511700 0.332340 0.577400 -0.503655
O2    O     O_2   0.264419 0.375766 0.955608 -0.569852
O3    O     O_R   0.488300 0.667660 0.422600 -0.503652
O4    O     O_R   0.474680 0.295500 0.332650 -0.522933
O5    O     O_R   0.525320 0.704500 0.667350 -0.522936
O6    O     O_R   0.338170 0.518410 0.622370 -0.498356
O7    O     O_R   0.661830 0.481590 0.377630 -0.498361
O8    O     O_R   0.301150 0.481570 0.377630 -0.512914
O9    O     O_R   0.698850 0.518430 0.622370 -0.512908
O10   O     O_2   0.735579 0.624251 0.044390 -0.569852

loop_
_geom_bond_atom_site_label_1
_geom_bond_atom_site_label_2
_ccdc_geom_bond_type
Cu2   O7    S    
C19   N1    S    
C17   C26   S    
C26   O6    A    
C21   H3    S    
C11   C16   A    
C3    H10   S    
C4    H11   S    
C18   O10   D    
C2    O9    A    
C4    C15   A    
C21   C23   D    
C12   O3    A    
C7    H9    S    
C10   C13   A    
Cu1   O6    S    
C9    C11   A    
C14   C17   A    
C9    H14   S    
C3    C14   A    
C8    H1    S    
C18   N2    S    
C18   H7    S    
C8    C10   A    
Cu1   O5    S    
C20   C22   D    
C7    C9    A    
C19   H8    S    
C13   C15   A    
C20   H4    S    
C11   C14   A    
Cu1   O9    S    
Cu2   N1    S    
C24   N1    D    
C13   C17   A    
C12   C21   S    
C26   O8    A    
C12   O5    A    
C2    C16   S    
C24   C25   S    
Cu1   N2    S    
C4    C6    A    
C1    O4    A    
C5    H12   S    
Cu1   O1    S    
Cu1   Cu2   S    
C5    C7    A    
Cu2   O8    S    
C22   C23   S    
C1    O1    A    
C1    C20   S    
C6    C8    A    
C22   H2    S    
C10   H15   S    
C19   O2    D    
Cu2   O4    S    
C25   N2    D    
C6    H13   S    
C24   H6    S    
C23   H16   S    
C15   C16   A    
C2    O7    A    
C25   H5    S    
C3    C5    A    
Cu2   O3    S    
