data_mof_unit_31214.cif
_audit_creation_date              2012-12-10T18:48:39-0500
_audit_creation_method            fapswitch 2.2
_symmetry_space_group_name_H-M    P1
_symmetry_Int_Tables_number       1
_space_group_crystal_system       triclinic
_cell_length_a                    15.796999
_cell_length_b                    14.565255
_cell_length_c                    9.95524
_cell_angle_alpha                 85.777274
_cell_angle_beta                  90.763629
_cell_angle_gamma                 90.1123
_cell_volume                      2284.15238512

loop_
_atom_site_label
_atom_site_type_symbol
_atom_type_description
_atom_site_fract_x
_atom_site_fract_y
_atom_site_fract_z
_atom_type_partial_charge
C1    C     C_R   0.123547 0.382553 0.503803 0.895858
C2    C     C_R   0.994571 0.418365 0.937987 -0.061186
C3    C     C_R   0.997465 0.418846 0.081590 0.000745
C4    C     C_R   0.998683 0.580976 0.918377 -0.025584
C5    C     C_R   0.487666 0.081007 0.062153 -0.033257
C6    C     C_R   0.501040 0.918545 0.938293 -0.067750
C7    C     C_R   0.509287 0.919742 0.080974 0.011660
C8    C     C_R   0.491732 0.080699 0.918179 -0.034788
C9    C     C_R   0.754516 0.322209 0.380531 -0.070926
C10   C     C_R   0.242537 0.687211 0.615614 -0.085773
C11   C     C_R   0.226379 0.717147 0.372221 -0.115907
C12   C     C_R   0.877467 0.617931 0.495523 0.885123
C13   C     C_R   0.767335 0.291711 0.624416 -0.136343
C14   C     C_R   0.203844 0.251223 0.624473 -0.094321
C15   C     C_R   0.799735 0.752161 0.381792 -0.127985
C16   C     C_R   0.754856 0.681526 0.601568 -0.086986
C17   C     C_R   0.234841 0.301897 0.389219 -0.087665
C18   C     C_R   0.266429 0.801883 0.380084 -0.071238
C19   C     C_R   0.730096 0.205912 0.615654 -0.086224
C20   C     C_R   0.707786 0.241292 0.371171 -0.128592
C21   C     C_R   0.278097 0.774104 0.625820 -0.099885
C22   C     C_R   0.708892 0.760207 0.623326 -0.120021
C23   C     C_R   0.872851 0.389841 0.501546 0.920603
C24   C     C_R   0.272754 0.217595 0.372716 -0.128985
C25   C     C_R   0.249956 0.170813 0.609105 -0.082109
C26   C     C_R   0.751185 0.829295 0.402914 -0.122165
C27   C     C_R   0.203801 0.667563 0.493235 -0.169653
C28   C     C_R   0.793293 0.339276 0.504274 -0.167352
C29   C     C_R   0.805915 0.680919 0.486818 -0.145193
C30   C     C_R   0.192822 0.315420 0.510625 -0.181459
C31   C     C_R   0.692611 0.184540 0.491529 -0.157990
C32   C     C_R   0.300537 0.825395 0.505035 -0.205238
C33   C     C_R   0.293839 0.162167 0.489340 -0.156148
C34   C     C_R   0.126356 0.612330 0.498059 0.951739
C35   C     C_R   0.699085 0.827709 0.515310 -0.147745
C36   C     C_2   0.020777 0.672336 0.118457 0.918765
C37   C     C_2   0.976365 0.328591 0.879522 1.023596
C38   C     C_2   0.006114 0.330316 0.163817 1.035133
C39   C     C_2   0.976574 0.667392 0.837958 1.050717
C40   C     C_2   0.470890 0.170409 0.122525 0.920649
C41   C     C_2   0.483088 0.827705 0.883264 1.021071
C42   C     C_2   0.532250 0.833415 0.160784 1.026530
C43   C     C_2   0.485045 0.167544 0.832596 1.030361
C44   C     C_2   0.758708 0.393282 0.265008 1.023621
C45   C     C_R   0.623971 0.884734 0.504526 0.904168
C46   C     C_2   0.256555 0.613054 0.725749 0.992722
C47   C     C_2   0.222241 0.673725 0.240978 0.972689
C48   C     C_2   0.753477 0.341247 0.748120 1.104764
C49   C     C_2   0.176822 0.270595 0.761837 1.047766
C50   C     C_2   0.834451 0.744457 0.245301 1.044982
C51   C     C_2   0.743099 0.596134 0.690241 1.000714
C52   C     C_2   0.258129 0.380897 0.294587 1.053461
C53   C     C_2   0.257260 0.872193 0.265088 1.048161
C54   C     C_2   0.740390 0.135266 0.731656 0.993319
C55   C     C_2   0.681380 0.215651 0.234421 1.057945
C56   C     C_R   0.373379 0.111311 0.496630 0.900189
C57   C     C_2   0.261591 0.819241 0.752974 1.087912
C58   C     C_2   0.682496 0.777075 0.762204 1.069089
C59   C     C_2   0.273277 0.180887 0.236211 0.964655
C60   C     C_2   0.245189 0.090009 0.709024 1.020540
C61   C     C_2   0.762312 0.916912 0.318936 1.033606
C62   C     C_R   0.374339 0.886103 0.501909 0.911624
C63   C     C_R   0.623474 0.117357 0.497287 0.927181
C64   C     C_R   0.004600 0.581573 0.061647 -0.023307
H1    H     H_    0.062564 0.803546 0.088510 0.378650
H2    H     H_    0.301474 0.576790 0.912683 0.365476
H3    H     H_    0.215345 0.687996 0.039123 0.398741
H4    H     H_    0.669173 0.384231 0.880406 0.366205
H5    H     H_    0.178608 0.358763 0.909000 0.371400
H6    H     H_    0.892450 0.808144 0.084540 0.377336
H7    H     H_    0.752818 0.531890 0.876751 0.365295
H8    H     H_    0.349702 0.471043 0.234497 0.371638
H9    H     H_    0.180142 0.965049 0.165946 0.366488
H10   H     H_    0.750138 0.106140 0.932603 0.382784
H11   H     H_    0.628696 0.255305 0.053749 0.372772
H12   H     H_    0.918277 0.204465 0.898641 0.365715
H13   H     H_    0.177445 0.841781 0.897216 0.381964
H14   H     H_    0.684263 0.864213 0.910894 0.370449
H15   H     H_    0.254708 0.204566 0.035909 0.410903
H16   H     H_    0.265332 0.036091 0.899361 0.366482
H17   H     H_    0.814590 0.043718 0.307960 0.380779
H18   H     H_    0.080540 0.221736 0.220253 0.349673
H19   H     H_    0.013248 0.772749 0.709377 0.359194
H20   H     H_    0.419596 0.297826 0.103772 0.376184
H21   H     H_    0.436493 0.699022 0.916720 0.380382
H22   H     H_    0.618007 0.731712 0.195941 0.362945
H23   H     H_    0.543874 0.267782 0.721978 0.374307
H24   H     H_    0.736408 0.524659 0.197642 0.380124
N1    N     N_R   1.000000 0.500000 0.857200 -0.149654
N2    N     N_R   1.000000 0.500000 0.142800 -0.144211
N3    N     N_R   0.500000 0.000000 0.857200 -0.147812
N4    N     N_R   0.500000 1.000000 0.142800 -0.133648
O1    O     O_R   0.091610 0.408380 0.614620 -0.549161
O2    O     O_R   0.408390 0.091620 0.385380 -0.575425
O3    O     O_R   0.408390 0.091620 0.614620 -0.621094
O4    O     O_R   0.591610 0.908380 0.385380 -0.630557
O5    O     O_R   0.408390 0.908380 0.385380 -0.572198
O6    O     O_R   0.591610 0.091620 0.614620 -0.599259
O7    O     O_R   0.591610 0.091620 0.385380 -0.570044
O8    O     O_R   0.408390 0.908380 0.614620 -0.558924
O9    O     O_2   0.001690 0.685576 0.232664 -0.572565
O10   O     O_R   0.056821 0.745181 0.039441 -0.795361
O11   O     O_2   0.002541 0.312496 0.769946 -0.586135
O12   O     O_R   0.908390 0.591620 0.385380 -0.557643
O13   O     O_R   0.926241 0.261953 0.949043 -0.730985
O14   O     O_2   0.944505 0.293698 0.217697 -0.557179
O15   O     O_R   0.082838 0.283060 0.165165 -0.765415
O16   O     O_2   0.907127 0.702029 0.851729 -0.593419
O17   O     O_R   0.036293 0.713798 0.756622 -0.720411
O18   O     O_2   0.501051 0.186013 0.230944 -0.575189
O19   O     O_R   0.422750 0.239627 0.053985 -0.760413
O20   O     O_2   0.503022 0.812068 0.770073 -0.581285
O21   O     O_R   0.440735 0.758974 0.961908 -0.739850
O22   O     O_2   0.482242 0.795978 0.239589 -0.545033
O23   O     O_R   0.908390 0.591620 0.614620 -0.635793
O24   O     O_R   0.609466 0.791092 0.137593 -0.793207
O25   O     O_2   0.415671 0.201532 0.805419 -0.537042
O26   O     O_R   0.557780 0.212772 0.786889 -0.771210
O27   O     O_2   0.784587 0.373735 0.155428 -0.554525
O28   O     O_R   0.734366 0.483476 0.284071 -0.769143
O29   O     O_2   0.242724 0.532643 0.705171 -0.565188
O30   O     O_R   0.292723 0.633517 0.848641 -0.818602
O31   O     O_2   0.225465 0.590129 0.239756 -0.605947
O32   O     O_R   0.220385 0.726913 0.118795 -0.762467
O33   O     O_2   0.811535 0.376695 0.806860 -0.606723
O34   O     O_R   0.091610 0.408380 0.385380 -0.610685
O35   O     O_R   0.671598 0.348742 0.796674 -0.740590
O36   O     O_2   0.138077 0.212510 0.831652 -0.604778
O37   O     O_R   0.199625 0.353743 0.814052 -0.703117
O38   O     O_2   0.818158 0.676708 0.184197 -0.584932
O39   O     O_R   0.880318 0.817428 0.182322 -0.758977
O40   O     O_2   0.712082 0.528707 0.642544 -0.620055
O41   O     O_R   0.767263 0.592600 0.826123 -0.708789
O42   O     O_2   0.211098 0.406809 0.201032 -0.523347
O43   O     O_R   0.337485 0.421836 0.309082 -0.774522
O44   O     O_2   0.310703 0.879908 0.177199 -0.529734
O45   O     O_R   0.908390 0.408380 0.385380 -0.606703
O46   O     O_R   0.183407 0.924925 0.253482 -0.769285
O47   O     O_2   0.750208 0.054396 0.710024 -0.553683
O48   O     O_R   0.742125 0.160722 0.864387 -0.763622
O49   O     O_2   0.700040 0.140293 0.197247 -0.603557
O50   O     O_R   0.639015 0.279375 0.145548 -0.766904
O51   O     O_2   0.313087 0.869554 0.802477 -0.593256
O52   O     O_R   0.183853 0.804373 0.816014 -0.724152
O53   O     O_2   0.645339 0.717729 0.831987 -0.578965
O54   O     O_R   0.703542 0.860706 0.814762 -0.714833
O55   O     O_2   0.281507 0.098435 0.224963 -0.608853
O56   O     O_R   0.091610 0.591620 0.614620 -0.574679
O57   O     O_R   0.256275 0.238694 0.120844 -0.738078
O58   O     O_2   0.217821 0.017266 0.672566 -0.629314
O59   O     O_R   0.272127 0.096156 0.842306 -0.749437
O60   O     O_2   0.737682 0.924396 0.201678 -0.558050
O61   O     O_R   0.802571 0.990429 0.376109 -0.764185
O62   O     O_R   0.091610 0.591620 0.385380 -0.581292
O63   O     O_R   0.908390 0.408380 0.614620 -0.567769
O64   O     O_R   0.591610 0.908380 0.614620 -0.558388
Zn1   Zn    Zn3+2 1.000000 0.500000 0.653120 1.073934
Zn2   Zn    Zn3+2 1.000000 0.500000 0.346880 1.077465
Zn3   Zn    Zn3+2 0.500000 0.000000 0.653120 1.073564
Zn4   Zn    Zn3+2 0.500000 0.000000 0.346880 1.086517

loop_
_geom_bond_atom_site_label_1
_geom_bond_atom_site_label_2
_ccdc_geom_bond_type
C10   C27   A    
C56   O3    A    
C11   C18   A    
C38   O14   D    
H12   O13   S    
C55   O49   D    
C23   O63   A    
C12   C29   S    
O63   Zn1   S    
C52   O42   D    
C11   C47   S    
C2    C37   S    
C8    C43   S    
C64   N2    A    
C19   C31   A    
H3    O32   S    
C58   O53   D    
C56   O2    A    
C22   C35   A    
O45   Zn2   S    
O23   Zn1   S    
C3    N2    A    
O3    Zn3   S    
C36   O10   S    
C26   C61   S    
C12   O12   A    
C63   O6    A    
C7    C42   S    
C14   C49   S    
H9    O46   S    
C44   O28   S    
C6    N3    A    
H17   O61   S    
H22   O24   S    
C15   C50   S    
C38   O15   S    
H6    O39   S    
C63   O7    A    
C50   O38   D    
C18   C53   S    
C48   O33   D    
C34   O56   A    
C42   O22   D    
C54   O48   S    
C3    C38   S    
C9    C44   S    
C6    C41   S    
C10   C46   S    
O2    Zn4   S    
H2    O30   S    
C46   O29   D    
C25   C60   S    
H24   O28   S    
N3    Zn3   S    
H15   O57   S    
C12   O23   A    
C33   C56   S    
C59   O57   S    
C10   C21   A    
C55   O50   S    
O7    Zn4   S    
C17   C30   A    
C53   O44   D    
H1    O10   S    
C14   C30   A    
C20   C55   S    
C17   C52   S    
C15   C29   A    
C40   O19   S    
C34   O62   A    
C27   C34   S    
C39   O16   D    
C21   C32   A    
H20   O19   S    
C57   O51   D    
C53   O46   S    
C17   C24   A    
O5    Zn4   S    
C31   C63   S    
C1    O34   A    
H23   O26   S    
O12   Zn2   S    
C37   O11   D    
C13   C19   A    
H8    O43   S    
C40   O18   D    
C44   O27   D    
C16   C29   A    
H18   O15   S    
H10   O48   S    
C41   O20   D    
C1    O1    A    
C36   O9    D    
C60   O59   S    
N2    Zn2   S    
C2    N1    A    
C37   O13   S    
H11   O50   S    
C13   C48   S    
C62   O5    A    
O34   Zn2   S    
C47   O31   D    
C54   O47   D    
C4    C39   S    
C11   C27   A    
H19   O17   S    
C8    N3    A    
N1    Zn1   S    
C13   C28   A    
C45   O64   A    
C60   O58   D    
C23   C28   S    
O1    Zn1   S    
H4    O35   S    
C22   C58   S    
C43   O25   D    
C62   O8    A    
C9    C20   A    
C19   C54   S    
C42   O24   S    
O4    Zn4   S    
C18   C32   A    
C35   C45   S    
C4    N1    A    
H16   O59   S    
C49   O36   D    
C16   C51   S    
C16   C22   A    
C57   O52   S    
C23   O45   A    
O64   Zn3   S    
C41   O21   S    
C15   C26   A    
C61   O61   S    
H7    O41   S    
C5    C8    A    
C51   O40   D    
C58   O54   S    
O62   Zn2   S    
C6    C7    A    
C21   C57   S    
C4    C64   A    
C24   C33   A    
N4    Zn4   S    
H21   O21   S    
C2    C3    A    
H13   O52   S    
C32   C62   S    
C48   O35   S    
C51   O41   S    
O8    Zn3   S    
C47   O32   S    
C49   O37   S    
C24   C59   S    
C7    N4    A    
C1    C30   S    
O56   Zn1   S    
C14   C25   A    
C61   O60   D    
C5    N4    A    
C50   O39   S    
H14   O54   S    
C43   O26   S    
C26   C35   A    
C39   O17   S    
O6    Zn3   S    
H5    O37   S    
C5    C40   S    
C52   O43   S    
C46   O30   S    
C36   C64   S    
C45   O4    A    
C9    C28   A    
C25   C33   A    
C20   C31   A    
C59   O55   D    
