data_mof_unit_45311.cif
_audit_creation_date              2012-12-10T17:18:56-0500
_audit_creation_method            fapswitch 2.2
_symmetry_space_group_name_H-M    P1
_symmetry_Int_Tables_number       1
_space_group_crystal_system       triclinic
_cell_length_a                    9.628869
_cell_length_b                    10.858232
_cell_length_c                    13.449336
_cell_angle_alpha                 92.379135
_cell_angle_beta                  73.038642
_cell_angle_gamma                 90.082331
_cell_volume                      1343.75282892

loop_
_atom_site_label
_atom_site_type_symbol
_atom_type_description
_atom_site_fract_x
_atom_site_fract_y
_atom_site_fract_z
_atom_type_partial_charge
C1    C     C_R   0.504268 0.736427 0.489323 0.823138
C2    C     C_R   0.446798 0.438819 0.973108 0.079142
C3    C     C_R   0.491816 0.438231 0.862832 0.092356
C4    C     C_R   0.552655 0.456946 0.027172 0.073600
C5    C     C_R   0.701398 0.464152 0.970217 0.177823
C6    C     C_R   0.744821 0.439728 0.863450 -0.264821
C7    C     C_R   0.641776 0.421437 0.811225 -0.202509
C8    C     C_R   0.515198 0.473153 0.135705 -0.263439
C9    C     C_R   0.766985 0.505196 0.128722 -0.206995
C10   C     C_R   0.384962 0.452336 0.809054 -0.108689
C11   C     C_R   0.281721 0.879327 0.425389 -0.135149
C12   C     C_R   0.424021 0.485566 0.698325 0.796070
C13   C     C_R   0.152022 0.939922 0.433397 -0.166377
C14   C     C_R   0.119956 0.052268 0.488638 -0.142546
C15   C     C_R   0.226238 0.111353 0.523897 -0.143591
C16   C     C_R   0.367930 0.059690 0.500706 0.091231
C17   C     C_R   0.385903 0.934567 0.467502 0.050197
C18   C     C_R   0.509775 0.870169 0.473923 -0.176509
C19   C     C_R   0.634031 0.936991 0.476649 0.257322
C20   C     C_R   0.624803 0.064427 0.491810 -0.284282
C21   C     C_R   0.493017 0.127157 0.505449 -0.150011
C22   C     C_R   0.912181 0.337279 0.361328 -0.161703
C23   C     C_R   0.497013 0.262316 0.504740 0.788631
C24   C     C_R   0.011372 0.257233 0.293657 -0.229624
C25   C     C_R   0.154396 0.256662 0.293849 -0.214914
C26   C     C_R   0.199203 0.336129 0.361685 -0.155533
C27   C     C_R   0.102087 0.419594 0.432048 0.196602
C28   C     C_R   0.952764 0.419882 0.431954 0.198329
C29   C     C_R   0.900056 0.576560 0.564527 -0.060493
C30   C     C_R   0.047744 0.576557 0.564479 -0.080410
C31   C     C_R   0.577606 0.499881 0.300413 0.765002
C32   C     C_R   0.805953 0.492567 0.020828 -0.205602
C33   C     C_R   0.621490 0.493433 0.186649 -0.041733
C34   C     C_R   0.238277 0.435699 0.863331 -0.198521
C35   C     C_R   0.197428 0.412786 0.968885 -0.154269
C36   C     C_R   0.298454 0.419667 0.024321 -0.187550
Cu1   Cu    Cu3+1 0.359340 0.500010 0.500010 0.916851
Cu2   Cu    Cu3+1 0.640660 0.499990 0.499990 0.929828
H1    H     H_    0.850248 0.524215 0.166576 0.158309
H2    H     H_    0.302028 0.791760 0.382045 0.155905
H3    H     H_    0.076440 0.897868 0.398060 0.145591
H4    H     H_    0.014742 0.095698 0.501192 0.135169
H5    H     H_    0.194299 0.196057 0.569686 0.162616
H6    H     H_    0.722786 0.114426 0.490493 0.165028
H7    H     H_    0.823704 0.639432 0.617541 0.153536
H8    H     H_    0.805283 0.330289 0.354816 0.206069
H9    H     H_    0.976672 0.195017 0.240731 0.153508
H10   H     H_    0.231542 0.193859 0.241182 0.158670
H11   H     H_    0.311029 0.327241 0.355782 0.206133
H12   H     H_    0.859032 0.433753 0.820098 0.141375
H13   H     H_    0.081213 0.639468 0.617409 0.147632
H14   H     H_    0.917436 0.505981 0.976170 0.131696
H15   H     H_    0.403531 0.471486 0.182272 0.156113
H16   H     H_    0.155120 0.438300 0.823861 0.146606
H17   H     H_    0.257654 0.405349 0.106475 0.139716
H18   H     H_    0.086249 0.391857 0.009432 0.141705
H19   H     H_    0.683426 0.389470 0.731112 0.188382
N1    N     N_R   0.852480 0.498790 0.499000 -0.203902
N2    N     N_R   0.148360 0.498710 0.498970 -0.204356
O1    O     O_R   0.381190 0.680360 0.500010 -0.586960
O2    O     O_R   0.618760 0.680340 0.500000 -0.529521
O3    O     O_R   0.323240 0.499990 0.650990 -0.578961
O4    O     O_R   0.560820 0.499960 0.650980 -0.589951
O5    O     O_R   0.381240 0.319660 0.500000 -0.612867
O6    O     O_R   0.618810 0.319640 0.499990 -0.606910
O7    O     O_R   0.439180 0.500040 0.349020 -0.607577
O8    O     O_R   0.676760 0.500010 0.349010 -0.602367
N3    N     N_2   0.770873 0.877035 0.457727 -0.405912
H20   H     H_    0.841641 0.922081 0.490795 0.235067
C37   C     C_3   0.835858 0.835134 0.350315 -0.650307
H21   H     H_    0.922979 0.766546 0.345992 0.221119
H22   H     H_    0.882201 0.914540 0.302399 0.203180
H23   H     H_    0.755009 0.788898 0.317412 0.225610

loop_
_geom_bond_atom_site_label_1
_geom_bond_atom_site_label_2
_ccdc_geom_bond_type
C31   O7    A    
C30   H13   S    
C16   C21   A    
C35   C36   A    
C4    C8    A    
C13   H3    S    
Cu1   O3    S    
C31   O8    A    
C26   C27   A    
Cu1   Cu2   S    
C34   C35   A    
C3    C7    A    
C5    C6    A    
C15   C16   A    
C9    H1    S    
C18   C19   A    
C32   H14   S    
C9    C32   A    
Cu2   N1    S    
C19   C20   A    
C16   C17   A    
C31   C33   S    
C24   C25   A    
C37   H21   S    
C14   H4    S    
Cu2   O2    S    
C22   C28   A    
C13   C14   A    
C30   N2    A    
C9    C33   A    
C20   H6    S    
Cu2   O8    S    
C26   H11   S    
C12   O4    A    
N3    H20   S    
C25   C26   A    
C5    C32   A    
C6    H12   S    
C29   H7    S    
C2    C4    A    
C29   C30   A    
C12   O3    A    
Cu2   O6    S    
Cu1   O7    S    
C37   H23   S    
C17   C18   A    
C1    C18   S    
C19   N3    S    
C10   C34   A    
C29   N1    A    
C25   H10   S    
Cu1   N2    S    
C10   C12   S    
C23   O5    A    
C22   H8    S    
C34   H16   S    
C21   C23   S    
C22   C24   A    
C1    O1    A    
Cu1   O5    S    
Cu2   O4    S    
C2    C36   A    
C11   C17   A    
C35   H18   S    
C24   H9    S    
C4    C5    A    
C1    O2    A    
C8    H15   S    
C6    C7    A    
C28   N1    A    
C23   O6    A    
C2    C3    A    
C15   H5    S    
C36   H17   S    
C27   N2    A    
C11   C13   A    
C8    C33   A    
C11   H2    S    
Cu1   O1    S    
C20   C21   A    
N3    C37   S    
C27   C28   A    
C3    C10   A    
C14   C15   A    
C37   H22   S    
C7    H19   S    
