data_mof_unit_20811.cif
_audit_creation_date              2012-12-11T14:48:02-0500
_audit_creation_method            fapswitch 2.2
_symmetry_space_group_name_H-M    P1
_symmetry_Int_Tables_number       1
_space_group_crystal_system       triclinic
_cell_length_a                    11.556054
_cell_length_b                    11.538582
_cell_length_c                    19.457479
_cell_angle_alpha                 90.67758
_cell_angle_beta                  90.471543
_cell_angle_gamma                 59.609296
_cell_volume                      2237.81432131

loop_
_atom_site_label
_atom_site_type_symbol
_atom_type_description
_atom_site_fract_x
_atom_site_fract_y
_atom_site_fract_z
_atom_type_partial_charge
C1    C     C_R   0.642274 0.119148 0.598242 0.534952
C2    C     C_1   0.642960 0.702631 0.667694 0.011841
C3    C     C_1   0.126826 0.198068 0.859397 0.006448
C4    C     C_1   0.170669 0.170833 0.727495 -0.027077
C5    C     C_1   0.149847 0.181953 0.798871 -0.028843
C6    C     C_1   0.194379 0.161915 0.667062 0.012042
C7    C     C_1   0.715423 0.220717 0.852034 0.002501
C8    C     C_1   0.680124 0.186470 0.722358 -0.024719
C9    C     C_1   0.698072 0.207809 0.792041 -0.027752
C10   C     C_1   0.664256 0.160678 0.664198 0.009139
C11   C     C_R   0.548584 0.680311 0.293453 0.151851
C12   C     C_R   0.613393 0.745051 0.598306 0.542553
C13   C     C_R   0.542329 0.700855 0.224152 -0.189248
C14   C     C_R   0.651769 0.690249 0.189148 -0.047677
C15   C     C_R   0.753028 0.699382 0.224756 0.220124
C16   C     C_R   0.760846 0.684263 0.296931 0.161775
C17   C     C_R   0.652340 0.683212 0.331976 -0.050451
C18   C     C_R   0.077753 0.285372 0.315185 -0.072572
C19   C     C_R   0.048960 0.310879 0.245869 -0.059853
C20   C     C_R   0.119721 0.208963 0.197179 0.021199
C21   C     C_R   0.209458 0.078142 0.218227 -0.136601
C22   C     C_R   0.238107 0.052929 0.287696 -0.073199
C23   C     C_R   0.240505 0.145833 0.597942 0.533528
C24   C     C_R   0.176785 0.158558 0.335986 0.047537
C25   C     C_R   0.805236 0.112802 0.315727 -0.123372
C26   C     C_R   0.832105 0.141893 0.250157 -0.114822
C27   C     C_R   0.726108 0.230465 0.207511 -0.042802
C28   C     C_R   0.596770 0.297671 0.232982 -0.067945
C29   C     C_R   0.566808 0.258908 0.293999 0.276658
C30   C     C_R   0.671874 0.165686 0.337621 0.017158
C31   C     C_R   0.082125 0.230801 0.928760 0.540733
C32   C     C_R   0.683132 0.605227 0.929717 0.544036
C33   C     C_R   0.741241 0.232371 0.923058 0.557701
C34   C     C_R   0.644449 0.113503 0.401407 0.570793
C35   C     C_R   0.080448 0.237510 0.126102 0.524416
C36   C     C_R   0.679575 0.619225 0.123371 0.574496
C37   C     C_R   0.745339 0.239839 0.133920 0.555180
C38   C     C_R   0.618470 0.736198 0.402338 0.585372
C39   C     C_R   0.238600 0.141570 0.403187 0.569564
C40   C     C_1   0.669055 0.647319 0.860313 0.009211
C41   C     C_1   0.655876 0.682836 0.728319 -0.027798
C42   C     C_1   0.663010 0.666891 0.799719 -0.028921
Cr1   Cr    Cr6+3 0.404720 0.198220 0.499960 1.143361
Cr2   Cr    Cr6+3 0.698290 0.897110 0.500380 1.136417
Cr3   Cr    Cr6+3 0.396970 0.904720 0.499610 1.110202
Cr4   Cr    Cr6+3 0.926180 0.152240 0.028110 1.036174
Cr5   Cr    Cr6+3 0.921340 0.452070 0.027460 1.099593
Cr6   Cr    Cr6+3 0.626260 0.447120 0.028700 1.049200
H1    H     H_    0.934451 0.090953 0.231632 0.154335
H2    H     H_    0.515613 0.366383 0.200168 0.211393
H3    H     H_    0.459198 0.704923 0.195971 0.180835
H4    H     H_    0.027053 0.364467 0.352553 0.194549
H5    H     H_    0.971147 0.409851 0.230056 0.167814
H6    H     H_    0.259998 0.997369 0.181025 0.125289
H7    H     H_    0.317440 0.954539 0.302804 0.173958
H8    H     H_    0.888194 0.041902 0.347232 0.179174
O1    O     O_R   0.267740 0.231990 0.575440 -0.502626
O2    O     O_R   0.685970 0.784630 0.430010 -0.434276
O3    O     O_R   0.502530 0.766960 0.423990 -0.435456
O4    O     O_R   0.288330 0.026310 0.429250 -0.500852
O5    O     O_3   0.499990 0.000020 0.499980 -0.297216
O6    O     O_R   0.821500 0.119550 0.952820 -0.489037
O7    O     O_R   0.037130 0.162750 0.957360 -0.511996
O8    O     O_R   0.056440 0.344950 0.951330 -0.495313
O9    O     O_R   0.797900 0.560570 0.957460 -0.486802
O10   O     O_R   0.596140 0.579600 0.952720 -0.510876
O11   O     O_R   0.639070 0.321380 0.958660 -0.474795
O12   O     O_R   0.527280 0.186680 0.570530 -0.498142
O13   O     O_R   0.821240 0.124490 0.104360 -0.469639
O14   O     O_R   0.036900 0.167320 0.097830 -0.529038
O15   O     O_R   0.056190 0.349890 0.102870 -0.461304
O16   O     O_R   0.797670 0.565150 0.097930 -0.438969
O17   O     O_R   0.595880 0.584540 0.104260 -0.533847
O18   O     O_R   0.638830 0.325960 0.099140 -0.490207
O19   O     O_3   0.824590 0.350480 0.028090 -0.320676
O20   O     O_R   0.728090 0.003480 0.576380 -0.505314
O21   O     O_R   0.682970 0.789220 0.570490 -0.491530
O22   O     O_R   0.499290 0.771920 0.575530 -0.496653
O23   O     O_R   0.285330 0.030900 0.569730 -0.501127
O24   O     O_R   0.270980 0.227040 0.423900 -0.412928
O25   O     O_R   0.530280 0.182090 0.430050 -0.435752
O26   O     O_R   0.731330 0.998530 0.424830 -0.467631
S1    S     S_3+6 0.429684 0.639321 0.326748 0.028396
O27   O     O_2   0.496242 0.531951 0.380136 -0.232314
O28   O     O_2   0.311785 0.760282 0.358793 -0.272888
O29   O     O_3   0.370386 0.583294 0.263332 -0.501927
H9    H     H_    0.287464 0.663344 0.246789 0.361848
S2    S     S_3+6 0.401405 0.293326 0.299087 0.070961
O30   O     O_2   0.412593 0.159428 0.308001 -0.347275
O31   O     O_2   0.332112 0.385069 0.359130 -0.156749
O32   O     O_3   0.312159 0.364692 0.227303 -0.472218
H10   H     H_    0.338961 0.289647 0.194152 0.347068
S3    S     S_3+6 0.854048 0.747993 0.178262 0.072318
O33   O     O_2   0.880704 0.842061 0.220268 -0.240590
O34   O     O_2   0.985146 0.625981 0.158876 -0.223751
O35   O     O_3   0.772895 0.827498 0.106088 -0.521803
H11   H     H_    0.834810 0.849704 0.082546 0.371959
S4    S     S_3+6 0.909992 0.655440 0.341227 0.058833
O36   O     O_2   0.900930 0.787374 0.356570 -0.227731
O37   O     O_2   0.927495 0.583335 0.407764 -0.301120
O38   O     O_3   0.047208 0.563097 0.293008 -0.443796
H12   H     H_    0.108010 0.597954 0.303721 0.423332

loop_
_geom_bond_atom_site_label_1
_geom_bond_atom_site_label_2
_ccdc_geom_bond_type
C37   O18   A    
Cr3   O4    S    
O38   H12   S    
C37   O13   A    
C41   C42   S    
C19   C20   A    
C25   H8    S    
C2    C12   S    
C1    O12   A    
C18   H4    S    
Cr1   O5    S    
C26   C27   A    
S3    O33   D    
Cr4   O6    S    
C18   C24   A    
Cr2   O21   S    
C33   O6    A    
Cr2   O26   S    
C14   C36   S    
C21   H6    S    
C6    C23   S    
C2    C41   T    
C15   C16   A    
C24   C39   S    
C7    C9    T    
C18   C19   A    
Cr2   O20   S    
C29   S2    S    
C38   O2    A    
C20   C35   S    
C28   H2    S    
C11   C17   A    
C35   O14   A    
Cr2   O2    S    
C8    C9    S    
Cr4   O13   S    
C12   O22   A    
Cr3   O22   S    
C34   O25   A    
C19   H5    S    
C40   C42   T    
C35   O15   A    
S3    O34   D    
C13   H3    S    
C21   C22   A    
C12   O21   A    
C7    C33   S    
Cr6   O19   S    
C31   O8    A    
Cr4   O19   S    
C30   C34   S    
C31   O7    A    
C4    C6    T    
C26   H1    S    
O32   H10   S    
O29   H9    S    
Cr1   O12   S    
C11   S1    S    
Cr1   O24   S    
C29   C30   A    
Cr6   O18   S    
S1    O27   D    
S2    O32   S    
O35   H11   S    
Cr3   O23   S    
S2    O30   D    
C3    C31   S    
Cr5   O15   S    
C8    C10   T    
S1    O28   D    
S2    O31   D    
S3    O35   S    
S4    O37   D    
Cr1   O25   S    
C22   C24   A    
Cr5   O8    S    
C33   O11   A    
C32   O10   A    
C25   C30   A    
C23   O1    A    
C28   C29   A    
C1    O20   A    
Cr6   O17   S    
C1    C10   S    
C4    C5    S    
C3    C5    T    
C15   S3    S    
C22   H7    S    
Cr2   O5    S    
S4    O38   S    
Cr4   O7    S    
Cr6   O10   S    
C39   O24   A    
C25   C26   A    
Cr5   O19   S    
C11   C13   A    
C16   S4    S    
C16   C17   A    
C27   C37   S    
C39   O4    A    
Cr3   O5    S    
C17   C38   S    
C32   C40   S    
Cr6   O11   S    
Cr5   O16   S    
Cr4   O14   S    
C36   O17   A    
Cr1   O1    S    
C38   O3    A    
S1    O29   S    
C20   C21   A    
Cr3   O3    S    
S4    O36   D    
C27   C28   A    
C14   C15   A    
C34   O26   A    
C23   O23   A    
C13   C14   A    
Cr5   O9    S    
C36   O16   A    
C32   O9    A    
