data_mof_unit_35384.cif
_audit_creation_date              2012-12-10T16:41:53-0500
_audit_creation_method            fapswitch 2.2
_symmetry_space_group_name_H-M    P1
_symmetry_Int_Tables_number       1
_space_group_crystal_system       triclinic
_cell_length_a                    10.968237
_cell_length_b                    8.806796
_cell_length_c                    7.552436
_cell_angle_alpha                 104.371182
_cell_angle_beta                  94.929848
_cell_angle_gamma                 95.069429
_cell_volume                      699.522765783

loop_
_atom_site_label
_atom_site_type_symbol
_atom_type_description
_atom_site_fract_x
_atom_site_fract_y
_atom_site_fract_z
_atom_type_partial_charge
C1    C     C_R   0.497348 0.200054 0.453969 0.854144
C2    C     C_2   0.505561 0.969071 0.582912 -0.206010
C3    C     C_R   0.264005 0.493244 0.495779 0.819504
C4    C     C_R   0.503221 0.800410 0.548916 0.828406
C5    C     C_R   0.732004 0.479548 0.494396 0.830014
C6    C     C_2   0.911186 0.397669 0.321054 -0.054558
C7    C     C_2   0.855668 0.422508 0.480861 -0.258907
C8    C     C_2   0.050744 0.407643 0.316568 -0.021843
C9    C     C_2   0.127746 0.479907 0.477798 -0.305404
C10   C     C_2   0.500584 0.033315 0.436229 -0.361045
Cu1   Cu    Cu3+1 0.513740 0.517380 0.684380 1.028238
Cu2   Cu    Cu3+1 0.486260 0.482620 0.315620 1.049114
H1    H     H_    0.089864 0.535588 0.602752 0.131157
H2    H     H_    0.495845 0.959821 0.296824 0.189753
H3    H     H_    0.413875 0.361518 0.947578 0.227037
N1    N     N_2   0.465540 0.456420 0.038510 -0.207486
N2    N     N_2   0.534460 0.543580 0.961490 -0.181276
O1    O     O_R   0.508930 0.286130 0.619780 -0.561474
O2    O     O_R   0.485720 0.256780 0.308360 -0.583728
O3    O     O_R   0.333540 0.514670 0.655670 -0.609007
O4    O     O_R   0.310330 0.485320 0.344250 -0.532435
O5    O     O_R   0.514280 0.743220 0.691640 -0.558356
O6    O     O_R   0.491070 0.713870 0.380220 -0.579543
O7    O     O_R   0.689670 0.514680 0.655750 -0.596071
O8    O     O_R   0.666460 0.485330 0.344330 -0.508011
C11   C     C_2   0.836787 0.377475 0.140813 0.927589
O9    O     O_2   0.809313 0.242298 0.037819 -0.470396
O10   O     O_R   0.812645 0.512708 0.081456 -0.719697
H4    H     H_    0.812675 0.496415 0.940986 0.320918
C12   C     C_2   0.895512 0.347137 0.629480 0.281651
H5    H     H_    0.983245 0.374557 0.714366 0.261689
O11   O     O_2   0.974900 0.256713 0.621158 -0.566502
C13   C     C_2   0.096392 0.362746 0.123244 0.825898
O12   O     O_2   0.044276 0.247429 0.998066 -0.530991
O13   O     O_R   0.182533 0.470018 0.073270 -0.724080
H6    H     H_    0.185104 0.447419 0.932701 0.320447
C14   C     C_2   0.510254 0.054125 0.782850 0.499201
H7    H     H_    0.450063 0.007042 0.870622 0.079401
O14   O     O_2   0.588655 0.165541 0.855041 -0.458210
C15   C     C_2   0.594751 0.695842 0.070130 1.107665
O15   O     O_2   0.585083 0.816706 0.015041 -0.624218
O16   O     O_R   0.678032 0.710285 0.226389 -0.688081
H8    H     H_    0.725186 0.821997 0.273850 0.325503

loop_
_geom_bond_atom_site_label_1
_geom_bond_atom_site_label_2
_ccdc_geom_bond_type
C2    C4    S    
Cu1   Cu2   S    
Cu1   O1    S    
C14   H7    S    
C3    C9    S    
C4    O5    A    
Cu1   O5    S    
C11   O10   S    
O13   H6    S    
C2    C14   S    
Cu2   O8    S    
C15   O16   S    
C13   O12   D    
C11   O9    D    
C3    O3    A    
C14   O14   D    
C7    C12   S    
C12   O11   D    
Cu2   O6    S    
C1    O1    A    
C6    C11   S    
C5    O7    A    
C5    O8    A    
Cu2   O2    S    
O10   H4    S    
C13   O13   S    
C6    C7    D    
C8    C13   S    
C12   H5    S    
Cu1   O3    S    
C1    O2    A    
C3    O4    A    
O16   H8    S    
H3    N1    S    
C2    C10   D    
Cu1   O7    S    
C10   H2    S    
C5    C7    S    
C4    O6    A    
C9    H1    S    
C15   O15   D    
C6    C8    S    
Cu2   O4    S    
Cu1   N2    S    
C1    C10   S    
Cu2   N1    S    
N1    N2    D    
C8    C9    D    
N2    C15   S    
