data_mof_unit_61504.cif
_audit_creation_date              2012-12-10T17:20:29-0500
_audit_creation_method            fapswitch 2.2
_symmetry_space_group_name_H-M    P1
_symmetry_Int_Tables_number       1
_space_group_crystal_system       triclinic
_cell_length_a                    18.736353
_cell_length_b                    18.728546
_cell_length_c                    18.759328
_cell_angle_alpha                 109.276037
_cell_angle_beta                  109.84402
_cell_angle_gamma                 109.234946
_cell_volume                      5070.92270143

loop_
_atom_site_label
_atom_site_type_symbol
_atom_type_description
_atom_site_fract_x
_atom_site_fract_y
_atom_site_fract_z
_atom_type_partial_charge
C1    C     C_R   0.618910 0.618937 0.499990 0.779711
C2    C     C_3   0.174483 0.428563 0.216987 -0.161358
C3    C     C_3   0.231801 0.501065 0.313970 -0.160083
C4    C     C_3   0.312294 0.499210 0.311855 0.017599
C5    C     C_R   0.757612 0.757594 0.579331 -0.174177
C6    C     C_R   0.822505 0.820893 0.579310 -0.174754
C7    C     C_R   0.814149 0.814086 0.499940 -0.011787
C8    C     C_R   0.741522 0.743110 0.420588 -0.174043
C9    C     C_R   0.678146 0.678283 0.420603 -0.179203
C10   C     C_R   0.685781 0.685853 0.499977 -0.010646
C11   C     C_R   0.692867 0.523715 0.769748 -0.212488
C12   C     C_R   0.380374 0.499730 0.380287 0.781513
C13   C     C_R   0.756804 0.523480 0.834910 -0.019604
C14   C     C_R   0.816905 0.501720 0.818585 -0.042131
C15   C     C_R   0.812463 0.480321 0.737793 -0.200933
C16   C     C_R   0.747368 0.478770 0.672439 -0.170425
C17   C     C_R   0.687579 0.500754 0.688277 -0.035044
C18   C     C_R   0.242224 0.321765 0.499862 -0.179908
C19   C     C_R   0.177380 0.256889 0.498356 -0.178614
C20   C     C_R   0.185809 0.185770 0.499903 -0.009034
C21   C     C_R   0.258425 0.178869 0.501418 -0.178410
C22   C     C_R   0.321759 0.242227 0.499902 -0.176721
C23   C     C_R   0.381027 0.381057 0.499951 0.779358
C24   C     C_R   0.314099 0.314114 0.499899 -0.008150
C25   C     C_R   0.002585 0.618814 0.121209 0.845103
C26   C     C_R   0.123393 0.499668 0.123028 0.796318
C27   C     C_R   0.004548 0.381150 0.885624 0.841545
C28   C     C_R   0.884234 0.500453 0.884563 0.796362
C29   C     C_R   0.000702 0.880868 0.381638 0.809113
C30   C     C_R   0.881073 0.880988 0.499914 0.781859
C31   C     C_R   0.999611 0.119207 0.618295 0.808758
C32   C     C_R   0.118919 0.118844 0.499924 0.776428
C33   C     C_R   0.985720 0.748960 0.171197 0.507385
C34   C     C_R   0.619971 0.500204 0.620123 0.791320
C35   C     C_R   0.982704 0.811385 0.234696 -0.258539
C36   C     C_R   0.001006 0.813950 0.314682 -0.086510
C37   C     C_R   0.019279 0.752133 0.330302 -0.170543
C38   C     C_R   0.017973 0.687280 0.265852 -0.267396
C39   C     C_R   0.001503 0.685742 0.186713 -0.093437
C40   C     C_R   0.081438 0.311955 0.832413 0.494270
C41   C     C_R   0.078773 0.246087 0.766759 -0.260322
C42   C     C_R   0.001189 0.187239 0.686100 -0.087109
C43   C     C_R   0.925223 0.192587 0.671673 -0.172917
C44   C     C_R   0.926348 0.255257 0.738123 -0.267222
C45   C     C_3   0.329078 0.569849 0.285650 -0.160446
C46   C     C_R   0.004058 0.314636 0.818164 -0.098013
C47   C     C_3   0.247518 0.571755 0.286667 -0.155719
C48   C     C_3   0.191224 0.499229 0.190719 0.023521
C49   C     C_3   0.271642 0.497260 0.188499 -0.136096
C50   C     C_3   0.255968 0.426654 0.215794 -0.151630
Cu1   Cu    Cu3+1 0.500500 0.438200 0.438680 0.944410
Cu2   Cu    Cu3+1 0.499500 0.561800 0.561320 0.947395
Cu3   Cu    Cu3+1 0.942090 0.438180 0.003770 0.966637
Cu4   Cu    Cu3+1 0.065710 0.561750 0.003750 0.956894
Cu5   Cu    Cu3+1 0.062280 0.999890 0.562170 0.946713
Cu6   Cu    Cu3+1 0.937720 0.999930 0.437650 0.947570
H1    H     H_    0.242622 0.631130 0.314290 0.124978
H2    H     H_    0.622545 0.623120 0.358960 0.138239
H3    H     H_    0.646590 0.540706 0.782108 0.151423
H4    H     H_    0.858630 0.463545 0.725005 0.134267
H5    H     H_    0.744423 0.461539 0.610012 0.149851
H6    H     H_    0.235688 0.377029 0.499486 0.135051
H7    H     H_    0.121537 0.262828 0.497512 0.138302
H8    H     H_    0.265203 0.123844 0.502256 0.139195
H9    H     H_    0.377363 0.236049 0.500262 0.139506
H10   H     H_    0.393779 0.627661 0.315126 0.127724
H11   H     H_    0.966870 0.858130 0.221921 0.158123
H12   H     H_    0.032861 0.753042 0.391619 0.158166
H13   H     H_    0.031103 0.639037 0.278084 0.152097
H14   H     H_    0.137197 0.241026 0.778695 0.159756
H15   H     H_    0.864719 0.147115 0.609911 0.158826
H16   H     H_    0.866996 0.258280 0.726875 0.154059
H17   H     H_    0.286562 0.495632 0.135725 0.151754
H18   H     H_    0.260437 0.367081 0.187774 0.149282
H19   H     H_    0.110018 0.370537 0.187733 0.146821
H20   H     H_    0.216727 0.502573 0.366624 0.132993
H21   H     H_    0.764088 0.763690 0.640988 0.140911
H22   H     H_    0.878328 0.875806 0.640962 0.141589
H23   H     H_    0.734772 0.737241 0.358920 0.142594
O1    O     O_R   0.590610 0.537990 0.448230 -0.585347
O2    O     O_R   0.055400 0.642330 0.093210 -0.580325
O3    O     O_R   0.042570 0.447790 0.094640 -0.594999
O4    O     O_R   0.146970 0.552140 0.094620 -0.587983
O5    O     O_R   0.952400 0.357600 0.914310 -0.588911
O6    O     O_R   0.056800 0.461950 0.914290 -0.580204
O7    O     O_R   0.860830 0.447790 0.912900 -0.586110
O8    O     O_R   0.965230 0.552140 0.912880 -0.580442
O9    O     O_R   0.053290 0.909730 0.462990 -0.589880
O10   O     O_R   0.948100 0.909770 0.357840 -0.584849
O11   O     O_R   0.962410 0.909720 0.552480 -0.585725
O12   O     O_R   0.589770 0.642360 0.551790 -0.583983
O13   O     O_R   0.857220 0.909750 0.447330 -0.585565
O14   O     O_R   0.051900 0.090060 0.641980 -0.586949
O15   O     O_R   0.946710 0.090090 0.536830 -0.589505
O16   O     O_R   0.142780 0.090070 0.552500 -0.586220
O17   O     O_R   0.037590 0.090110 0.447350 -0.586984
O18   O     O_R   0.409550 0.447810 0.357350 -0.590585
O19   O     O_R   0.408710 0.552190 0.460910 -0.587150
O20   O     O_R   0.410230 0.357640 0.448210 -0.585646
O21   O     O_R   0.409390 0.462010 0.551770 -0.587378
O22   O     O_R   0.591290 0.447810 0.539090 -0.589505
O23   O     O_R   0.590450 0.552190 0.642650 -0.586554
O24   O     O_R   0.951000 0.537980 0.093230 -0.582423
C51   C     C_1   0.761018 0.547768 0.918404 0.267291
N1    N     N_1   0.764468 0.567243 0.985304 -0.258397
O25   O     O_3   0.964657 0.743521 0.090620 -0.577189
C52   C     C_3   0.031172 0.816402 0.101161 -0.304674
H24   H     H_    0.096983 0.824458 0.136840 0.158527
H25   H     H_    0.030106 0.876959 0.134727 0.152309
H26   H     H_    0.019181 0.805947 0.035486 0.194186
O26   O     O_3   0.156476 0.368034 0.913660 -0.590491
C53   C     C_3   0.220778 0.425243 0.905996 -0.317715
H27   H     H_    0.195627 0.458888 0.873640 0.165514
H28   H     H_    0.246528 0.390582 0.870561 0.157078
H29   H     H_    0.276347 0.476229 0.972585 0.184903

loop_
_geom_bond_atom_site_label_1
_geom_bond_atom_site_label_2
_ccdc_geom_bond_type
Cu1   O18   S    
C23   O20   A    
Cu5   Cu6   S    
C26   O4    A    
C31   C42   S    
C41   C42   A    
C19   C20   A    
Cu5   O14   S    
C53   H28   S    
C7    C8    A    
Cu3   Cu4   S    
C40   C46   A    
C29   C36   S    
Cu2   O23   S    
C33   C39   A    
Cu3   O5    S    
C18   C24   A    
C36   C37   A    
C18   C19   A    
Cu5   O11   S    
C50   H18   S    
C5    C6    A    
C6    H22   S    
O25   C52   S    
Cu4   O4    S    
C15   C16   A    
C37   H12   S    
C9    H2    S    
C15   H4    S    
Cu2   O19   S    
Cu5   O9    S    
C27   O6    A    
Cu1   O1    S    
C53   H27   S    
C29   O9    A    
C2    C50   S    
C11   C17   A    
C35   C36   A    
C42   C43   A    
C19   H7    S    
C16   C17   A    
C21   H8    S    
C8    H23   S    
C23   C24   S    
Cu3   O7    S    
C45   C49   S    
C4    C12   S    
C9    C10   A    
C12   O19   A    
C30   O11   A    
C23   O21   A    
C38   H13   S    
C26   O3    A    
C7    C30   S    
C21   C22   A    
C25   O2    A    
C52   H25   S    
C11   H3    S    
C29   O10   A    
C51   N1    T    
C44   C46   A    
C40   O26   S    
C4    C45   S    
C45   C47   S    
Cu1   O20   S    
C38   C39   A    
C34   O22   A    
C33   O25   S    
Cu1   Cu2   S    
Cu5   O16   S    
C8    C9    A    
C2    C48   S    
C31   O14   A    
Cu2   O21   S    
C4    C50   S    
Cu3   O3    S    
Cu6   O15   S    
C43   C44   A    
C22   H9    S    
C37   C38   A    
C47   H1    S    
C47   C48   S    
C35   H11   S    
C52   H24   S    
C28   O8    A    
C34   O23   A    
C13   C51   S    
C3    H20   S    
C12   O18   A    
C27   C46   S    
C30   O13   A    
C40   C41   A    
C32   O17   A    
C28   O7    A    
C52   H26   S    
C49   H17   S    
C16   H5    S    
C5    H21   S    
C3    C4    S    
C20   C32   S    
Cu6   O17   S    
Cu6   O10   S    
C27   O5    A    
C43   H15   S    
O26   C53   S    
C25   O24   A    
C1    C10   S    
Cu4   O6    S    
C6    C7    A    
C26   C48   S    
Cu1   O22   S    
C31   O15   A    
C2    C3    S    
C5    C10   A    
C25   C39   S    
C11   C13   A    
Cu4   O8    S    
Cu3   O24   S    
C48   C49   S    
C3    C47   S    
C33   C35   A    
C44   H16   S    
C22   C24   A    
C53   H29   S    
Cu6   O13   S    
C32   O16   A    
C20   C21   A    
C1    O12   A    
C49   C50   S    
C17   C34   S    
C45   H10   S    
C1    O1    A    
C14   C15   A    
Cu2   O12   S    
C18   H6    S    
C14   C28   S    
C13   C14   A    
Cu4   O2    S    
C2    H19   S    
C41   H14   S    
