data_mof_unit_12724.cif
_audit_creation_date              2012-12-10T16:51:12-0500
_audit_creation_method            fapswitch 2.2
_symmetry_space_group_name_H-M    P1
_symmetry_Int_Tables_number       1
_space_group_crystal_system       triclinic
_cell_length_a                    27.79009
_cell_length_b                    8.643336
_cell_length_c                    7.452288
_cell_angle_alpha                 103.702218
_cell_angle_beta                  93.399651
_cell_angle_gamma                 91.818833
_cell_volume                      1734.09214504

loop_
_atom_site_label
_atom_site_type_symbol
_atom_type_description
_atom_site_fract_x
_atom_site_fract_y
_atom_site_fract_z
_atom_type_partial_charge
C1    C     C_R   0.498482 0.199442 0.452663 0.880006
C2    C     C_R   0.502778 0.800467 0.546930 0.880057
C3    C     C_R   0.102129 0.537559 0.457739 -0.113974
C4    C     C_R   0.898061 0.527671 0.464631 -0.109791
C5    C     C_R   0.125695 0.394687 0.395164 -0.012618
C6    C     C_R   0.873752 0.671089 0.499783 -0.013607
C7    C     C_R   0.098628 0.250991 0.334909 -0.140367
C8    C     C_R   0.900280 0.816190 0.543169 -0.131596
C9    C     C_R   0.129866 0.682140 0.519048 -0.105536
C10   C     C_R   0.871062 0.381890 0.432959 -0.117446
C11   C     C_R   0.355869 0.528601 0.513016 -0.065632
C12   C     C_R   0.644852 0.493468 0.483383 -0.079243
C13   C     C_R   0.972941 0.384699 0.414619 -0.019664
C14   C     C_R   0.027298 0.681165 0.507737 -0.017802
C15   C     C_R   0.975999 0.679021 0.504753 0.083886
C16   C     C_R   0.023867 0.387466 0.404647 0.084654
C17   C     C_R   0.949202 0.530423 0.461117 0.065356
C18   C     C_R   0.050917 0.535457 0.457553 0.065048
C19   C     C_R   0.944737 0.240304 0.379293 -0.326823
C20   C     C_R   0.055966 0.824854 0.556589 -0.324634
C21   C     C_R   0.894650 0.237887 0.382788 0.456145
C22   C     C_R   0.106334 0.826658 0.568913 0.456436
C23   C     C_R   0.407832 0.505208 0.504493 0.791962
C24   C     C_R   0.592242 0.494660 0.495094 0.798600
C25   C     C_R   0.048861 0.246902 0.340512 -0.223559
C26   C     C_R   0.950266 0.820628 0.547227 -0.226546
C27   C     C_2   0.497186 0.030809 0.426453 -0.386928
C28   C     C_2   0.505719 0.968897 0.571884 -0.398617
C29   C     C_R   0.176109 0.398202 0.393099 0.518144
C30   C     C_R   0.823122 0.666307 0.488996 0.516312
C31   C     C_R   0.180621 0.677682 0.528093 0.530221
C32   C     C_R   0.820889 0.384656 0.449404 0.523215
C33   C     C_R   0.283961 0.637961 0.395933 0.111792
C34   C     C_R   0.716385 0.415057 0.313463 0.114747
C35   C     C_R   0.334525 0.648204 0.438926 0.036158
C36   C     C_R   0.666771 0.387093 0.339043 0.082414
C37   C     C_R   0.326964 0.425821 0.583924 -0.284553
C38   C     C_R   0.673445 0.605603 0.616198 -0.295370
C39   C     C_R   0.277086 0.433940 0.571130 -0.138438
C40   C     C_R   0.723131 0.614393 0.607853 -0.154156
C41   C     C_R   0.254826 0.535290 0.472627 0.272618
C42   C     C_R   0.745311 0.520725 0.458130 0.275478
Cu1   Cu    Cu3+1 0.505380 0.517380 0.684380 0.939172
Cu2   Cu    Cu3+1 0.494620 0.482620 0.315620 0.935568
H1    H     H_    0.342966 0.339941 0.650133 0.161142
H2    H     H_    0.657310 0.684854 0.729579 0.161947
H3    H     H_    0.462224 0.378657 0.948765 0.228352
H4    H     H_    0.537790 0.621277 0.051220 0.226566
H5    H     H_    0.255446 0.357575 0.634128 0.167402
H6    H     H_    0.744619 0.694258 0.719955 0.164634
H7    H     H_    0.115873 0.139817 0.284114 0.196480
H8    H     H_    0.882448 0.927869 0.577859 0.221861
H9    H     H_    0.960178 0.125179 0.349364 0.152683
H10   H     H_    0.040661 0.939989 0.584775 0.148963
H11   H     H_    0.031120 0.131031 0.288890 0.137131
H12   H     H_    0.967299 0.938289 0.583903 0.137989
H13   H     H_    0.489099 0.957528 0.287029 0.183524
H14   H     H_    0.514079 0.042308 0.711097 0.181151
N1    N     N_R   0.202752 0.537882 0.461422 -0.461286
N2    N     N_R   0.797463 0.523996 0.463517 -0.460681
N3    N     N_2   0.486510 0.456430 0.038510 -0.218919
N4    N     N_2   0.513490 0.543570 0.961490 -0.218416
O1    O     O_R   0.503500 0.286120 0.619780 -0.578673
O2    O     O_R   0.496500 0.713880 0.380220 -0.585650
O3    O     O_R   0.494410 0.256780 0.308360 -0.589338
O4    O     O_R   0.505590 0.743220 0.691640 -0.583134
O5    O     O_R   0.434810 0.514700 0.655690 -0.582351
O6    O     O_R   0.565190 0.485300 0.344310 -0.595456
O7    O     O_R   0.425720 0.485350 0.344280 -0.579683
O8    O     O_R   0.574280 0.514650 0.655720 -0.581841
O9    O     O_2   0.198397 0.262499 0.323710 -0.551861
O10   O     O_2   0.799806 0.802825 0.502503 -0.534559
O11   O     O_2   0.795442 0.248807 0.447921 -0.519223
O12   O     O_2   0.207779 0.812162 0.602207 -0.539857
C43   C     C_3   0.640183 0.231651 0.232538 -0.413687
C44   C     C_3   0.657824 0.087843 0.302921 -0.360289
C45   C     C_3   0.633501 0.070221 0.475736 -0.811479
H15   H     H_    0.637001 0.183075 0.584763 0.257952
H16   H     H_    0.594816 0.036676 0.439684 0.251957
H17   H     H_    0.650285 0.974502 0.530826 0.243944
H18   H     H_    0.649427 0.977184 0.192564 0.206285
H19   H     H_    0.697517 0.097295 0.334259 0.256450
H20   H     H_    0.600583 0.234077 0.240398 0.220775
H21   H     H_    0.645444 0.209656 0.082805 0.176686
C46   C     C_3   0.363331 0.803619 0.450924 -0.409585
C47   C     C_3   0.352937 0.923741 0.631133 -0.349385
C48   C     C_3   0.389484 0.064633 0.681191 -0.841283
H22   H     H_    0.424367 0.025350 0.729532 0.259959
H23   H     H_    0.394312 0.117022 0.560622 0.253815
H24   H     H_    0.377024 0.156584 0.797706 0.231540
H25   H     H_    0.316191 0.968532 0.617257 0.239150
H26   H     H_    0.354324 0.864319 0.748233 0.227924
H27   H     H_    0.402539 0.785034 0.450763 0.213178
H28   H     H_    0.354563 0.854755 0.330552 0.199074
C49   C     C_3   0.738252 0.330291 0.135524 -0.372493
C50   C     C_3   0.718395 0.385477 0.965875 -0.435947
C51   C     C_3   0.732392 0.270576 0.789869 -0.737512
H29   H     H_    0.717496 0.148184 0.782020 0.248066
H30   H     H_    0.717625 0.308363 0.667002 0.271540
H31   H     H_    0.772292 0.268643 0.788010 0.279369
H32   H     H_    0.678586 0.392495 0.960765 0.229604
H33   H     H_    0.733918 0.506847 0.971563 0.229140
H34   H     H_    0.777726 0.353075 0.140843 0.199258
H35   H     H_    0.732468 0.199425 0.113853 0.211745
C52   C     C_3   0.262272 0.733031 0.266173 -0.342937
C53   C     C_3   0.280432 0.679817 0.071587 -0.435939
C54   C     C_3   0.267198 0.798365 0.956984 -0.754902
H36   H     H_    0.227519 0.810630 0.948814 0.278215
H37   H     H_    0.285383 0.916824 0.019571 0.249395
H38   H     H_    0.279252 0.755293 0.815695 0.262005
H39   H     H_    0.320183 0.669590 0.076393 0.231629
H40   H     H_    0.263665 0.560479 0.002106 0.230163
H41   H     H_    0.222460 0.717409 0.248053 0.213876
H42   H     H_    0.270718 0.862189 0.325081 0.227864
O13   O     O_3   0.869009 0.092505 0.336193 -0.542001
C55   C     C_3   0.862287 0.042973 0.141225 0.104581
H43   H     H_    0.897460 0.017478 0.078618 0.125926
H44   H     H_    0.844303 0.135286 0.082370 0.131751
C56   C     C_3   0.830222 0.890938 0.088063 -0.717370
H45   H     H_    0.794558 0.912899 0.146821 0.268379
H46   H     H_    0.824732 0.851239 0.934946 0.190350
H47   H     H_    0.847442 0.795094 0.141566 0.246076
O14   O     O_3   0.132191 0.971690 0.604384 -0.539363
C57   C     C_3   0.130362 0.050588 0.792774 0.113764
H48   H     H_    0.143967 0.974553 0.884739 0.149202
H49   H     H_    0.093003 0.084090 0.825815 0.116684
C58   C     C_3   0.162206 0.202950 0.832806 -0.708332
H50   H     H_    0.149807 0.280709 0.741863 0.234816
H51   H     H_    0.160193 0.268633 0.979100 0.210492
H52   H     H_    0.200261 0.173927 0.807965 0.259937

loop_
_geom_bond_atom_site_label_1
_geom_bond_atom_site_label_2
_ccdc_geom_bond_type
C48   H22   S    
C37   H1    S    
C50   H33   S    
C8    C26   A    
C23   O7    A    
C49   C50   S    
C34   C42   A    
C21   O13   S    
C51   H29   S    
Cu1   O1    S    
C22   O14   S    
C39   C41   A    
C53   H40   S    
C45   H15   S    
Cu2   O2    S    
C52   H41   S    
C19   C21   A    
C47   H25   S    
C43   H21   S    
C56   H47   S    
C53   C54   S    
C31   N1    A    
O13   C55   S    
C55   H43   S    
C3    C18   A    
C23   O5    A    
C11   C37   A    
C14   C18   A    
C46   H27   S    
C29   N1    A    
C2    O2    A    
C30   N2    A    
C1    O3    A    
C54   H36   S    
C12   C36   A    
C8    H8    S    
C19   H9    S    
C40   C42   A    
C50   H32   S    
C54   H37   S    
Cu2   O3    S    
C1    O1    A    
C51   H30   S    
C49   H34   S    
C5    C29   A    
C53   H39   S    
C45   H16   S    
C10   C21   A    
C13   C19   A    
C24   O8    A    
C14   C20   A    
C52   H42   S    
O14   C57   S    
C33   C52   S    
C44   C45   S    
C41   N1    S    
C4    C6    A    
C27   H13   S    
C42   N2    S    
C32   O11   S    
C5    C7    A    
C9    C31   A    
C47   C48   S    
C15   C26   A    
C6    C8    A    
C3    C5    A    
C46   C47   S    
C43   C44   S    
C58   H51   S    
C3    C9    A    
C36   C43   S    
C46   H28   S    
H4    N4    S    
C50   C51   S    
Cu2   O7    S    
C16   C18   A    
C34   C49   S    
C56   H46   S    
C57   C58   S    
C4    C17   A    
C20   H10   S    
C6    C30   A    
C20   C22   A    
Cu1   O8    S    
C48   H23   S    
Cu1   Cu2   S    
C54   H38   S    
Cu2   O6    S    
C32   N2    A    
C44   H19   S    
C58   H50   S    
C51   H31   S    
C49   H35   S    
C57   H49   S    
C45   H17   S    
C16   C25   A    
C15   C17   A    
C39   H5    S    
C25   H11   S    
C2    O4    A    
C26   H12   S    
C44   H18   S    
H3    N3    S    
C30   O10   S    
C56   H45   S    
C28   H14   S    
Cu2   N3    S    
C52   C53   S    
C12   C24   S    
C7    C25   A    
C55   C56   S    
C13   C17   A    
C33   C41   A    
C11   C35   A    
C13   C16   A    
C58   H52   S    
C7    H7    S    
C37   C39   A    
C47   H26   S    
C38   C40   A    
C35   C46   S    
C43   H20   S    
Cu1   O4    S    
C40   H6    S    
C11   C23   S    
C33   C35   A    
C55   H44   S    
C34   C36   A    
C12   C38   A    
N3    N4    D    
C31   O12   S    
C38   H2    S    
C24   O6    A    
C10   C32   A    
Cu1   O5    S    
C9    C22   A    
C48   H24   S    
C27   C28   D    
C1    C27   S    
C14   C15   A    
C2    C28   S    
C4    C10   A    
Cu1   N4    S    
C57   H48   S    
C29   O9    S    
