data_mof_unit_29396.cif
_audit_creation_date              2012-12-10T17:50:40-0500
_audit_creation_method            fapswitch 2.2
_symmetry_space_group_name_H-M    P1
_symmetry_Int_Tables_number       1
_space_group_crystal_system       triclinic
_cell_length_a                    15.723539
_cell_length_b                    10.72663
_cell_length_c                    9.936208
_cell_angle_alpha                 88.491304
_cell_angle_beta                  90.061719
_cell_angle_gamma                 92.955
_cell_volume                      1673.038093

loop_
_atom_site_label
_atom_site_type_symbol
_atom_type_description
_atom_site_fract_x
_atom_site_fract_y
_atom_site_fract_z
_atom_type_partial_charge
C1    C     C_R   0.504160 0.259888 0.503005 0.921416
C2    C     C_R   0.453972 0.030086 0.871506 0.048251
C3    C     C_R   0.410145 0.916320 0.847334 -0.116609
C4    C     C_R   0.338088 0.499610 0.499959 0.928775
C5    C     C_R   0.412449 0.866193 0.719915 -0.181016
C6    C     C_R   0.458393 0.929766 0.614388 0.106763
C7    C     C_R   0.485219 0.054685 0.629627 0.102293
C8    C     C_R   0.507762 0.125845 0.510598 -0.139291
C9    C     C_R   0.522485 0.066823 0.389737 -0.142531
C10   C     C_R   0.513257 0.939508 0.384166 -0.144219
C11   C     C_R   0.482664 0.870654 0.496374 -0.123836
C12   C     C_3   0.082857 0.493693 0.497408 0.064830
C13   C     C_R   0.375401 0.342555 0.136413 0.659807
C14   C     C_R   0.313815 0.276338 0.062376 -0.123307
C15   C     C_R   0.317223 0.277712 0.924161 -0.318935
C16   C     C_R   0.492710 0.738659 0.498478 0.857272
C17   C     C_R   0.381816 0.346811 0.858458 -0.178347
C18   C     C_R   0.440874 0.424414 0.928020 0.083652
C19   C     C_R   0.439639 0.423679 0.072746 -0.005888
C20   C     C_R   0.556462 0.572684 0.069527 -0.108375
C21   C     C_R   0.556335 0.572763 0.926691 -0.092999
C22   C     C_R   0.661944 0.500342 0.500052 0.890161
C23   C     C_3   0.973708 0.540531 0.615375 -0.216678
C24   C     C_3   0.966466 0.377260 0.484569 -0.190303
C25   C     C_3   0.025168 0.449814 0.382111 -0.028845
C26   C     C_1   0.249150 0.497619 0.499774 -0.117594
C27   C     C_1   0.750861 0.498935 0.500018 -0.187712
C28   C     C_3   0.025302 0.422125 0.601261 -0.249325
C29   C     C_2   0.052110 0.398341 0.251051 0.425600
C30   C     C_2   0.462986 0.076551 0.009665 0.368276
C31   C     C_3   0.916945 0.495966 0.498424 0.102111
C32   C     C_3   0.032041 0.610131 0.510847 0.687327
C33   C     C_3   0.973826 0.567827 0.393950 -0.312950
C34   C     C_1   0.173814 0.495639 0.498992 0.072227
C35   C     C_1   0.826128 0.497475 0.499452 -0.024774
C36   C     C_R   0.490164 0.099890 0.762672 -0.288824
F1    F     F_    0.370887 0.314464 0.267862 -0.633047
F2    F     F_    0.067795 0.729602 0.524580 -0.657178
H1    H     H_    0.378049 0.862974 0.928109 0.184775
H2    H     H_    0.951428 0.627862 0.309769 0.161067
H3    H     H_    0.950879 0.578988 0.710686 0.156454
H4    H     H_    0.048067 0.362586 0.685573 0.173464
H5    H     H_    0.542895 0.118999 0.299578 0.173963
H6    H     H_    0.526268 0.184734 0.786106 0.170492
H7    H     H_    0.004218 0.370229 0.177711 0.051574
H8    H     H_    0.502104 0.160651 0.028336 0.044913
H9    H     H_    0.379835 0.776190 0.705400 0.171915
H10   H     H_    0.531642 0.895032 0.292707 0.182622
H11   H     H_    0.602629 0.632279 0.121423 0.138904
H12   H     H_    0.265492 0.217121 0.113582 0.211671
H13   H     H_    0.271861 0.220441 0.867722 0.195698
H14   H     H_    0.384831 0.334097 0.753068 0.235344
H15   H     H_    0.602429 0.632519 0.871608 0.145888
H16   H     H_    0.937526 0.281504 0.473158 0.154430
N1    N     N_R   0.499210 0.498800 0.142780 -0.104801
N2    N     N_R   0.499180 0.498720 0.857170 -0.108654
O1    O     O_R   0.500000 0.316780 0.614690 -0.668015
O2    O     O_2   0.426407 0.022116 0.104133 -0.570095
O3    O     O_R   0.499990 0.316750 0.385360 -0.547501
O4    O     O_R   0.376780 0.500000 0.614650 -0.658130
O5    O     O_R   0.376770 0.499980 0.385310 -0.530445
O6    O     O_R   0.500010 0.683250 0.614640 -0.622898
O7    O     O_R   0.500000 0.683220 0.385310 -0.620634
O8    O     O_R   0.623230 0.500020 0.614690 -0.614814
O9    O     O_R   0.623220 0.500000 0.385350 -0.625030
O10   O     O_2   0.127298 0.387756 0.225974 -0.557576
Zn1   Zn    Zn3+2 0.500010 0.500020 0.653130 0.933557
Zn2   Zn    Zn3+2 0.499990 0.499980 0.346870 1.005686

loop_
_geom_bond_atom_site_label_1
_geom_bond_atom_site_label_2
_ccdc_geom_bond_type
C21   N2    A    
C4    C26   S    
C31   C33   S    
C22   O9    A    
C6    C7    A    
C16   O7    A    
C32   F2    S    
O3    Zn2   S    
N2    Zn1   S    
C9    C10   A    
C30   H8    S    
C13   F1    S    
C23   H3    S    
C18   N2    A    
C12   C25   S    
C2    C30   S    
O9    Zn2   S    
C23   C32   S    
C4    O4    A    
C25   C33   S    
C14   C15   A    
C17   C18   A    
C24   H16   S    
C24   C31   S    
C3    H1    S    
C7    C8    A    
C23   C28   S    
C32   C33   S    
C21   H15   S    
C5    H9    S    
O5    Zn2   S    
C14   H12   S    
C16   O6    A    
O6    Zn1   S    
O1    Zn1   S    
C20   N1    A    
C20   H11   S    
C30   O2    D    
C17   H14   S    
C28   H4    S    
C12   C28   S    
N1    Zn2   S    
C15   H13   S    
C22   C27   S    
C1    O3    A    
C10   H10   S    
C5    C6    A    
C31   C35   S    
C36   H6    S    
C33   H2    S    
C9    H5    S    
C10   C11   A    
C13   C19   A    
C12   C34   S    
C29   O10   D    
C1    C8    S    
O8    Zn1   S    
C24   C25   S    
C25   C29   S    
C18   C19   A    
C7    C36   A    
C2    C36   A    
C6    C11   A    
C15   C17   A    
C19   N1    A    
O7    Zn2   S    
C2    C3    A    
C27   C35   T    
C20   C21   A    
C13   C14   A    
C22   O8    A    
C4    O5    A    
C26   C34   T    
C11   C16   S    
C12   C32   S    
C24   C28   S    
O4    Zn1   S    
C29   H7    S    
C8    C9    A    
C3    C5    A    
C23   C31   S    
C1    O1    A    
