data_mof_unit_6838.cif
_audit_creation_date              2012-12-10T18:19:11-0500
_audit_creation_method            fapswitch 2.2
_symmetry_space_group_name_H-M    P1
_symmetry_Int_Tables_number       1
_space_group_crystal_system       triclinic
_cell_length_a                    14.862067
_cell_length_b                    14.175072
_cell_length_c                    11.519639
_cell_angle_alpha                 90.000193
_cell_angle_beta                  89.373185
_cell_angle_gamma                 90.000019
_cell_volume                      2426.70714245

loop_
_atom_site_label
_atom_site_type_symbol
_atom_type_description
_atom_site_fract_x
_atom_site_fract_y
_atom_site_fract_z
_atom_type_partial_charge
C1    C     C_R   0.327365 0.499691 0.497408 0.937251
C2    C     C_R   0.425171 0.201093 0.538226 0.442065
C3    C     C_R   0.420515 0.800032 0.512952 0.446397
C4    C     C_R   0.574829 0.201092 0.461774 0.442064
C5    C     C_R   0.420538 0.900295 0.522591 -0.081992
C6    C     C_R   0.578161 0.101225 0.469099 -0.064637
C7    C     C_R   0.579462 0.900295 0.477409 -0.081993
C8    C     C_R   0.421839 0.101225 0.530901 -0.064637
C9    C     C_R   0.500000 0.950483 0.500001 0.016622
C10   C     C_R   0.500000 0.051064 0.500000 0.008961
C11   C     C_R   0.341950 0.951464 0.550910 -0.173720
C12   C     C_R   0.672635 0.499691 0.502592 0.937251
C13   C     C_R   0.657312 0.050246 0.444598 -0.186804
C14   C     C_R   0.658050 0.951464 0.449090 -0.173719
C15   C     C_R   0.342688 0.050246 0.555402 -0.186805
C16   C     C_R   0.499946 0.499949 0.282097 0.891278
C17   C     C_R   0.500054 0.499949 0.717903 0.891277
C18   C     C_1   0.499916 0.499662 0.161614 -0.177500
C19   C     C_1   0.500084 0.499663 0.838386 -0.177499
C20   C     C_1   0.499956 0.499340 0.059354 0.004223
C21   C     C_1   0.500043 0.499340 0.940646 0.004223
C22   C     C_R   0.812930 0.506893 0.398766 -0.297778
C23   C     C_R   0.905733 0.506397 0.396170 0.056670
C24   C     C_R   0.187070 0.506895 0.601233 -0.297776
C25   C     C_R   0.767877 0.498293 0.504291 -0.156946
C26   C     C_R   0.232123 0.498293 0.495709 -0.156945
C27   C     C_R   0.812798 0.487608 0.609710 0.428186
C28   C     C_R   0.187202 0.487606 0.390290 0.428185
C29   C     C_R   0.906651 0.499055 0.609738 -0.130665
C30   C     C_R   0.093349 0.499053 0.390261 -0.130666
C31   C     C_R   0.953089 0.503001 0.501529 -0.046761
C32   C     C_R   0.046911 0.503000 0.498470 -0.046762
C33   C     C_3   0.778092 0.380219 0.754575 0.140088
C34   C     C_R   0.094267 0.506399 0.603829 0.056671
C35   C     C_3   0.719998 0.306853 0.692820 -0.384097
C36   C     C_3   0.728587 0.209559 0.748121 -0.974395
C37   C     C_3   0.221908 0.380215 0.245426 0.140089
C38   C     C_3   0.280002 0.306850 0.307180 -0.384095
C39   C     C_3   0.271414 0.209556 0.251879 -0.974396
C40   C     C_3   0.704559 0.760215 0.589165 0.103118
C41   C     C_3   0.806035 0.749281 0.570109 -0.364782
C42   C     C_3   0.855742 0.743905 0.685086 -0.892542
C43   C     C_3   0.362129 0.270219 0.699994 0.165243
C44   C     C_3   0.294619 0.214247 0.773756 -0.412499
C45   C     C_R   0.955180 0.507859 0.713579 0.603897
C46   C     C_3   0.292877 0.248918 0.899236 -0.957866
C47   C     C_3   0.295447 0.760213 0.410828 0.103123
C48   C     C_3   0.193971 0.749275 0.429875 -0.364807
C49   C     C_3   0.144271 0.743891 0.314895 -0.892544
C50   C     C_3   0.637871 0.270219 0.300006 0.165243
C51   C     C_3   0.705380 0.214245 0.226243 -0.412499
C52   C     C_3   0.707121 0.248915 0.100763 -0.957866
C53   C     C_R   0.044820 0.507856 0.286421 0.603896
C54   C     C_R   0.048433 0.511402 0.710078 -0.275885
C55   C     C_R   0.951567 0.511399 0.289921 -0.275886
C56   C     C_R   0.579485 0.800032 0.487048 0.446400
F1    F     F_    0.913157 0.515864 0.818364 -0.654203
F2    F     F_    0.086842 0.515859 0.181635 -0.654205
H1    H     H_    0.775287 0.512593 0.318788 0.154367
H2    H     H_    0.849898 0.358072 0.749592 0.147054
H3    H     H_    0.648417 0.328691 0.697070 0.264745
H4    H     H_    0.741956 0.301680 0.600680 0.264545
H5    H     H_    0.799802 0.185791 0.745917 0.268276
H6    H     H_    0.687330 0.158052 0.699244 0.277815
H7    H     H_    0.703962 0.211414 0.839389 0.268198
H8    H     H_    0.240728 0.380583 0.151809 0.192100
H9    H     H_    0.150102 0.358067 0.250410 0.147054
H10   H     H_    0.351583 0.328689 0.302930 0.264745
H11   H     H_    0.258045 0.301677 0.399320 0.264545
H12   H     H_    0.224713 0.512595 0.681211 0.154366
H13   H     H_    0.200199 0.185788 0.254084 0.268276
H14   H     H_    0.312671 0.158049 0.300756 0.277815
H15   H     H_    0.296038 0.211410 0.160612 0.268197
H16   H     H_    0.679620 0.703353 0.647748 0.184342
H17   H     H_    0.693028 0.829043 0.634078 0.111220
H18   H     H_    0.820080 0.684545 0.519242 0.249584
H19   H     H_    0.832088 0.810310 0.519434 0.210535
H20   H     H_    0.846043 0.810208 0.735059 0.257822
H21   H     H_    0.928797 0.733783 0.668013 0.265001
H22   H     H_    0.830587 0.683502 0.737552 0.307534
H23   H     H_    0.084920 0.517151 0.790752 0.189710
H24   H     H_    0.347139 0.346348 0.712104 0.177877
H25   H     H_    0.431512 0.257616 0.733288 0.121775
H26   H     H_    0.226189 0.221757 0.736830 0.239050
H27   H     H_    0.313422 0.138446 0.773087 0.222795
H28   H     H_    0.360393 0.241085 0.938566 0.263479
H29   H     H_    0.243698 0.206575 0.950414 0.270504
H30   H     H_    0.272238 0.324196 0.903153 0.268344
H31   H     H_    0.320390 0.703352 0.352247 0.184344
H32   H     H_    0.306978 0.829042 0.365918 0.111219
H33   H     H_    0.179924 0.684542 0.480744 0.249591
H34   H     H_    0.915080 0.517147 0.209247 0.189711
H35   H     H_    0.167914 0.810305 0.480543 0.210541
H36   H     H_    0.153970 0.810191 0.264920 0.257825
H37   H     H_    0.071215 0.733765 0.331962 0.265006
H38   H     H_    0.169431 0.683487 0.262437 0.307542
H39   H     H_    0.652862 0.346347 0.287896 0.177876
H40   H     H_    0.568487 0.257615 0.266712 0.121775
H41   H     H_    0.773810 0.221755 0.263169 0.239050
H42   H     H_    0.686576 0.138444 0.226913 0.222795
H43   H     H_    0.639606 0.241082 0.061434 0.263479
H44   H     H_    0.756299 0.206571 0.049586 0.270504
H45   H     H_    0.279501 0.915393 0.570667 0.171236
H46   H     H_    0.727761 0.324193 0.096846 0.268342
H47   H     H_    0.719493 0.086446 0.423545 0.174148
H48   H     H_    0.720498 0.915393 0.429331 0.171234
H49   H     H_    0.280507 0.086446 0.576454 0.174148
H50   H     H_    0.759271 0.380587 0.848192 0.192099
N1    N     N_R   0.500000 0.750030 0.500000 -0.181047
N2    N     N_R   0.500000 0.249970 0.500000 -0.194958
O1    O     O_R   0.367850 0.580280 0.500030 -0.571224
O2    O     O_3   0.236918 0.472695 0.288980 -0.625478
O3    O     O_3   0.660733 0.753186 0.480606 -0.608785
O4    O     O_3   0.350982 0.249211 0.580675 -0.642111
O5    O     O_3   0.339267 0.753186 0.519390 -0.608787
O6    O     O_3   0.649018 0.249211 0.419325 -0.642110
O7    O     O_R   0.632150 0.419720 0.499970 -0.600524
O8    O     O_R   0.632150 0.580280 0.499970 -0.571223
O9    O     O_R   0.367850 0.419720 0.500030 -0.600525
O10   O     O_R   0.500010 0.580270 0.334450 -0.602850
O11   O     O_R   0.499990 0.419730 0.665550 -0.657203
O12   O     O_R   0.499990 0.580270 0.665550 -0.602848
O13   O     O_R   0.500010 0.419730 0.334450 -0.657203
O14   O     O_3   0.763082 0.472699 0.711020 -0.625475
Zn1   Zn    Zn3+2 0.500000 0.607200 0.500000 1.008105
Zn2   Zn    Zn3+2 0.500000 0.392800 0.500000 0.943863

loop_
_geom_bond_atom_site_label_1
_geom_bond_atom_site_label_2
_ccdc_geom_bond_type
C42   H22   S    
C53   F2    S    
C27   C29   A    
C43   H25   S    
C41   C42   S    
C35   C36   S    
C24   H12   S    
C28   O2    S    
C47   O5    S    
C52   H44   S    
C37   C38   S    
C19   C21   T    
C16   O13   A    
C24   C26   A    
C5    C11   A    
C16   O10   A    
C43   O4    S    
C41   H19   S    
C38   C39   S    
C1    O9    A    
C15   H49   S    
C37   O2    S    
C17   C19   S    
C11   C15   A    
C7    C14   A    
C52   H46   S    
C47   C48   S    
C48   H33   S    
O1    Zn1   S    
C33   O14   S    
C56   O3    S    
O8    Zn1   S    
C49   H36   S    
C36   H5    S    
C9    C10   A    
C18   C20   T    
C38   H11   S    
C42   H21   S    
C13   C14   A    
C47   H31   S    
C33   H50   S    
C7    C56   A    
C44   C46   S    
C46   H30   S    
C53   C55   A    
C51   H41   S    
C30   C53   A    
C52   H43   S    
C50   H40   S    
C48   H35   S    
C51   C52   S    
C13   H47   S    
C22   H1    S    
C36   H7    S    
O13   Zn2   S    
C8    C15   A    
C3    C5    A    
C22   C25   A    
C24   C34   A    
C29   C45   A    
C32   C34   A    
C43   C44   S    
C5    C9    A    
C55   H34   S    
C40   O3    S    
C39   H14   S    
C45   F1    S    
C37   H8    S    
C50   C51   S    
C35   H3    S    
C16   C18   S    
C49   H37   S    
C23   C55   A    
N2    Zn2   S    
C12   O8    A    
N1    Zn1   S    
C40   C41   S    
C38   H10   S    
C45   C54   A    
C34   C54   A    
C33   H2    S    
C1    C26   S    
C47   H32   S    
C4    C6    A    
C44   H27   S    
C56   N1    A    
C46   H29   S    
O7    Zn2   S    
C17   O11   A    
C51   H42   S    
C7    C9    A    
C4    N2    A    
C2    N2    A    
C50   H39   S    
O10   Zn1   S    
C4    O6    S    
C31   C32   A    
C2    C8    A    
C44   H26   S    
C6    C10   A    
C27   O14   S    
C42   H20   S    
C25   C27   A    
C26   C28   A    
C40   H17   S    
C12   C25   S    
O12   Zn1   S    
C28   C30   A    
O11   Zn2   S    
C29   C31   A    
C3    O5    S    
C1    O1    A    
C41   H18   S    
C30   C32   A    
C2    O4    S    
C3    N1    A    
C48   C49   S    
C37   H9    S    
C33   C35   S    
C40   H16   S    
C35   H4    S    
C50   O6    S    
C39   H15   S    
C49   H38   S    
C12   O7    A    
O9    Zn2   S    
C17   O12   A    
C14   H48   S    
C20   C21   S    
C8    C10   A    
C43   H24   S    
C39   H13   S    
C22   C23   A    
C11   H45   S    
C46   H28   S    
C36   H6    S    
C54   H23   S    
C23   C31   A    
C6    C13   A    
