data_mof_unit_42412.cif
_audit_creation_date              2012-12-10T19:07:38-0500
_audit_creation_method            fapswitch 2.2
_symmetry_space_group_name_H-M    P1
_symmetry_Int_Tables_number       1
_space_group_crystal_system       triclinic
_cell_length_a                    10.849908
_cell_length_b                    10.819578
_cell_length_c                    9.587296
_cell_angle_alpha                 89.969458
_cell_angle_beta                  91.084637
_cell_angle_gamma                 91.382764
_cell_volume                      1124.93700434

loop_
_atom_site_label
_atom_site_type_symbol
_atom_type_description
_atom_site_fract_x
_atom_site_fract_y
_atom_site_fract_z
_atom_type_partial_charge
C1    C     C_R   0.503143 0.262425 0.500251 0.810300
C2    C     C_R   0.510905 0.935951 0.625677 0.093092
C3    C     C_3   0.418898 0.925954 0.739098 -0.463846
C4    C     C_R   0.262548 0.497239 0.498893 0.859392
C5    C     C_3   0.419019 0.066203 0.740102 -0.350231
C6    C     C_R   0.542618 0.600907 0.074497 0.226210
C7    C     C_R   0.439743 0.408538 0.070786 -0.094182
C8    C     C_R   0.439647 0.410118 0.922491 0.612034
C9    C     C_R   0.541668 0.601264 0.927715 0.168108
C10   C     C_3   0.666127 0.661022 0.923966 -0.489089
C11   C     C_3   0.668124 0.659474 0.082431 -0.462491
C12   C     C_R   0.939459 0.470102 0.623199 0.021587
C13   C     C_R   0.503175 0.737559 0.499992 0.801684
C14   C     C_R   0.737752 0.497915 0.500743 0.782939
C15   C     C_R   0.066405 0.469670 0.621368 0.032132
C16   C     C_R   0.129452 0.484355 0.496863 -0.056196
C17   C     C_R   0.061709 0.482049 0.370620 -0.167651
C18   C     C_R   0.933172 0.482195 0.372153 -0.209079
C19   C     C_R   0.870992 0.485724 0.499888 -0.050092
C20   C     C_2   0.372202 0.303751 0.134800 0.954798
C21   C     C_3   0.940163 0.540314 0.757304 -0.520496
C22   C     C_3   0.079669 0.539091 0.755349 0.480919
C23   C     C_R   0.510891 0.063091 0.626167 0.097697
C24   C     C_R   0.517446 0.129531 0.501458 -0.094860
C25   C     C_R   0.544507 0.065655 0.378524 -0.205191
C26   C     C_R   0.543044 0.936595 0.377723 -0.205327
C27   C     C_R   0.517119 0.870870 0.500719 -0.080516
Cu1   Cu    Cu3+1 0.499990 0.499980 0.640670 1.017630
Cu2   Cu    Cu3+1 0.500010 0.500020 0.359330 0.974156
F1    F     F_    0.373663 0.323173 0.849603 -0.674823
F2    F     F_    0.131518 0.656224 0.737722 -0.655643
H1    H     H_    0.107271 0.486891 0.271206 0.192116
H2    H     H_    0.902673 0.634519 0.744678 0.225958
H3    H     H_    0.902071 0.483651 0.843832 0.153459
H4    H     H_    0.122659 0.484657 0.840934 0.100838
H5    H     H_    0.561500 0.114611 0.282178 0.196026
H6    H     H_    0.556586 0.889051 0.280172 0.161395
H7    H     H_    0.329609 0.883189 0.703160 0.241238
H8    H     H_    0.346322 0.118666 0.144008 0.329782
H9    H     H_    0.458827 0.885816 0.836180 0.205257
H10   H     H_    0.329571 0.105208 0.705571 0.229487
H11   H     H_    0.459855 0.105945 0.837735 0.262643
H12   H     H_    0.733203 0.598758 0.878589 0.212756
H13   H     H_    0.664205 0.755574 0.878699 0.201405
H14   H     H_    0.738275 0.597127 0.127419 0.205962
H15   H     H_    0.667815 0.753461 0.128792 0.190589
H16   H     H_    0.883527 0.485791 0.273362 0.157447
N1    N     N_R   0.500790 0.500930 0.147930 -0.253931
N2    N     N_R   0.500790 0.500890 0.852020 -0.235217
O1    O     O_R   0.500000 0.319640 0.618810 -0.527473
O2    O     O_R   0.401487 0.183134 0.098079 -0.785632
O3    O     O_R   0.500010 0.319680 0.381230 -0.588192
O4    O     O_R   0.319650 0.499970 0.618810 -0.529265
O5    O     O_R   0.319660 0.500010 0.381230 -0.558598
O6    O     O_R   0.499990 0.680320 0.618770 -0.571605
O7    O     O_R   0.500000 0.680360 0.381190 -0.586765
O8    O     O_R   0.680340 0.499990 0.618770 -0.586030
O9    O     O_R   0.680350 0.500030 0.381190 -0.595188
O10   O     O_2   0.284942 0.321488 0.209890 -0.601428

loop_
_geom_bond_atom_site_label_1
_geom_bond_atom_site_label_2
_ccdc_geom_bond_type
C4    C16   S    
H8    O2    S    
C23   C24   A    
C26   H6    S    
C2    C27   A    
Cu2   O7    S    
C4    O4    A    
C1    O1    A    
C5    C23   S    
C12   C15   A    
C5    H11   S    
C13   O7    A    
C8    F1    S    
C7    N1    A    
C6    C9    A    
C2    C3    S    
C25   C26   A    
C24   C25   A    
C7    C8    A    
Cu2   O3    S    
Cu1   O8    S    
C18   H16   S    
Cu1   O4    S    
C22   H4    S    
C26   C27   A    
C22   F2    S    
C6    N1    A    
C14   C19   S    
C12   C19   A    
Cu1   Cu2   S    
Cu1   O6    S    
C3    H9    S    
C17   C18   A    
C20   O2    S    
C10   C11   S    
C14   O9    A    
C1    O3    A    
C11   H14   S    
C21   H2    S    
Cu2   O5    S    
Cu2   N1    S    
C10   H13   S    
C15   C16   A    
C12   C21   S    
C3    C5    S    
C6    C11   S    
C9    N2    A    
Cu2   O9    S    
C1    C24   S    
C18   C19   A    
C9    C10   S    
C2    C23   A    
C17   H1    S    
C14   O8    A    
C5    H10   S    
C13   C27   S    
C11   H15   S    
C21   H3    S    
C25   H5    S    
C4    O5    A    
C10   H12   S    
C21   C22   S    
Cu1   O1    S    
C8    N2    A    
C7    C20   S    
C15   C22   S    
C3    H7    S    
C13   O6    A    
C16   C17   A    
C20   O10   D    
Cu1   N2    S    
