data_mof_unit_14231.cif
_audit_creation_date              2012-10-26T19:41:55-0400
_audit_creation_method            fapswitch 2.2
_symmetry_space_group_name_H-M    P1
_symmetry_Int_Tables_number       1
_space_group_crystal_system       triclinic
_cell_length_a                    10.616821
_cell_length_b                    10.83061
_cell_length_c                    9.621242
_cell_angle_alpha                 92.014553
_cell_angle_beta                  91.178424
_cell_angle_gamma                 94.234551
_cell_volume                      1102.3145744

loop_
_atom_site_label
_atom_site_type_symbol
_atom_type_description
_atom_site_fract_x
_atom_site_fract_y
_atom_site_fract_z
_atom_type_partial_charge
C1    C     C_R   0.509505 0.263534 0.498226 0.635840
C2    C     C_R   0.566280 0.071335 0.612923 0.059238
C3    C     C_R   0.520188 0.129951 0.495282 -0.024925
C4    C     C_R   0.259521 0.499660 0.498886 0.627618
C5    C     C_R   0.458161 0.060057 0.386392 -0.107347
C6    C     C_R   0.435843 0.932660 0.392877 0.236892
C7    C     C_R   0.479182 0.872535 0.511129 -0.010524
C8    C     C_R   0.677563 0.659599 0.153507 -0.085518
C9    C     C_R   0.769474 0.731312 0.086172 -0.159228
C10   C     C_R   0.771253 0.729775 0.942461 0.194561
C11   C     C_R   0.678226 0.657538 0.865891 -0.087404
C12   C     C_3   0.947337 0.402366 0.423048 -0.083939
C13   C     C_R   0.587641 0.577623 0.930366 0.073855
C14   C     C_R   0.587718 0.577781 0.079715 0.130113
C15   C     C_R   0.415759 0.424339 0.064898 0.330498
C16   C     C_R   0.490953 0.737432 0.502959 0.562083
C17   C     C_R   0.417888 0.426069 0.918306 0.056684
C18   C     C_R   0.740439 0.500838 0.501226 0.566786
C19   C     C_3   0.051718 0.597324 0.576968 -0.104969
C20   C     C_3   0.961775 0.492184 0.633035 -0.075169
C21   C     C_3   0.877147 0.500382 0.502933 -0.008431
C22   C     C_3   0.964408 0.605707 0.447444 -0.128579
C23   C     C_3   0.033933 0.395878 0.552204 0.256208
C24   C     C_3   0.037151 0.507947 0.367880 -0.121066
C25   C     C_3   0.122511 0.499516 0.497450 0.013440
C26   C     C_R   0.646267 0.134989 0.716866 0.305834
C27   C     C_R   0.657585 0.084124 0.848292 -0.037910
C28   C     C_R   0.594533 0.970927 0.874507 -0.085603
C29   C     C_R   0.531319 0.901254 0.766629 -0.081573
C30   C     C_R   0.526612 0.945772 0.630007 -0.036774
Cu1   Cu    Cu3+1 0.499990 0.499990 0.640660 0.999609
Cu2   Cu    Cu3+1 0.500010 0.500010 0.359340 1.086829
H1    H     H_    0.928716 0.485333 0.741431 0.173085
H2    H     H_    0.069383 0.517430 0.259762 0.210814
H3    H     H_    0.902095 0.321999 0.361182 0.175617
H4    H     H_    0.421538 0.105767 0.297736 0.225675
H5    H     H_    0.713586 0.133090 0.931023 0.134903
H6    H     H_    0.363941 0.756475 0.066966 0.363122
H7    H     H_    0.208278 0.147932 0.025078 0.418317
H8    H     H_    0.046819 0.763922 0.986114 0.367588
H9    H     H_    0.987549 0.073569 0.652069 0.411208
H10   H     H_    0.767062 0.274015 0.769523 0.336941
H11   H     H_    0.597827 0.935227 0.978062 0.172959
H12   H     H_    0.480037 0.816900 0.795559 0.165618
H13   H     H_    0.680975 0.673031 0.263465 0.183521
H14   H     H_    0.838880 0.789813 0.146984 0.155739
H15   H     H_    0.678199 0.668593 0.756700 0.208436
H16   H     H_    0.350907 0.366912 0.855396 0.214140
H17   H     H_    0.098501 0.677546 0.637535 0.216775
H18   H     H_    0.932415 0.692284 0.404617 0.160620
N1    N     N_R   0.501210 0.501210 0.147910 -0.258731
N2    N     N_R   0.501250 0.501290 0.852040 -0.298983
O1    O     O_R   0.499990 0.319640 0.618810 -0.455522
O2    O     O_2   0.251081 0.946676 0.199313 -0.238872
O3    O     O_3   0.424883 0.800803 0.134103 -0.543687
O4    O     O_2   0.287245 0.288846 0.270334 -0.227933
O5    O     O_2   0.168169 0.375461 0.083430 -0.303563
O6    O     O_3   0.295615 0.187144 0.026457 -0.511551
O7    O     O_2   0.863279 0.823159 0.706096 -0.291722
O8    O     O_2   0.902780 0.948807 0.921620 -0.266825
O9    O     O_3   0.029243 0.755193 0.884604 -0.511905
O10   O     O_2   0.190632 0.211144 0.544589 -0.247226
O11   O     O_2   0.115231 0.276800 0.773081 -0.262345
O12   O     O_R   0.500000 0.319660 0.381240 -0.475871
O13   O     O_3   0.958143 0.146482 0.605071 -0.474302
O14   O     O_3   0.716428 0.242750 0.686114 -0.653846
O15   O     O_R   0.316850 0.499960 0.618770 -0.500715
O16   O     O_R   0.316860 0.499980 0.381190 -0.418372
O17   O     O_R   0.500000 0.680340 0.618760 -0.559918
O18   O     O_R   0.500010 0.680360 0.381190 -0.462908
O19   O     O_R   0.683140 0.500020 0.618810 -0.505562
O20   O     O_R   0.683150 0.500040 0.381230 -0.548908
O21   O     O_2   0.255420 0.752338 0.320235 -0.294852
S1    S     S_3+6 0.335931 0.856631 0.260722 0.034630
S2    S     S_3+6 0.289763 0.320521 0.120583 0.043591
S3    S     S_3+6 0.891350 0.819067 0.859568 -0.009660
S4    S     S_3+6 0.079720 0.254886 0.621832 0.053352

loop_
_geom_bond_atom_site_label_1
_geom_bond_atom_site_label_2
_ccdc_geom_bond_type
C15   S2    S    
C18   C21   S    
O21   S1    D    
O10   S4    D    
C11   H15   S    
C19   C20   S    
C17   H16   S    
Cu1   N2    S    
C4    C25   S    
Cu2   O20   S    
Cu1   O15   S    
C12   C23   S    
C26   C27   A    
C28   C29   A    
C5    C6    A    
C5    H4    S    
C1    O1    A    
C8    H13   S    
O2    S1    D    
O3    S1    S    
C10   S3    S    
H6    O3    S    
C14   N1    A    
C8    C9    A    
C15   N1    A    
C9    C10   A    
Cu2   O16   S    
Cu1   O19   S    
C9    H14   S    
O4    S2    D    
C21   C22   S    
C17   N2    A    
O6    S2    S    
C6    S1    S    
O9    S3    S    
C18   O20   A    
O13   S4    S    
C26   O14   S    
C19   C22   S    
C16   O18   A    
C24   C25   S    
Cu2   O12   S    
C4    O16   A    
Cu2   O18   S    
H7    O6    S    
C12   C21   S    
O8    S3    D    
C23   S4    S    
H8    O9    S    
C1    C3    S    
Cu2   N1    S    
C29   C30   A    
C13   N2    A    
C19   H17   S    
Cu1   Cu2   S    
C20   C23   S    
C2    C26   A    
Cu1   O1    S    
C12   H3    S    
C20   H1    S    
C7    C16   S    
C29   H12   S    
C22   C24   S    
C1    O12   A    
H10   O14   S    
O11   S4    D    
C18   O19   A    
C15   C17   A    
C8    C14   A    
C16   O17   A    
C3    C5    A    
C4    O15   A    
H9    O13   S    
C6    C7    A    
C12   C24   S    
C28   H11   S    
C22   H18   S    
C2    C30   A    
O5    S2    D    
C2    C3    A    
C11   C13   A    
C27   H5    S    
C23   C25   S    
C19   C25   S    
C24   H2    S    
C10   C11   A    
Cu1   O17   S    
C20   C21   S    
C27   C28   A    
C7    C30   A    
C13   C14   A    
O7    S3    D    
