data_mof_unit_45731.cif
_audit_creation_date              2012-12-10T18:57:52-0500
_audit_creation_method            fapswitch 2.2
_symmetry_space_group_name_H-M    P1
_symmetry_Int_Tables_number       1
_space_group_crystal_system       triclinic
_cell_length_a                    10.819251
_cell_length_b                    9.928936
_cell_length_c                    8.892195
_cell_angle_alpha                 89.786263
_cell_angle_beta                  91.831021
_cell_angle_gamma                 88.84337
_cell_volume                      954.540635993

loop_
_atom_site_label
_atom_site_type_symbol
_atom_type_description
_atom_site_fract_x
_atom_site_fract_y
_atom_site_fract_z
_atom_type_partial_charge
C1    C     C_R   0.260153 0.501449 0.508226 0.865350
C2    C     C_R   0.739152 0.498533 0.487559 0.905165
C3    C     C_R   0.499578 0.500168 0.218917 0.909027
C4    C     C_R   0.500348 0.499839 0.781078 0.955937
C5    C     C_1   0.499822 0.500240 0.065470 -0.165780
C6    C     C_1   0.500106 0.499778 0.934527 -0.173644
C7    C     C_R   0.065081 0.381240 0.534775 -0.047169
C8    C     C_R   0.932771 0.617721 0.447399 -0.041121
C9    C     C_R   0.940006 0.374799 0.499734 -0.071246
C10   C     C_R   0.058640 0.624166 0.478648 -0.063159
C11   C     C_R   0.871926 0.495606 0.471671 -0.164855
C12   C     C_R   0.126418 0.503924 0.513622 -0.141840
C13   C     C_R   0.557121 0.069627 0.615323 -0.015330
C14   C     C_R   0.441358 0.929884 0.385537 -0.009441
C15   C     C_R   0.440514 0.073954 0.386757 0.001375
C16   C     C_R   0.558091 0.926171 0.614123 -0.021055
N1    N     N_R   0.500000 0.857200 0.500000 -0.140217
N2    N     N_R   0.500000 0.142800 0.500000 -0.130932
O1    O     O_R   0.316770 0.614620 0.499990 -0.654534
O2    O     O_R   0.683230 0.385380 0.500010 -0.580073
O3    O     O_R   0.683230 0.614620 0.500010 -0.571913
O4    O     O_R   0.316770 0.385380 0.499990 -0.587278
O5    O     O_R   0.500010 0.614640 0.285340 -0.635823
O6    O     O_R   0.499990 0.385360 0.714660 -0.605910
O7    O     O_R   0.499990 0.614640 0.714660 -0.621161
O8    O     O_R   0.500010 0.385360 0.285340 -0.649143
Zn1   Zn    Zn3+2 0.500000 0.653120 0.500000 0.987747
Zn2   Zn    Zn3+2 0.500000 0.346880 0.500000 1.007434
C17   C     C_1   0.126957 0.262500 0.601358 0.289674
N3    N     N_1   0.175770 0.168168 0.654514 -0.159150
C18   C     C_1   0.868556 0.735766 0.382411 0.279058
N4    N     N_1   0.817767 0.829462 0.330535 -0.159311
C19   C     C_1   0.886213 0.242271 0.482897 0.319431
N5    N     N_1   0.844666 0.136402 0.468319 -0.142609
C20   C     C_1   0.113021 0.757000 0.484677 0.226775
N6    N     N_1   0.154455 0.863483 0.490782 -0.178491
C21   C     C_2   0.615679 0.137383 0.746146 0.488018
H1    H     H_    0.589603 0.110219 0.858972 0.015366
O9    O     O_2   0.698298 0.217248 0.730712 -0.539196
C22   C     C_2   0.375929 0.858021 0.262126 0.459339
H2    H     H_    0.322583 0.770165 0.285687 0.117853
O10   O     O_2   0.382207 0.895263 0.131612 -0.618734
C23   C     C_2   0.369028 0.149714 0.269861 0.566503
H3    H     H_    0.410422 0.171701 0.163206 0.065419
O11   O     O_2   0.261611 0.182832 0.289629 -0.570851
C24   C     C_2   0.624988 0.851831 0.736200 0.480278
H4    H     H_    0.587104 0.849056 0.847682 0.059912
O12   O     O_2   0.725771 0.799329 0.715120 -0.539694

loop_
_geom_bond_atom_site_label_1
_geom_bond_atom_site_label_2
_ccdc_geom_bond_type
C15   N2    A    
C23   H3    S    
C10   C20   S    
C7    C17   S    
O5    Zn1   S    
O7    Zn1   S    
O1    Zn1   S    
C3    O5    A    
C20   N6    T    
C2    O3    A    
C22   O10   D    
C19   N5    T    
O3    Zn1   S    
C15   C23   S    
C1    O4    A    
C21   O9    D    
O4    Zn2   S    
C9    C19   S    
C23   O11   D    
C14   N1    A    
C17   N3    T    
C1    C12   S    
C10   C12   A    
C13   N2    A    
C8    C11   A    
C5    C6    T    
C2    C11   S    
C8    C10   A    
C22   H2    S    
C21   H1    S    
C4    O7    A    
C9    C11   A    
C7    C12   A    
C4    O6    A    
C18   N4    T    
C24   O12   D    
C1    O1    A    
C14   C22   S    
N1    Zn1   S    
N2    Zn2   S    
C4    C6    S    
C13   C16   A    
C16   C24   S    
C7    C9    A    
C2    O2    A    
C14   C15   A    
C13   C21   S    
O2    Zn2   S    
C24   H4    S    
C8    C18   S    
O8    Zn2   S    
C3    O8    A    
O6    Zn2   S    
C16   N1    A    
C3    C5    S    
