data_mof_unit_53104.cif
_audit_creation_date              2012-12-11T16:35:18-0500
_audit_creation_method            fapswitch 2.2
_symmetry_space_group_name_H-M    P1
_symmetry_Int_Tables_number       1
_space_group_crystal_system       triclinic
_cell_length_a                    6.927411
_cell_length_b                    17.54544
_cell_length_c                    19.652623
_cell_angle_alpha                 109.010454
_cell_angle_beta                  90.306042
_cell_angle_gamma                 90.535418
_cell_volume                      2258.20034142

loop_
_atom_site_label
_atom_site_type_symbol
_atom_type_description
_atom_site_fract_x
_atom_site_fract_y
_atom_site_fract_z
_atom_type_partial_charge
O1    O     O_R   0.505700 0.440210 0.561730 -0.514406
O2    O     O_R   0.169350 0.406300 0.412660 -0.545287
O3    O     O_R   0.005650 0.559790 0.438270 -0.531732
C1    C     C_R   0.338253 0.383361 0.384739 0.676375
O4    O     O_R   0.175560 0.430650 0.559600 -0.544856
O5    O     O_R   0.011900 0.584320 0.586250 -0.533852
C2    C     C_R   0.344708 0.414537 0.580251 0.713213
O6    O     O_R   0.499450 0.415680 0.413750 -0.545359
O7    O     O_3   0.341370 0.550390 0.508570 -0.359488
V1    V     V_3+5 0.063940 0.490650 0.498410 1.462071
O8    O     O_R   0.682570 0.593700 0.587340 -0.533617
C3    C     C_R   0.852852 0.618983 0.613546 0.721079
O9    O     O_R   0.676370 0.569350 0.440400 -0.539259
C4    C     C_R   0.844253 0.580706 0.415882 0.759144
V2    V     V_3+5 0.564750 0.509350 0.501590 1.479226
O10   O     O_3   0.837190 0.449610 0.491430 -0.367082
C5    C     C_R   0.036676 0.674972 0.280292 -0.145527
H1    H     H_    0.169834 0.673863 0.251444 0.098074
C6    C     C_R   0.025091 0.629695 0.327145 -0.116295
H2    H     H_    0.150336 0.596113 0.333636 0.110875
C7    C     C_R   0.854176 0.627449 0.364826 -0.009974
C8    C     C_R   0.694483 0.671096 0.353885 -0.130575
H3    H     H_    0.560709 0.670997 0.382135 0.146799
C9    C     C_R   0.706735 0.717173 0.307681 -0.153365
H4    H     H_    0.582310 0.751813 0.302556 0.107041
C10   C     C_R   0.878187 0.719998 0.270189 0.084885
C11   C     C_R   0.729097 0.780523 0.182014 -0.147397
H5    H     H_    0.592435 0.751645 0.185429 0.099143
C12   C     C_R   0.740864 0.827770 0.136854 -0.167164
H6    H     H_    0.612523 0.834564 0.107725 0.119852
C13   C     C_R   0.916204 0.864712 0.128546 -0.047600
C14   C     C_R   0.079417 0.853515 0.166903 -0.167616
H7    H     H_    0.216332 0.881680 0.162300 0.113420
C15   C     C_R   0.067078 0.807154 0.212911 -0.142823
H8    H     H_    0.194821 0.801876 0.242936 0.101471
C16   C     C_R   0.891726 0.769706 0.221091 0.096639
H9    H     H_    0.570035 0.654645 0.920262 0.113664
C17   C     C_R   0.110175 0.891653 0.758117 -0.143654
C18   C     C_R   0.197861 0.900348 0.698000 -0.163499
C19   C     C_R   0.158364 0.845476 0.630968 -0.124885
C20   C     C_R   0.032261 0.780111 0.623113 -0.065057
C21   C     C_R   0.963402 0.762700 0.685198 -0.016385
C22   C     C_R   0.995028 0.822892 0.753737 0.082774
C23   C     C_R   0.864595 0.689099 0.681662 -0.208575
C24   C     C_R   0.786393 0.680120 0.745531 0.078848
C25   C     C_R   0.804323 0.743790 0.812292 0.073528
C26   C     C_R   0.907564 0.815172 0.816246 -0.181539
C27   C     C_R   0.692567 0.607544 0.744756 -0.148083
C28   C     C_R   0.614066 0.599123 0.807029 -0.125635
C29   C     C_R   0.629625 0.661722 0.871827 -0.120689
C30   C     C_R   0.724962 0.732963 0.874888 -0.134674
H10   H     H_    0.135552 0.940200 0.807706 0.124224
H11   H     H_    0.288351 0.952608 0.702996 0.128834
H12   H     H_    0.215387 0.857767 0.584284 0.144430
H13   H     H_    0.679564 0.555879 0.696515 0.119536
H14   H     H_    0.542233 0.543344 0.805038 0.119731
H15   H     H_    0.738417 0.778594 0.927236 0.106310
H16   H     H_    0.542128 0.487534 0.193057 0.114730
C31   C     C_R   0.264616 0.216717 0.374825 -0.149026
C32   C     C_R   0.234513 0.137395 0.372843 -0.136743
C33   C     C_R   0.263174 0.074056 0.309447 -0.115479
C34   C     C_R   0.323621 0.089494 0.247644 -0.136391
C35   C     C_R   0.354993 0.169400 0.247806 0.071410
C36   C     C_R   0.322955 0.234487 0.312783 0.074416
C37   C     C_R   0.420725 0.184681 0.185012 -0.189016
C38   C     C_R   0.454274 0.265519 0.187738 0.067537
C39   C     C_R   0.420393 0.330638 0.252557 0.073414
C40   C     C_R   0.353446 0.315363 0.315202 -0.187051
C41   C     C_R   0.518475 0.283269 0.126297 -0.138648
C42   C     C_R   0.550463 0.362621 0.128629 -0.114988
C43   C     C_R   0.517836 0.425984 0.191658 -0.128439
C44   C     C_R   0.452760 0.410557 0.252897 -0.147632
H17   H     H_    0.242983 0.263832 0.425618 0.093791
H18   H     H_    0.189438 0.125037 0.420906 0.112515
H19   H     H_    0.240136 0.012514 0.308265 0.118244
H20   H     H_    0.347619 0.038019 0.200115 0.098858
H21   H     H_    0.544696 0.236199 0.075818 0.102787
H22   H     H_    0.600160 0.375013 0.081117 0.114857
H23   H     H_    0.426818 0.462064 0.300213 0.094382
C45   C     C_R   0.530086 0.272432 0.676664 -0.239553
H24   H     H_    0.657605 0.237106 0.676325 0.116941
C46   C     C_R   0.518825 0.316220 0.628193 0.414459
C47   C     C_R   0.355305 0.363776 0.627919 -0.150680
C48   C     C_R   0.201531 0.362678 0.673992 -0.212896
H25   H     H_    0.073668 0.397970 0.674602 0.159722
C49   C     C_R   0.212531 0.317809 0.721210 -0.147880
H26   H     H_    0.092847 0.320080 0.756987 0.117350
C50   C     C_R   0.377652 0.272553 0.723655 0.031747
C51   C     C_R   0.226669 0.185927 0.789889 -0.147952
H27   H     H_    0.088793 0.188869 0.764715 0.103429
C52   C     C_R   0.238918 0.140895 0.836871 -0.170252
H28   H     H_    0.109458 0.111262 0.846880 0.120410
C53   C     C_R   0.415786 0.133260 0.869594 -0.054058
C54   C     C_R   0.580108 0.172122 0.854099 -0.170512
H29   H     H_    0.718506 0.167865 0.878422 0.121476
C55   C     C_R   0.567596 0.217620 0.807372 -0.143907
H30   H     H_    0.696567 0.247785 0.797760 0.102212
C56   C     C_R   0.390703 0.225044 0.774422 0.115755
O11   O     O_R   0.273230 0.084330 0.086440 -0.533659
O12   O     O_R   0.596660 0.069390 0.940470 -0.543913
O13   O     O_R   0.760270 0.915710 0.913690 -0.535528
C57   C     C_R   0.427475 0.084433 0.918899 0.681091
O14   O     O_R   0.603330 0.093680 0.087390 -0.536721
O15   O     O_R   0.766990 0.940160 0.061660 -0.542501
C58   C     C_R   0.434670 0.116726 0.115360 0.700288
O16   O     O_R   0.266510 0.059870 0.938470 -0.543283
O17   O     O_3   0.431050 0.949630 0.991510 -0.368866
V3    V     V_3+5 0.708490 0.009340 0.001580 1.410883
O18   O     O_R   0.096270 0.930570 0.059390 -0.543698
C59   C     C_R   0.927430 0.915102 0.080672 0.685943
O19   O     O_R   0.089600 0.906290 0.912460 -0.541581
C60   C     C_R   0.919859 0.883000 0.885270 0.690960
V4    V     V_3+5 0.207670 0.990600 0.998190 1.410347
O20   O     O_3   0.935250 0.050360 0.008480 -0.365990
C61   C     C_2   0.953475 0.742575 0.549810 0.740177
O21   O     O_2   0.063207 0.726018 0.498806 -0.541498
O22   O     O_R   0.754340 0.733724 0.537099 -0.653960
H31   H     H_    0.675388 0.756589 0.582312 0.257958
O23   O     O_3   0.669856 0.313725 0.581814 -0.549151
C62   C     C_3   0.664076 0.238850 0.525797 0.071553
H32   H     H_    0.515526 0.222970 0.503060 0.102062
H33   H     H_    0.717404 0.190267 0.545706 0.120038
C63   C     C_3   0.794449 0.243454 0.465295 -0.642422
H34   H     H_    0.799478 0.183681 0.422586 0.170073
H35   H     H_    0.738069 0.288260 0.441503 0.226277
H36   H     H_    0.942524 0.261603 0.486597 0.210544

loop_
_geom_bond_atom_site_label_1
_geom_bond_atom_site_label_2
_ccdc_geom_bond_type
C27   H13   S    
C2    C47   S    
C35   C37   A    
C53   C54   A    
C11   C12   A    
C20   C21   A    
C41   H21   S    
O19   C60   A    
C1    O6    A    
C63   H34   S    
O19   V4    S    
C24   C25   A    
C33   H19   S    
O13   C60   A    
C31   C36   A    
C34   C35   A    
C5    C10   A    
C36   C40   A    
C4    C7    S    
C7    C8    A    
C6    C7    A    
C48   C49   A    
C39   C44   A    
C44   H23   S    
C41   C42   A    
O5    C3    A    
C17   C18   A    
C49   C50   A    
H16   C43   S    
C63   H35   S    
C38   C41   A    
C42   H22   S    
C26   C60   S    
C15   H8    S    
V3    O20   S    
C28   C29   A    
O17   V4    S    
O8    V2    S    
C13   C14   A    
C61   O22   S    
C55   C56   A    
O17   V3    S    
C42   C43   A    
C30   H15   S    
C51   C52   A    
O7    V1    S    
C31   H17   S    
C62   C63   S    
O18   V4    S    
O13   V3    S    
C38   C39   A    
C31   C32   A    
O9    C4    A    
C34   H20   S    
C54   H29   S    
C21   C23   A    
C46   O23   S    
C20   C61   S    
C37   C58   S    
C62   H33   S    
C29   C30   A    
C8    H3    S    
O11   C58   A    
O12   V3    S    
V2    O10   S    
O16   V4    S    
C39   C40   A    
C9    H4    S    
C45   C46   A    
C52   H28   S    
C1    C40   S    
C49   H26   S    
C63   H36   S    
C25   C30   A    
C32   C33   A    
C14   C15   A    
O2    C1    A    
O5    V1    S    
C12   H6    S    
C52   C53   A    
C47   C48   A    
O23   C62   S    
C55   H30   S    
O12   C57   A    
C5    H1    S    
O14   C58   A    
C48   H25   S    
C54   C55   A    
O14   V3    S    
O3    C4    A    
O1    V2    S    
C10   C16   S    
C19   C20   A    
C37   C38   A    
O6    V2    S    
C19   H12   S    
O9    V2    S    
C8    C9    A    
C21   C22   A    
O2    V1    S    
O15   V3    S    
C23   C24   A    
O4    C2    A    
V4    O20   S    
C24   C27   A    
C25   C26   A    
C27   C28   A    
O1    C2    A    
C9    C10   A    
C45   H24   S    
C53   C57   S    
O11   V4    S    
O8    C3    A    
C11   C16   A    
C28   H14   S    
C51   C56   A    
C14   H7    S    
C6    H2    S    
O7    V2    S    
C17   C22   A    
C45   C50   A    
O3    V1    S    
V1    O10   S    
O22   H31   S    
O15   C59   A    
H9    C29   S    
C18   H11   S    
C32   H18   S    
C5    C6    A    
C13   C59   S    
C57   O16   A    
C15   C16   A    
C33   C34   A    
C35   C36   A    
C18   C19   A    
O4    V1    S    
C17   H10   S    
C12   C13   A    
C46   C47   A    
C11   H5    S    
C62   H32   S    
C3    C23   S    
C43   C44   A    
C51   H27   S    
O18   C59   A    
C22   C26   A    
C50   C56   S    
C61   O21   D    
