data_mof_unit_10585.cif
_audit_creation_date              2012-12-11T14:50:42-0500
_audit_creation_method            fapswitch 2.2
_symmetry_space_group_name_H-M    P1
_symmetry_Int_Tables_number       1
_space_group_crystal_system       triclinic
_cell_length_a                    20.807566
_cell_length_b                    7.406187
_cell_length_c                    20.092506
_cell_angle_alpha                 90.007226
_cell_angle_beta                  102.085663
_cell_angle_gamma                 90.006312
_cell_volume                      3027.72149324

loop_
_atom_site_label
_atom_site_type_symbol
_atom_type_description
_atom_site_fract_x
_atom_site_fract_y
_atom_site_fract_z
_atom_type_partial_charge
O1    O     O_R   0.423690 0.494470 0.435930 -0.533875
O2    O     O_R   0.576310 0.994470 0.564070 -0.533832
O3    O     O_R   0.556070 0.822310 0.435760 -0.520596
O4    O     O_R   0.443930 0.322310 0.564240 -0.520479
C1    C     C_R   0.575038 0.656662 0.421421 0.694817
C2    C     C_R   0.424960 0.156664 0.578578 0.694446
O5    O     O_R   0.422940 0.824080 0.428040 -0.534451
O6    O     O_R   0.577060 0.324080 0.571960 -0.534228
O7    O     O_R   0.442240 0.995960 0.556300 -0.528700
O8    O     O_R   0.557760 0.495960 0.443700 -0.528475
C3    C     C_R   0.399079 0.655544 0.411677 0.757231
C4    C     C_R   0.600905 0.155579 0.588344 0.757588
O9    O     O_3   0.506490 0.661310 0.542090 -0.377322
O10   O     O_3   0.493510 0.161310 0.457910 -0.377312
V1    V     V_3+5 0.498800 0.935560 0.492190 1.569833
V2    V     V_3+5 0.501200 0.435560 0.507810 1.570306
C5    C     C_R   0.835394 0.091793 0.861837 -0.142748
C6    C     C_R   0.164624 0.592018 0.138142 -0.142831
C7    C     C_R   0.664221 0.142233 0.638850 -0.132757
C8    C     C_R   0.335756 0.642009 0.361178 -0.132756
C9    C     C_R   0.776428 0.024802 0.673620 0.335958
C10   C     C_R   0.223865 0.522394 0.326166 0.335983
C11   C     C_R   0.720153 0.059745 0.621819 -0.119763
C12   C     C_R   0.280048 0.557766 0.378029 -0.119476
C13   C     C_R   0.666239 0.193713 0.706367 -0.171446
C14   C     C_R   0.333557 0.694974 0.293791 -0.171173
C15   C     C_R   0.722064 0.160191 0.758608 0.033556
C16   C     C_R   0.277802 0.661138 0.241494 0.033638
C17   C     C_R   0.777461 0.073529 0.742139 0.036629
C18   C     C_R   0.222664 0.572603 0.257768 0.036786
C19   C     C_R   0.833243 0.039781 0.794363 -0.172815
C20   C     C_R   0.166954 0.538537 0.205485 -0.172489
C21   C     C_R   0.779587 0.175112 0.878898 -0.092630
C22   C     C_R   0.220201 0.677100 0.121268 -0.091870
C23   C     C_R   0.723198 0.209413 0.827112 0.336155
C24   C     C_R   0.276498 0.711836 0.173112 0.336243
H1    H     H_    0.876823 0.977984 0.783015 0.194077
H2    H     H_    0.123550 0.475391 0.216705 0.194144
H3    H     H_    0.622600 0.255188 0.717701 0.185706
H4    H     H_    0.377018 0.757808 0.282582 0.185882
C25   C     C_3   0.264122 0.229420 0.826317 0.201866
C26   C     C_3   0.735881 0.729375 0.173687 0.201962
C27   C     C_3   0.240028 0.904986 0.781786 -0.265231
C28   C     C_3   0.759976 0.404983 0.218213 -0.265075
C29   C     C_3   0.288301 0.928450 0.726618 0.180264
C30   C     C_3   0.711696 0.428451 0.273375 0.180144
C31   C     C_1   0.379416 0.153721 0.623965 -0.046733
C32   C     C_1   0.620579 0.653717 0.376032 -0.046748
C33   C     C_3   0.206237 0.096337 0.791090 -0.173830
C34   C     C_3   0.793766 0.596351 0.208915 -0.173875
C35   C     C_3   0.316324 0.247186 0.777343 0.130104
C36   C     C_3   0.683677 0.747144 0.222658 0.130171
C37   C     C_3   0.291911 0.135654 0.707287 -0.121158
C38   C     C_3   0.708086 0.635664 0.292711 -0.121131
C39   C     C_3   0.219996 0.203182 0.667615 0.058515
C40   C     C_3   0.779999 0.703264 0.332390 0.058875
C41   C     C_3   0.166963 0.168136 0.715878 -0.166935
C42   C     C_3   0.833035 0.668225 0.284129 -0.166907
C43   C     C_1   0.340643 0.151813 0.661474 0.110733
C44   C     C_1   0.659351 0.651815 0.338522 0.110776
C45   C     C_1   0.158581 0.082747 0.838138 0.034717
C46   C     C_1   0.841425 0.582761 0.161869 0.034822
C47   C     C_1   0.120439 0.081349 0.876286 -0.017624
C48   C     C_1   0.879566 0.581359 0.123720 -0.017711
O11   O     O_R   0.942280 0.741210 0.056360 -0.512068
O12   O     O_R   0.057720 0.241210 0.943640 -0.512289
O13   O     O_R   0.077070 0.409690 0.071960 -0.535367
O14   O     O_R   0.922930 0.909690 0.928040 -0.535189
C49   C     C_R   0.101189 0.578437 0.087871 0.768320
C50   C     C_R   0.898827 0.078402 0.912108 0.768786
O15   O     O_R   0.943940 0.411580 0.064250 -0.533384
O16   O     O_R   0.056060 0.911580 0.935750 -0.533327
O17   O     O_R   0.923670 0.239840 0.935920 -0.535057
O18   O     O_R   0.076330 0.739840 0.064080 -0.535149
C51   C     C_R   0.924870 0.578756 0.078170 0.690606
C52   C     C_R   0.075132 0.078753 0.921832 0.690276
O19   O     O_3   0.993540 0.572620 0.957940 -0.376591
O20   O     O_3   0.006460 0.072620 0.042060 -0.376542
V3    V     V_3+5 0.001200 0.298330 0.007800 1.576227
V4    V     V_3+5 0.998800 0.798330 0.992200 1.576574
C53   C     C_2   0.272722 0.829877 0.852052 0.628359
H5    H     H_    0.241878 0.804662 0.888617 0.032927
O21   O     O_2   0.331035 0.796986 0.870763 -0.384353
C54   C     C_2   0.727290 0.329804 0.147945 0.628468
H6    H     H_    0.758138 0.304581 0.111384 0.031984
O22   O     O_2   0.668977 0.296864 0.129226 -0.384467
Cl1   Cl    Cl    0.372577 0.849816 0.756125 -0.518753
Cl2   Cl    Cl    0.627420 0.349755 0.243854 -0.518721
C55   C     C_2   0.271590 0.817780 0.660632 0.688221
H7    H     H_    0.310634 0.779115 0.634968 0.128009
O23   O     O_2   0.215919 0.781870 0.631096 -0.506884
C56   C     C_2   0.728397 0.317822 0.339358 0.688229
H8    H     H_    0.689345 0.279126 0.365009 0.128288
O24   O     O_2   0.784064 0.281978 0.368907 -0.506925
C57   C     C_2   0.121665 0.331372 0.717553 0.660659
H9    H     H_    0.097886 0.394775 0.670187 0.027114
O25   O     O_2   0.102258 0.377228 0.768266 -0.473759
C58   C     C_2   0.878332 0.831490 0.282459 0.660723
H10   H     H_    0.902106 0.894947 0.329827 0.027098
O26   O     O_2   0.897745 0.877319 0.231749 -0.473706
C59   C     C_2   0.113956 0.030445 0.683715 0.364770
H11   H     H_    0.118319 0.945507 0.641443 0.199255
O27   O     O_2   0.064853 0.006455 0.707211 -0.497926
C60   C     C_2   0.886041 0.530588 0.316294 0.364521
H12   H     H_    0.881668 0.445648 0.358555 0.199281
O28   O     O_2   0.935151 0.506632 0.292807 -0.498043
C61   C     C_2   0.221313 0.392972 0.639856 0.710350
H13   H     H_    0.176671 0.470206 0.625953 0.086440
O29   O     O_2   0.268073 0.447395 0.617548 -0.487460
C62   C     C_2   0.778677 0.893071 0.360155 0.709611
H14   H     H_    0.823316 0.970355 0.374053 0.086535
O30   O     O_2   0.731919 0.947462 0.382473 -0.487961
Cl3   Cl    Cl    0.228356 0.435531 0.846548 -0.523029
Cl4   Cl    Cl    0.771649 0.935494 0.153462 -0.523001
Cl5   Cl    Cl    0.325949 0.475526 0.758970 -0.499424
Cl6   Cl    Cl    0.674054 0.975488 0.241038 -0.499444
Cl7   Cl    Cl    0.194873 0.113235 0.581898 -0.623206
Cl8   Cl    Cl    0.805119 0.613379 0.418105 -0.623303
C63   C     C_2   0.779046 0.225727 0.950678 0.451700
H15   H     H_    0.747907 0.334346 0.961650 0.109974
O31   O     O_2   0.812145 0.143935 0.998608 -0.516930
C64   C     C_2   0.220598 0.729078 0.049603 0.452282
H16   H     H_    0.251173 0.839336 0.038860 0.108681
O32   O     O_2   0.188022 0.646604 0.001525 -0.516960
Cl9   Cl    Cl    0.846531 0.923613 0.651741 -0.568857
Cl10  Cl    Cl    0.154090 0.418710 0.347824 -0.569197
Cl11  Cl    Cl    0.653136 0.310952 0.848939 -0.560126
Cl12  Cl    Cl    0.346233 0.815817 0.151492 -0.560582
C65   C     C_2   0.720940 0.011364 0.549953 0.494936
H17   H     H_    0.751923 0.902807 0.538609 0.148099
O33   O     O_2   0.688198 0.095235 0.502386 -0.507835
C66   C     C_2   0.279391 0.508052 0.449793 0.495153
H18   H     H_    0.248811 0.398262 0.460924 0.147478
O34   O     O_2   0.311780 0.592182 0.497514 -0.507361
C67   C     C_2   0.388737 0.206213 0.809281 0.684877
H19   H     H_    0.426701 0.252979 0.783496 0.088189
O35   O     O_2   0.406756 0.115628 0.860493 -0.430139
C68   C     C_2   0.611265 0.706118 0.190716 0.684729
H20   H     H_    0.573299 0.752876 0.216500 0.088124
O36   O     O_2   0.593246 0.615500 0.139500 -0.430235
C69   C     C_2   0.294584 0.185318 0.900983 0.674440
H21   H     H_    0.271635 0.090214 0.929619 -0.054835
O37   O     O_2   0.339132 0.277121 0.933732 -0.408961
C70   C     C_2   0.705424 0.685207 0.099019 0.674416
H22   H     H_    0.728372 0.590094 0.070385 -0.055000
O38   O     O_2   0.660879 0.776968 0.066268 -0.409091
C71   C     C_2   0.185483 0.768105 0.762284 0.504746
H23   H     H_    0.141049 0.776095 0.782317 0.107451
O39   O     O_2   0.192192 0.634903 0.730328 -0.512351
C72   C     C_2   0.814521 0.268152 0.237722 0.504827
H24   H     H_    0.858956 0.276154 0.217689 0.107445
O40   O     O_2   0.807814 0.134977 0.269682 -0.512337

loop_
_geom_bond_atom_site_label_1
_geom_bond_atom_site_label_2
_ccdc_geom_bond_type
O14   V4    S    
O15   C51   A    
C59   H11   S    
C15   C17   A    
C57   H9    S    
O1    C3    A    
O16   C52   A    
O2    C4    A    
C2    O7    A    
C60   O28   D    
C53   H5    S    
C37   C43   S    
C67   H19   S    
C38   C44   S    
O5    C3    A    
O12   V3    S    
C29   Cl1   S    
C54   O22   D    
C69   O37   D    
O20   V4    S    
C10   Cl10  S    
C30   C56   S    
C47   C52   S    
O16   V4    S    
C33   C41   S    
C11   C65   S    
C35   Cl5   S    
C25   C33   S    
C45   C47   T    
C62   H14   S    
C46   C48   T    
C71   H23   S    
C35   C67   S    
C26   Cl4   S    
C8    C12   A    
C28   C30   S    
C66   H18   S    
C42   C58   S    
C36   C68   S    
C61   H13   S    
C20   H2    S    
C55   O23   D    
C29   C55   S    
C22   C24   A    
C6    C49   S    
C37   C39   S    
C29   C37   S    
C5    C50   S    
O6    V2    S    
O11   V4    S    
O18   V4    S    
C61   O29   D    
C24   Cl12  S    
C5    C21   A    
C40   C62   S    
C60   H12   S    
C53   O21   D    
C36   C38   S    
C32   C44   T    
C30   Cl2   S    
C36   Cl6   S    
C1    C32   S    
C38   C40   S    
C3    C8    S    
C33   C45   S    
C2    C31   S    
C34   C42   S    
O13   V3    S    
C54   H6    S    
C70   O38   D    
O20   V3    S    
C27   C33   S    
C15   C23   A    
C9    C17   A    
C28   C72   S    
O15   V3    S    
C19   H1    S    
C39   C61   S    
O13   C49   A    
O4    V2    S    
C7    C11   A    
C25   C69   S    
C6    C22   A    
C12   C66   S    
O6    C4    A    
O12   C52   A    
C30   C38   S    
C50   O17   A    
C56   O24   D    
O17   V3    S    
O19   V3    S    
C49   O18   A    
O1    V2    S    
C23   Cl11  S    
O2    V1    S    
C27   C29   S    
C63   O31   D    
C68   O36   D    
C26   C34   S    
C66   O34   D    
O4    C2    A    
C21   C63   S    
C58   O26   D    
C39   C41   S    
C26   C70   S    
C5    C19   A    
C10   C12   A    
C42   C60   S    
C9    Cl9   S    
C55   H7    S    
O3    V1    S    
C65   H17   S    
C39   Cl7   S    
O19   V4    S    
C28   C34   S    
C67   O35   D    
C10   C18   A    
C27   C53   S    
C71   O39   D    
O10   V1    S    
C40   Cl8   S    
C25   Cl3   S    
C70   H22   S    
O3    C1    A    
C63   H15   S    
C57   O25   D    
C13   C15   A    
C41   C59   S    
C14   C16   A    
O11   C51   A    
C59   O27   D    
C28   C54   S    
C9    C11   A    
O7    V1    S    
C16   C18   A    
C17   C19   A    
O8    V2    S    
C69   H21   S    
C13   H3    S    
C18   C20   A    
C14   H4    S    
C8    C14   A    
C34   C46   S    
C4    C7    S    
O5    V1    S    
C56   H8    S    
C21   C23   A    
C48   C51   S    
C40   C42   S    
C72   O40   D    
C7    C13   A    
C62   O30   D    
C27   C71   S    
C68   H20   S    
C31   C43   T    
C1    O8    A    
C6    C20   A    
C16   C24   A    
C22   C64   S    
C58   H10   S    
C41   C57   S    
O9    V2    S    
O14   C50   A    
C72   H24   S    
C35   C37   S    
C64   H16   S    
C64   O32   D    
C25   C35   S    
C26   C36   S    
C65   O33   D    
