data_mof_unit_51781.cif
_audit_creation_date              2012-10-26T19:20:36-0400
_audit_creation_method            fapswitch 2.2
_symmetry_space_group_name_H-M    P1
_symmetry_Int_Tables_number       1
_space_group_crystal_system       triclinic
_cell_length_a                    10.842981
_cell_length_b                    11.090758
_cell_length_c                    9.783125
_cell_angle_alpha                 112.193773
_cell_angle_beta                  96.470215
_cell_angle_gamma                 90.850493
_cell_volume                      1080.27624476

loop_
_atom_site_label
_atom_site_type_symbol
_atom_type_description
_atom_site_fract_x
_atom_site_fract_y
_atom_site_fract_z
_atom_type_partial_charge
C1    C     C_R   0.490072 0.253248 0.439123 0.559944
C2    C     C_R   0.737096 0.494798 0.494953 0.594297
C3    C     C_R   0.135251 0.605845 0.782930 0.253174
C4    C     C_R   0.847559 0.278253 0.258376 0.227350
C5    C     C_R   0.088308 0.713778 0.887589 -0.030045
C6    C     C_R   0.903257 0.193877 0.137537 -0.101627
C7    C     C_R   0.974594 0.759707 0.851895 0.209650
C8    C     C_R   0.031991 0.199417 0.139053 0.218117
C9    C     C_R   0.905756 0.691447 0.713774 -0.048119
C10   C     C_R   0.105289 0.285718 0.264397 -0.051218
C11   C     C_R   0.949583 0.577756 0.609623 -0.083845
C12   C     C_R   0.509647 0.746755 0.560914 0.535816
C13   C     C_R   0.052619 0.381147 0.381360 -0.078310
C14   C     C_R   0.073483 0.549956 0.633989 -0.015931
C15   C     C_R   0.921271 0.382431 0.375358 0.038634
C16   C     C_R   0.870662 0.487369 0.487560 -0.000938
C17   C     C_R   0.128853 0.469691 0.508518 -0.036706
C18   C     C_2   0.483725 0.111720 0.402382 0.204163
C19   C     C_2   0.516066 0.888310 0.597650 0.198854
C20   C     C_2   0.501625 0.069533 0.513988 -0.056141
C21   C     C_2   0.496537 0.930531 0.486192 -0.055648
C22   C     C_2   0.511863 0.508876 0.081018 0.012521
C23   C     C_2   0.494798 0.484910 0.917688 0.035270
C24   C     C_R   0.262370 0.490497 0.502221 0.537316
Cu1   Cu    Cu3+1 0.521920 0.521810 0.644910 0.995561
Cu2   Cu    Cu3+1 0.478080 0.478190 0.355090 0.990291
H1    H     H_    0.136962 0.756691 0.999609 0.148112
H2    H     H_    0.378852 0.376322 0.065234 0.223289
H3    H     H_    0.025307 0.070733 0.937604 0.352993
H4    H     H_    0.979970 0.895891 0.048651 0.338560
H5    H     H_    0.214288 0.449216 0.774558 0.321175
H6    H     H_    0.688608 0.176671 0.178337 0.332029
H7    H     H_    0.555210 0.930540 0.811008 0.353692
H8    H     H_    0.448346 0.069453 0.188653 0.353863
H9    H     H_    0.846478 0.119794 0.044772 0.142867
H10   H     H_    0.815959 0.726019 0.690746 0.157743
H11   H     H_    0.204119 0.274060 0.268675 0.172318
H12   H     H_    0.476383 0.861239 0.371800 0.176583
H13   H     H_    0.520491 0.138850 0.628504 0.170604
H14   H     H_    0.429307 0.406670 0.843279 0.154731
H15   H     H_    0.582650 0.581795 0.154376 0.144927
H16   H     H_    0.615869 0.628928 0.936026 0.217195
N1    N     N_2   0.445130 0.445420 0.137360 -0.338267
N2    N     N_2   0.554870 0.554580 0.862640 -0.334465
O1    O     O_R   0.511700 0.332340 0.577400 -0.531981
O2    O     O_3   0.922730 0.862530 0.954041 -0.719354
O3    O     O_3   0.224750 0.543655 0.838223 -0.681844
O4    O     O_3   0.724364 0.253272 0.267191 -0.667472
O5    O     O_3   0.541798 0.977698 0.743079 -0.720407
O6    O     O_3   0.459935 0.022314 0.256769 -0.714358
O7    O     O_R   0.488300 0.667660 0.422600 -0.524737
O8    O     O_R   0.474680 0.295500 0.332650 -0.482162
O9    O     O_R   0.525320 0.704500 0.667350 -0.492655
O10   O     O_R   0.338170 0.518410 0.622370 -0.460439
O11   O     O_R   0.661830 0.481590 0.377630 -0.451488
O12   O     O_R   0.301150 0.481570 0.377630 -0.499449
O13   O     O_R   0.698850 0.518430 0.622370 -0.500773
O14   O     O_3   0.089594 0.117544 0.022918 -0.693258

loop_
_geom_bond_atom_site_label_1
_geom_bond_atom_site_label_2
_ccdc_geom_bond_type
C9    H10   S    
H16   N2    S    
C7    C9    A    
Cu2   O8    S    
C24   O12   A    
C2    C16   S    
C11   C16   A    
C19   O5    S    
H2    N1    S    
C12   O9    A    
C13   C17   A    
Cu2   O11   S    
C4    C15   A    
C13   C15   A    
C2    O13   A    
H5    O3    S    
Cu2   O7    S    
C20   C21   S    
H6    O4    S    
C14   C17   A    
C1    O1    A    
C1    C18   S    
C3    C14   A    
Cu1   O13   S    
Cu1   O10   S    
C10   H11   S    
H3    O14   S    
C12   C19   S    
C4    C6    A    
C19   C21   D    
Cu1   O9    S    
Cu2   N1    S    
C18   C20   D    
C2    O11   A    
C9    C11   A    
Cu1   N2    S    
C1    O8    A    
H8    O6    S    
C22   H15   S    
C21   H12   S    
H7    O5    S    
C15   C16   A    
C17   C24   S    
C7    O2    S    
Cu1   O1    S    
C12   O7    A    
C6    H9    S    
C18   O6    S    
C8    C10   A    
C4    O4    S    
C3    O3    S    
C11   C14   A    
C5    C7    A    
C20   H13   S    
C22   C23   S    
C6    C8    A    
C8    O14   S    
Cu1   Cu2   S    
C5    H1    S    
C24   O10   A    
H4    O2    S    
C22   N1    D    
C23   N2    D    
C23   H14   S    
C3    C5    A    
C10   C13   A    
Cu2   O12   S    
