data_mof_unit_26896.cif
_audit_creation_date              2012-12-11T14:01:37-0500
_audit_creation_method            fapswitch 2.2
_symmetry_space_group_name_H-M    P1
_symmetry_Int_Tables_number       1
_space_group_crystal_system       triclinic
_cell_length_a                    19.03282
_cell_length_b                    10.935335
_cell_length_c                    18.725253
_cell_angle_alpha                 90.51506
_cell_angle_beta                  90.324529
_cell_angle_gamma                 90.02327
_cell_volume                      3897.07143408

loop_
_atom_site_label
_atom_site_type_symbol
_atom_type_description
_atom_site_fract_x
_atom_site_fract_y
_atom_site_fract_z
_atom_type_partial_charge
C1    C     C_R   0.272572 0.042904 0.853492 0.555972
C2    C     C_R   0.940178 0.668154 0.991604 -0.149246
C3    C     C_R   0.443268 0.159515 0.065272 -0.125467
C4    C     C_R   0.440191 0.168157 0.991597 -0.149765
C5    C     C_2   0.247214 0.577679 0.919285 -0.102832
C6    C     C_2   0.750024 0.578163 0.079336 -0.116104
C7    C     C_2   0.747207 0.077658 0.919276 -0.105010
C8    C     C_2   0.250028 0.078151 0.079340 -0.115640
C9    C     C_2   0.249456 0.582879 0.076109 -0.102604
C10   C     C_2   0.750162 0.588338 0.922892 -0.104040
C11   C     C_2   0.749447 0.082854 0.076101 -0.104627
C12   C     C_R   0.727354 0.041613 0.146227 0.563590
C13   C     C_2   0.250165 0.088324 0.922897 -0.102926
C14   C     C_2   0.291173 0.511592 0.035513 -0.163173
C15   C     C_2   0.703807 0.524439 0.961449 -0.161450
C16   C     C_2   0.791158 0.011557 0.035504 -0.163895
C17   C     C_2   0.203815 0.024414 0.961454 -0.160635
C18   C     C_2   0.300015 0.533624 0.959033 -0.169208
C19   C     C_2   0.694867 0.548606 0.037688 -0.162063
C20   C     C_2   0.800004 0.033591 0.959024 -0.168967
C21   C     C_2   0.194874 0.048578 0.037692 -0.162334
C22   C     C_2   0.484059 0.828737 0.575535 0.440498
C23   C     C_R   0.772570 0.542908 0.853490 0.555432
C24   C     C_2   0.514927 0.842364 0.425600 0.467423
C25   C     C_2   0.989062 0.327867 0.573179 0.420662
C26   C     C_2   0.985794 0.342055 0.413900 0.405036
C27   C     C_2   0.553567 0.780134 0.473248 -0.061298
C28   C     C_2   0.546726 0.801636 0.549361 -0.111996
C29   C     C_2   0.968564 0.245488 0.452759 -0.084080
C30   C     C_2   0.950818 0.258778 0.527377 -0.071307
C31   C     C_2   0.244692 0.557099 0.586329 -0.046641
C32   C     C_2   0.754296 0.571839 0.419202 -0.041418
C33   C     C_2   0.745371 0.071269 0.580274 -0.024720
C34   C     C_R   0.227357 0.541621 0.146229 0.559937
C35   C     C_2   0.253268 0.077341 0.420746 -0.074730
C36   C     C_2   0.239967 0.573867 0.426658 0.245914
C37   C     C_2   0.790307 0.479713 0.564238 0.179442
C38   C     C_2   0.708710 0.979025 0.435176 0.182471
C39   C     C_2   0.288457 0.982803 0.564547 0.250096
C40   C     C_R   0.437934 0.819299 0.861343 0.558875
C41   C     C_R   0.525066 0.821413 0.149757 0.545648
C42   C     C_R   0.937931 0.319299 0.861343 0.562149
C43   C     C_R   0.025067 0.321412 0.149755 0.535520
C44   C     C_2   0.186734 0.549575 0.471923 -0.095487
C45   C     C_R   0.454255 0.046471 0.096569 -0.087721
C46   C     C_2   0.831641 0.548700 0.523051 -0.053450
C47   C     C_2   0.667148 0.047195 0.477121 -0.091616
C48   C     C_2   0.330999 0.049361 0.523301 -0.025384
C49   C     C_2   0.188075 0.580080 0.547114 -0.041738
C50   C     C_2   0.819615 0.565848 0.446341 -0.042759
C51   C     C_2   0.679658 0.063394 0.553957 -0.084168
C52   C     C_2   0.318709 0.067338 0.446909 -0.052193
C53   C     C_R   0.260649 0.635386 0.850971 0.540914
C54   C     C_R   0.738911 0.635415 0.148640 0.551550
C55   C     C_R   0.760647 0.135377 0.850967 0.544999
C56   C     C_R   0.444773 0.063244 0.948945 -0.101140
C57   C     C_R   0.238912 0.135411 0.148641 0.554748
C58   C     C_R   0.293917 0.989799 0.642023 0.611051
C59   C     C_R   0.705548 0.989419 0.357532 0.601525
C60   C     C_R   0.794160 0.489356 0.642063 0.598429
C61   C     C_R   0.226931 0.544550 0.352892 0.577969
C62   C     C_R   0.471377 0.823581 0.649282 0.556079
C63   C     C_R   0.530885 0.825049 0.352336 0.568704
C64   C     C_R   0.969548 0.323173 0.647226 0.574323
C65   C     C_R   0.027431 0.325096 0.350366 0.555707
C66   C     C_R   0.259392 0.631737 0.648542 0.594723
C67   C     C_R   0.954245 0.546464 0.096574 -0.088487
C68   C     C_R   0.740303 0.634557 0.352872 0.554866
C69   C     C_R   0.759650 0.134206 0.647005 0.555766
C70   C     C_R   0.239969 0.136073 0.353434 0.543122
C71   C     C_R   0.481364 0.827551 0.085242 0.002535
C72   C     C_R   0.450687 0.831336 0.938975 0.001964
C73   C     C_R   0.981361 0.327549 0.085243 0.002320
C74   C     C_R   0.950678 0.331334 0.938977 0.000340
C75   C     C_R   0.462259 0.939687 0.054252 0.022393
C76   C     C_R   0.451918 0.944831 0.979098 0.018215
C77   C     C_R   0.962251 0.439682 0.054255 0.023164
C78   C     C_R   0.944762 0.563243 0.948951 -0.100522
C79   C     C_R   0.951909 0.444828 0.979102 0.018059
C80   C     C_R   0.455992 0.720696 0.975495 -0.153588
C81   C     C_R   0.471310 0.718571 0.047058 -0.148999
C82   C     C_R   0.955983 0.220694 0.975496 -0.153317
C83   C     C_R   0.971304 0.218569 0.047059 -0.148864
C84   C     C_R   0.943256 0.659509 0.065280 -0.125313
Cl1   Cl    Cl    0.322688 0.635433 0.450646 -0.483312
Cl2   Cl    Cl    0.735996 0.363270 0.527666 -0.650564
Cl3   Cl    Cl    0.763290 0.863161 0.470698 -0.666655
Cl4   Cl    Cl    0.229611 0.872498 0.528696 -0.552879
Cr1   Cr    Cr6+3 0.230530 0.836340 0.748870 1.063415
Cr2   Cr    Cr6+3 0.614360 0.677860 0.250770 1.033011
Cr3   Cr    Cr6+3 0.885640 0.177860 0.749230 1.024609
Cr4   Cr    Cr6+3 0.114360 0.177860 0.250770 1.035812
Cr5   Cr    Cr6+3 0.769470 0.836340 0.251130 1.047890
Cr6   Cr    Cr6+3 0.730530 0.336340 0.748870 1.049382
Cr7   Cr    Cr6+3 0.269470 0.336340 0.251130 1.045044
Cr8   Cr    Cr6+3 0.387420 0.989430 0.750820 1.011954
Cr9   Cr    Cr6+3 0.612580 0.989430 0.249180 1.036985
Cr10  Cr    Cr6+3 0.887420 0.489430 0.750820 1.023736
Cr11  Cr    Cr6+3 0.112580 0.489430 0.249180 1.052429
Cr12  Cr    Cr6+3 0.385640 0.677860 0.749230 1.044291
F1    F     F_    0.480579 0.947257 0.444094 -0.619771
F2    F     F_    0.424777 0.825055 0.534495 -0.546291
F3    F     F_    0.974204 0.457946 0.438335 -0.620564
F4    F     F_    0.044186 0.398132 0.552524 -0.625366
H1    H     H_    0.452326 0.633532 0.947931 0.134153
H2    H     H_    0.863779 0.598105 0.415214 0.202299
H3    H     H_    0.635362 0.092969 0.586128 0.151617
H4    H     H_    0.363436 0.094052 0.414783 0.192709
H5    H     H_    0.285868 0.497270 0.566280 0.146811
H6    H     H_    0.708527 0.550657 0.450868 0.172364
H7    H     H_    0.790953 0.052383 0.547641 0.172261
H8    H     H_    0.207387 0.061928 0.453371 0.162591
H9    H     H_    0.454572 0.043020 0.154272 0.136137
H10   H     H_    0.444086 0.081474 0.893090 0.181418
H11   H     H_    0.954563 0.543009 0.154277 0.132467
H12   H     H_    0.481000 0.630193 0.070898 0.140875
H13   H     H_    0.944076 0.581473 0.893095 0.182156
H14   H     H_    0.937601 0.740695 0.098257 0.122063
H15   H     H_    0.933527 0.756826 0.967165 0.109562
H16   H     H_    0.437614 0.240704 0.098248 0.122833
H17   H     H_    0.433541 0.256828 0.967156 0.108788
H18   H     H_    0.318488 0.433534 0.058001 0.151394
H19   H     H_    0.673058 0.450778 0.937660 0.157229
H20   H     H_    0.818469 0.933495 0.057992 0.151222
H21   H     H_    0.173069 0.950750 0.937664 0.157536
H22   H     H_    0.351087 0.515644 0.935824 0.138459
H23   H     H_    0.952314 0.133530 0.947932 0.134407
H24   H     H_    0.641847 0.545814 0.058809 0.158559
H25   H     H_    0.851077 0.015612 0.935817 0.139065
H26   H     H_    0.141854 0.045776 0.058813 0.158612
H27   H     H_    0.223647 0.662656 0.053851 0.110261
H28   H     H_    0.779020 0.664399 0.946669 0.113396
H29   H     H_    0.723641 0.162633 0.053841 0.110213
H30   H     H_    0.279021 0.164388 0.946674 0.113063
H31   H     H_    0.195063 0.588417 0.941856 0.118338
H32   H     H_    0.802848 0.577474 0.057901 0.123418
H33   H     H_    0.695055 0.088396 0.941845 0.117468
H34   H     H_    0.980996 0.130190 0.070898 0.140338
H35   H     H_    0.302853 0.077470 0.057904 0.123535
H36   H     H_    0.592709 0.713789 0.456098 0.102688
H37   H     H_    0.591215 0.784020 0.584461 0.080192
H38   H     H_    0.973084 0.152895 0.431749 0.111446
H39   H     H_    0.908904 0.200209 0.546617 0.102266
H40   H     H_    0.136736 0.515258 0.451631 0.188619
H41   H     H_    0.872506 0.605175 0.547105 0.171624
H42   H     H_    0.626202 0.103624 0.453822 0.169692
H43   H     H_    0.373855 0.101615 0.547027 0.140166
H44   H     H_    0.144464 0.633504 0.567837 0.205271
O1    O     O_R   0.215090 0.709860 0.828130 -0.520144
O2    O     O_R   0.543740 0.718170 0.330000 -0.531758
O3    O     O_R   0.956260 0.218170 0.670000 -0.535678
O4    O     O_R   0.043740 0.218170 0.330000 -0.550247
O5    O     O_R   0.320940 0.626760 0.674370 -0.477564
O6    O     O_R   0.679060 0.626760 0.325630 -0.504288
O7    O     O_R   0.820940 0.126760 0.674370 -0.505086
O8    O     O_R   0.179060 0.126760 0.325630 -0.484618
O9    O     O_3   0.334530 0.834540 0.749640 -0.299179
O10   O     O_3   0.665470 0.834540 0.250360 -0.291103
O11   O     O_3   0.834530 0.334540 0.749640 -0.308095
O12   O     O_R   0.784910 0.709860 0.171870 -0.526776
O13   O     O_3   0.165470 0.334540 0.250360 -0.262215
O14   O     O_R   0.236990 0.958390 0.823710 -0.494780
O15   O     O_R   0.763010 0.958390 0.176290 -0.499338
O16   O     O_R   0.736990 0.458390 0.823710 -0.495048
O17   O     O_R   0.263010 0.458390 0.176290 -0.498789
O18   O     O_R   0.332380 0.074750 0.830850 -0.540251
O19   O     O_R   0.667620 0.074750 0.169150 -0.503951
O20   O     O_R   0.832380 0.574750 0.830850 -0.539021
O21   O     O_R   0.167620 0.574750 0.169150 -0.506775
O22   O     O_R   0.445800 0.917770 0.825070 -0.525474
O23   O     O_R   0.715090 0.209860 0.828130 -0.520269
O24   O     O_R   0.554200 0.917770 0.174930 -0.504485
O25   O     O_R   0.945800 0.417770 0.825070 -0.517782
O26   O     O_R   0.054200 0.417770 0.174930 -0.507538
O27   O     O_R   0.456410 0.716580 0.829970 -0.516078
O28   O     O_R   0.543590 0.716580 0.170030 -0.520240
O29   O     O_R   0.956410 0.216580 0.829970 -0.505732
O30   O     O_R   0.043590 0.216580 0.170030 -0.526063
O31   O     O_R   0.321080 0.625290 0.822650 -0.520755
O32   O     O_R   0.678920 0.625290 0.177350 -0.491714
O33   O     O_R   0.821080 0.125290 0.822650 -0.512195
O34   O     O_R   0.284910 0.209860 0.171870 -0.523461
O35   O     O_R   0.178920 0.125290 0.177350 -0.492295
O36   O     O_R   0.214930 0.711450 0.668160 -0.487194
O37   O     O_R   0.785070 0.711450 0.331840 -0.482194
O38   O     O_R   0.714930 0.211450 0.668160 -0.480897
O39   O     O_R   0.285070 0.211450 0.331840 -0.514367
O40   O     O_R   0.236850 0.959870 0.675420 -0.457915
O41   O     O_R   0.763150 0.959870 0.324580 -0.451900
O42   O     O_R   0.736850 0.459870 0.675420 -0.448372
O43   O     O_R   0.263150 0.459870 0.324580 -0.482092
O44   O     O_R   0.332230 0.076350 0.670880 -0.542208
O45   O     O_R   0.445660 0.919250 0.676780 -0.518787
O46   O     O_R   0.667770 0.076350 0.329120 -0.520671
O47   O     O_R   0.832230 0.576350 0.670880 -0.523892
O48   O     O_R   0.167770 0.576350 0.329120 -0.517672
O49   O     O_R   0.554340 0.919250 0.323220 -0.514340
O50   O     O_R   0.945660 0.419250 0.676780 -0.502591
O51   O     O_R   0.054340 0.419250 0.323220 -0.470937
O52   O     O_R   0.456260 0.718170 0.670000 -0.489133

loop_
_geom_bond_atom_site_label_1
_geom_bond_atom_site_label_2
_ccdc_geom_bond_type
Cr4   O13   S    
C43   C73   S    
C31   C66   S    
C71   C75   A    
C43   O30   A    
Cr6   O11   S    
C14   H18   S    
C64   O50   A    
C28   H37   S    
C13   H30   S    
C14   C18   S    
C2    C84   A    
C67   C77   A    
C24   C27   D    
C7    C55   S    
C20   H25   S    
Cr2   O2    S    
C12   O19   A    
C40   O22   A    
Cr7   O39   S    
C32   C68   S    
C15   C19   S    
C6    C19   D    
C69   O7    A    
Cr9   O24   S    
C15   H19   S    
C8    H35   S    
C70   O8    A    
C5    C53   S    
C31   C49   D    
C68   O6    A    
C10   C15   D    
C11   H29   S    
C8    C57   S    
C43   O26   A    
Cr4   O35   S    
C46   H41   S    
Cr5   O15   S    
C42   O29   A    
C48   H43   S    
Cr2   O28   S    
C19   H24   S    
C81   H12   S    
C24   F1    S    
C9    H27   S    
C67   H11   S    
C6    H32   S    
C84   H14   S    
Cr11  O13   S    
Cr12  O9    S    
C35   C70   S    
Cr4   O4    S    
C33   H7    S    
Cr2   O6    S    
C34   O17   A    
Cr3   O11   S    
C80   H1    S    
C4    H17   S    
C33   C69   S    
C41   C71   S    
C27   C28   S    
Cr1   O1    S    
Cr8   O9    S    
C47   H42   S    
C67   C84   A    
C59   O46   A    
Cr8   O22   S    
C4    C56   A    
C53   O1    A    
C39   Cl4   S    
C6    C54   S    
C53   O31   A    
C55   O23   A    
C57   O34   A    
C77   C79   A    
Cr12  O5    S    
C31   H5    S    
C21   H26   S    
C41   O24   A    
Cr2   O32   S    
C42   C74   S    
Cr10  O50   S    
C64   O3    A    
C58   O40   A    
Cr1   O36   S    
Cr9   O49   S    
C37   Cl2   S    
Cr7   O17   S    
C78   H13   S    
Cr6   O16   S    
C7    H33   S    
Cr10  O25   S    
C78   C79   A    
C47   C51   S    
C5    C18   D    
Cr9   O19   S    
C39   C58   S    
C25   F4    S    
Cr11  O48   S    
C3    C45   A    
C44   C49   S    
C17   C21   S    
C30   H39   S    
C63   O49   A    
C49   H44   S    
C25   C64   S    
Cr9   O46   S    
Cr2   O10   S    
Cr5   O12   S    
C75   C76   A    
Cr6   O42   S    
C63   O2    A    
Cr3   O7    S    
C29   C30   S    
C2    C78   A    
Cr6   O23   S    
C22   C62   S    
C23   O20   A    
C11   C16   D    
C16   C20   S    
Cr12  O27   S    
C8    C21   D    
C55   O33   A    
C9    C14   D    
C72   C76   A    
Cr4   O8    S    
C61   O48   A    
C32   C50   D    
C38   C47   D    
C34   O21   A    
C32   H6    S    
C70   O39   A    
Cr4   O30   S    
C60   O42   A    
Cr8   O45   S    
C41   O28   A    
C68   O37   A    
C65   O51   A    
C24   C63   S    
Cr5   O41   S    
C74   C79   A    
Cr3   O33   S    
C26   F3    S    
C58   O44   A    
C9    C34   S    
C36   Cl1   S    
Cr1   O40   S    
Cr8   O18   S    
C36   C44   D    
C1    C13   S    
C36   C61   S    
Cr12  O52   S    
Cr1   O14   S    
C57   O35   A    
C50   H2    S    
C23   O16   A    
C74   C82   A    
C25   C30   D    
C5    H31   S    
C66   O36   A    
C73   C77   A    
C40   C72   S    
C26   C65   S    
Cr6   O38   S    
C80   C81   A    
C42   O25   A    
C1    O14   A    
C40   O27   A    
C11   C12   S    
Cr7   O34   S    
Cr1   O9    S    
Cr11  O21   S    
Cr7   O43   S    
C10   C23   S    
C33   C51   D    
C66   O5    A    
C46   C50   S    
C27   H36   S    
C22   F2    S    
C13   C17   D    
C38   Cl3   S    
C45   C75   A    
Cr9   O10   S    
Cr8   O44   S    
C65   O4    A    
Cr7   O13   S    
C16   H20   S    
C62   O52   A    
C72   C80   A    
C56   C76   A    
C18   H22   S    
C12   O15   A    
Cr3   O3    S    
C17   H21   S    
Cr11  O26   S    
C1    O18   A    
C29   H38   S    
Cr3   O29   S    
C2    H15   S    
C54   O32   A    
Cr10  O47   S    
Cr5   O10   S    
C10   H28   S    
C82   H23   S    
C37   C60   S    
C59   O41   A    
C3    H16   S    
C54   O12   A    
C38   C59   S    
C45   H9    S    
C48   C52   S    
Cr10  O11   S    
C52   H4    S    
C26   C29   D    
C51   H3    S    
C7    C20   D    
Cr11  O51   S    
C35   C52   D    
C61   O43   A    
C56   H10   S    
C22   C28   D    
C44   H40   S    
C62   O45   A    
C82   C83   A    
C37   C46   D    
Cr12  O31   S    
C69   O38   A    
C73   C83   A    
C83   H34   S    
Cr10  O20   S    
C35   H8    S    
C3    C4    A    
C60   O47   A    
C39   C48   D    
C71   C81   A    
Cr5   O37   S    
