data_mof_unit_60984.cif
_audit_creation_date              2012-12-10T20:11:09-0500
_audit_creation_method            fapswitch 2.2
_symmetry_space_group_name_H-M    P1
_symmetry_Int_Tables_number       1
_space_group_crystal_system       monoclinic
_cell_length_a                    15.91493
_cell_length_b                    15.927249
_cell_length_c                    51.574726
_cell_angle_alpha                 90.0
_cell_angle_beta                  90.0
_cell_angle_gamma                 90.023702
_cell_volume                      13073.2147323

loop_
_atom_site_label
_atom_site_type_symbol
_atom_type_description
_atom_site_fract_x
_atom_site_fract_y
_atom_site_fract_z
_atom_type_partial_charge
Br1   Br    Br    0.451855 0.742963 0.968895 -0.166764
Br2   Br    Br    0.006676 0.762066 0.531064 -0.167927
Br3   Br    Br    0.760938 0.023028 0.468889 -0.167990
Br4   Br    Br    0.237733 0.993303 0.531065 -0.167857
Br5   Br    Br    0.023051 0.760739 0.468890 -0.168060
Br6   Br    Br    0.993324 0.237934 0.531065 -0.167927
Br7   Br    Br    0.239062 0.976972 0.468889 -0.167990
Br8   Br    Br    0.762267 0.006697 0.531065 -0.167857
Br9   Br    Br    0.842535 0.588644 0.590544 -0.259694
Br10  Br    Br    0.836368 0.423081 0.409571 -0.259663
Br11  Br    Br    0.411195 0.157294 0.590549 -0.259667
Br12  Br    Br    0.534142 0.260253 0.031075 -0.170071
Br13  Br    Br    0.577081 0.163460 0.409566 -0.259621
Br14  Br    Br    0.157465 0.411356 0.590544 -0.259694
Br15  Br    Br    0.163632 0.576919 0.409571 -0.259663
Br16  Br    Br    0.588804 0.842707 0.590549 -0.259667
Br17  Br    Br    0.422919 0.836540 0.409566 -0.259621
Br18  Br    Br    0.348589 0.098505 0.090642 -0.258728
Br19  Br    Br    0.330927 0.936046 0.909747 -0.255924
Br20  Br    Br    0.862641 0.616680 0.090613 -0.256262
Br21  Br    Br    0.138211 0.384347 0.909368 -0.269566
Br22  Br    Br    0.651411 0.901495 0.090642 -0.258728
Br23  Br    Br    0.206588 0.662216 0.969024 -0.182929
Br24  Br    Br    0.669072 0.063954 0.909747 -0.255925
Br25  Br    Br    0.137359 0.383320 0.090613 -0.256262
Br26  Br    Br    0.861789 0.615653 0.909368 -0.269566
Br27  Br    Br    0.850897 0.608121 0.654341 -0.300814
Br28  Br    Br    0.844334 0.400754 0.345979 -0.296538
Br29  Br    Br    0.391676 0.148900 0.654344 -0.300499
Br30  Br    Br    0.599464 0.155454 0.345975 -0.296475
Br31  Br    Br    0.149103 0.391879 0.654341 -0.300814
Br32  Br    Br    0.155666 0.599246 0.345979 -0.296539
Br33  Br    Br    0.608324 0.851100 0.654344 -0.300499
Br34  Br    Br    0.792538 0.338963 0.030949 -0.190192
Br35  Br    Br    0.400536 0.844546 0.345975 -0.296475
Br36  Br    Br    0.356847 0.115396 0.154616 -0.302471
Br37  Br    Br    0.337497 0.911553 0.846338 -0.305307
Br38  Br    Br    0.857333 0.614039 0.155299 -0.320557
Br39  Br    Br    0.143453 0.387041 0.844666 -0.340419
Br40  Br    Br    0.643153 0.884604 0.154616 -0.302471
Br41  Br    Br    0.662502 0.088447 0.846338 -0.305307
Br42  Br    Br    0.142666 0.385961 0.155299 -0.320557
Br43  Br    Br    0.856547 0.612959 0.844666 -0.340419
Br44  Br    Br    0.548144 0.257037 0.968895 -0.166764
Br45  Br    Br    0.465858 0.739747 0.031075 -0.170071
Br46  Br    Br    0.793412 0.337784 0.969024 -0.182929
Br47  Br    Br    0.207462 0.661037 0.030949 -0.190192
Br48  Br    Br    0.976949 0.239261 0.468890 -0.168060
C1    C     C_R   0.935644 0.542003 0.636869 0.186887
C2    C     C_R   0.430548 0.966928 0.863414 0.192001
C3    C     C_1   0.276604 0.223427 0.249978 -0.103968
C4    C     C_1   0.223426 0.723391 0.750002 -0.110109
C5    C     C_1   0.776599 0.276586 0.250018 -0.104798
C6    C     C_1   0.276570 0.223395 0.749997 -0.099589
C7    C     C_1   0.723396 0.776573 0.249978 -0.103968
C8    C     C_1   0.776553 0.723375 0.249987 -0.103974
C9    C     C_1   0.223415 0.276595 0.749991 -0.097015
C10   C     C_1   0.723433 0.223381 0.250010 -0.104754
C11   C     C_1   0.276593 0.776594 0.750012 -0.107732
C12   C     C_1   0.223447 0.276624 0.249987 -0.103974
C13   C     C_R   0.941339 0.549408 0.137113 0.180649
C14   C     C_1   0.776585 0.723405 0.749991 -0.097015
C15   C     C_1   0.276566 0.776619 0.250010 -0.104754
C16   C     C_1   0.723407 0.223406 0.750012 -0.107732
C17   C     C_R   0.497978 0.074592 0.945397 0.652862
C18   C     C_R   0.478158 0.928550 0.055124 0.652377
C19   C     C_R   0.948391 0.445981 0.944851 0.652810
C20   C     C_R   0.051774 0.553861 0.055128 0.652525
C21   C     C_R   0.502022 0.925408 0.945397 0.652862
C22   C     C_R   0.521842 0.071450 0.055124 0.652377
C23   C     C_R   0.051609 0.554018 0.944851 0.652811
C24   C     C_R   0.059020 0.451032 0.862870 0.183798
C25   C     C_R   0.948226 0.446139 0.055128 0.652525
C26   C     C_R   0.991487 0.574154 0.445228 0.650665
C27   C     C_R   0.984490 0.426944 0.554951 0.650600
C28   C     C_R   0.425790 0.008518 0.445228 0.650658
C29   C     C_R   0.573110 0.015510 0.554952 0.650594
C30   C     C_R   0.008513 0.425846 0.445228 0.650665
C31   C     C_R   0.015510 0.573056 0.554951 0.650600
C32   C     C_R   0.574210 0.991482 0.445228 0.650658
C33   C     C_R   0.426890 0.984490 0.554952 0.650593
C34   C     C_R   0.492963 0.923229 0.972704 -0.142107
C35   C     C_R   0.561962 0.954567 0.136989 0.186281
C36   C     C_R   0.515331 0.075739 0.027760 -0.141518
C37   C     C_R   0.057017 0.552229 0.972344 -0.141541
C38   C     C_R   0.942847 0.447927 0.027634 -0.140370
C39   C     C_R   0.507037 0.076771 0.972704 -0.142108
C40   C     C_R   0.484669 0.924261 0.027760 -0.141519
C41   C     C_R   0.942983 0.447771 0.972344 -0.141542
C42   C     C_R   0.057153 0.552073 0.027634 -0.140370
C43   C     C_R   0.000096 0.422866 0.472550 -0.141774
C44   C     C_R   0.008069 0.576787 0.527606 -0.141634
C45   C     C_R   0.577193 0.999900 0.472550 -0.141783
C46   C     C_R   0.569452 0.033072 0.863414 0.192001
C47   C     C_R   0.423155 0.991929 0.527607 -0.141641
C48   C     C_R   0.999904 0.577134 0.472550 -0.141774
C49   C     C_R   0.991931 0.423213 0.527606 -0.141634
C50   C     C_R   0.422807 0.000100 0.472550 -0.141783
C51   C     C_R   0.576845 0.008071 0.527607 -0.141642
C52   C     C_R   0.058661 0.450592 0.137113 0.180649
C53   C     C_R   0.940980 0.548968 0.862870 0.183797
C54   C     C_R   0.500000 0.000000 0.986498 -0.073433
C55   C     C_R   0.500000 0.000000 0.013993 -0.073168
C56   C     C_R   0.000000 0.500000 0.986183 -0.069913
C57   C     C_R   0.933081 0.462115 0.363264 0.187922
C58   C     C_R   0.000000 0.500000 0.013796 -0.070220
C59   C     C_R   0.000000 0.500000 0.486336 -0.073870
C60   C     C_R   0.000000 0.500000 0.513831 -0.073339
C61   C     C_R   0.500000 0.000000 0.486336 -0.073874
C62   C     C_R   0.500000 0.000000 0.513831 -0.073341
C63   C     C_R   0.478178 0.847547 0.986515 0.268666
C64   C     C_R   0.524746 0.152200 0.013817 0.269125
C65   C     C_R   0.117542 0.599959 0.986315 0.267037
C66   C     C_R   0.882273 0.400268 0.013664 0.266282
C67   C     C_R   0.521822 0.152453 0.986515 0.268667
C68   C     C_R   0.457918 0.064275 0.636873 0.186937
C69   C     C_R   0.475254 0.847800 0.013817 0.269125
C70   C     C_R   0.882458 0.400040 0.986315 0.267037
C71   C     C_R   0.117727 0.599732 0.013664 0.266281
C72   C     C_R   0.992941 0.346113 0.486399 0.263907
C73   C     C_R   0.009637 0.653825 0.513703 0.263400
C74   C     C_R   0.654004 0.007053 0.486399 0.263918
C75   C     C_R   0.346057 0.990360 0.513703 0.263408
C76   C     C_R   0.007059 0.653887 0.486399 0.263908
C77   C     C_R   0.990363 0.346175 0.513703 0.263400
C78   C     C_R   0.345995 0.992947 0.486399 0.263918
C79   C     C_R   0.537968 0.066836 0.363260 0.187968
C80   C     C_R   0.653942 0.009640 0.513703 0.263409
C81   C     C_R   0.934538 0.539429 0.609594 0.270419
C82   C     C_R   0.931973 0.465165 0.390539 0.269452
C83   C     C_R   0.460498 0.065386 0.609598 0.270363
C84   C     C_R   0.534910 0.067949 0.390535 0.269422
C85   C     C_R   0.065462 0.460571 0.609594 0.270419
C86   C     C_R   0.068027 0.534834 0.390539 0.269452
C87   C     C_R   0.539502 0.934614 0.609598 0.270363
C88   C     C_R   0.465091 0.932051 0.390535 0.269422
C89   C     C_R   0.437001 0.043279 0.109716 0.271911
C90   C     C_R   0.064356 0.457997 0.636869 0.186887
C91   C     C_R   0.429587 0.970361 0.890690 0.271096
C92   C     C_R   0.941725 0.549401 0.109783 0.273036
C93   C     C_R   0.058641 0.451035 0.890199 0.275885
C94   C     C_R   0.562999 0.956721 0.109716 0.271911
C95   C     C_R   0.570413 0.029639 0.890690 0.271096
C96   C     C_R   0.058274 0.450599 0.109783 0.273036
C97   C     C_R   0.941359 0.548964 0.890199 0.275885
C98   C     C_R   0.000000 0.500000 0.595935 0.029979
C99   C     C_R   1.000000 0.500000 0.404208 0.029154
C100  C     C_R   0.500000 0.000000 0.595937 0.029997
C101  C     C_R   0.066919 0.537885 0.363264 0.187922
C102  C     C_R   0.500000 0.000000 0.404205 0.029144
C103  C     C_R   0.500000 0.000000 0.096069 0.030414
C104  C     C_R   0.500000 0.000000 0.904359 0.028729
C105  C     C_R   0.000000 0.500000 0.096107 0.036698
C106  C     C_R   1.000000 0.500000 0.903875 0.038916
C107  C     C_R   1.000000 0.500000 0.820206 0.928297
C108  C     C_R   0.000000 0.500000 0.179789 0.925460
C109  C     C_R   0.500000 0.000000 0.820336 0.909966
C110  C     C_R   0.500000 0.000000 0.179758 0.916739
C111  C     C_R   0.500000 0.000000 0.320295 0.908817
C112  C     C_R   0.542082 0.935725 0.636873 0.186938
C113  C     C_R   0.500000 0.000000 0.679736 0.912355
C114  C     C_R   1.000000 0.500000 0.320301 0.908952
C115  C     C_R   0.000000 0.500000 0.679730 0.912239
C116  C     C_R   0.839687 0.660299 0.749996 0.870326
C117  C     C_R   0.160331 0.339718 0.249994 0.864075
C118  C     C_R   0.339700 0.839698 0.750008 0.859487
C119  C     C_R   0.660320 0.160283 0.250003 0.860900
C120  C     C_R   0.160313 0.339701 0.749996 0.870326
C121  C     C_R   0.839669 0.660282 0.249994 0.864075
C122  C     C_R   0.660300 0.160302 0.750008 0.859488
C123  C     C_R   0.462032 0.933164 0.363260 0.187969
C124  C     C_R   0.339680 0.839717 0.250003 0.860899
C125  C     C_R   0.839702 0.339695 0.250010 0.861882
C126  C     C_R   0.160312 0.660291 0.749999 0.856976
C127  C     C_R   0.339701 0.160315 0.249988 0.862030
C128  C     C_R   0.660324 0.839709 0.749998 0.861971
C129  C     C_R   0.160298 0.660305 0.250010 0.861882
C130  C     C_R   0.839687 0.339709 0.749999 0.856976
C131  C     C_R   0.660299 0.839685 0.249988 0.862030
C132  C     C_R   0.339676 0.160291 0.749998 0.861971
C133  C     C_R   0.000000 0.500000 0.650837 -0.279992
C134  C     C_R   0.438038 0.045433 0.136989 0.186280
C135  C     C_R   1.000000 0.500000 0.349248 -0.282788
C136  C     C_R   0.500000 0.000000 0.650842 -0.280071
C137  C     C_R   0.500000 1.000000 0.349244 -0.282718
C138  C     C_R   0.500000 0.000000 0.150915 -0.277840
C139  C     C_R   0.500000 0.000000 0.849344 -0.280981
C140  C     C_R   0.000000 0.500000 0.150975 -0.265006
C141  C     C_R   1.000000 0.500000 0.849014 -0.259352
C142  C     C_1   0.776574 0.276609 0.750002 -0.110109
C143  C     C_1   0.223401 0.723414 0.250018 -0.104797
C144  C     C_1   0.723430 0.776605 0.749997 -0.099589
N1    N     N_R   0.500000 0.000000 0.932404 -0.333431
N2    N     N_R   0.500000 0.000000 0.068050 -0.334075
N3    N     N_R   1.000000 0.500000 0.931941 -0.333332
N4    N     N_R   0.000000 0.500000 0.068040 -0.333002
N5    N     N_R   1.000000 0.500000 0.432249 -0.332829
N6    N     N_R   0.000000 0.500000 0.567904 -0.332958
N7    N     N_R   0.500000 0.000000 0.432247 -0.332821
N8    N     N_R   0.500000 0.000000 0.567905 -0.332951
O1    O     O_3   0.000000 0.500000 0.750000 -0.524258
O2    O     O_R   0.000000 0.430630 0.192350 -0.606328
O3    O     O_R   0.430630 0.000000 0.807650 -0.602225
O4    O     O_R   0.569370 0.000000 0.192350 -0.604936
O5    O     O_R   0.500000 0.930630 0.307650 -0.604227
O6    O     O_R   0.500000 0.069370 0.692350 -0.604583
O7    O     O_R   0.069370 0.500000 0.307650 -0.604501
O8    O     O_R   0.930630 0.500000 0.692350 -0.605016
O9    O     O_R   0.500000 0.069370 0.307650 -0.604227
O10   O     O_R   0.500000 0.930630 0.692350 -0.604583
O11   O     O_R   0.930630 0.500000 0.307650 -0.604501
O12   O     O_3   0.000000 0.500000 0.250000 -0.523540
O13   O     O_R   0.069370 0.500000 0.692350 -0.605016
O14   O     O_R   0.902350 0.666510 0.764820 -0.621067
O15   O     O_R   0.097650 0.333490 0.235180 -0.616546
O16   O     O_R   0.333490 0.902350 0.764820 -0.616596
O17   O     O_R   0.666510 0.097650 0.235180 -0.632462
O18   O     O_R   0.097650 0.333490 0.764820 -0.621067
O19   O     O_R   0.902350 0.666510 0.235180 -0.616546
O20   O     O_R   0.666510 0.097650 0.764820 -0.616597
O21   O     O_R   0.333490 0.902350 0.235180 -0.632461
O22   O     O_R   0.902350 0.333490 0.235180 -0.633255
O23   O     O_3   0.500000 0.000000 0.750000 -0.524391
O24   O     O_R   0.097650 0.666510 0.764820 -0.626568
O25   O     O_R   0.333490 0.097650 0.235180 -0.615631
O26   O     O_R   0.666510 0.902350 0.764820 -0.628027
O27   O     O_R   0.097650 0.666510 0.235180 -0.633255
O28   O     O_R   0.902350 0.333490 0.764820 -0.626568
O29   O     O_R   0.666510 0.902350 0.235180 -0.615631
O30   O     O_R   0.333490 0.097650 0.764820 -0.628027
O31   O     O_R   0.402350 0.166510 0.264820 -0.630430
O32   O     O_R   0.597650 0.833490 0.735180 -0.615674
O33   O     O_R   0.833490 0.402350 0.264820 -0.613903
O34   O     O_3   0.500000 0.000000 0.250000 -0.523696
O35   O     O_R   0.166510 0.597650 0.735180 -0.628506
O36   O     O_R   0.597650 0.833490 0.264820 -0.630430
O37   O     O_R   0.402350 0.166510 0.735180 -0.615674
O38   O     O_R   0.166510 0.597650 0.264820 -0.613903
O39   O     O_R   0.833490 0.402350 0.735180 -0.628506
O40   O     O_R   0.402350 0.833490 0.735180 -0.630388
O41   O     O_R   0.597650 0.166510 0.264820 -0.613970
O42   O     O_R   0.833490 0.597650 0.735180 -0.617332
O43   O     O_R   0.166510 0.402350 0.264820 -0.630411
O44   O     O_R   0.597650 0.166510 0.735180 -0.630388
O45   O     O_R   0.000000 0.430630 0.807650 -0.605204
O46   O     O_R   0.402350 0.833490 0.264820 -0.613969
O47   O     O_R   0.166510 0.402350 0.735180 -0.617332
O48   O     O_R   0.833490 0.597650 0.264820 -0.630411
O49   O     O_2   0.486005 0.145587 0.931703 -0.446753
O50   O     O_2   0.449416 0.862940 0.069000 -0.446252
O51   O     O_2   0.903750 0.390434 0.930803 -0.445725
O52   O     O_2   0.096559 0.609312 0.069168 -0.450813
O53   O     O_2   0.513995 0.854413 0.931703 -0.446753
O54   O     O_2   0.550584 0.137060 0.069000 -0.446251
O55   O     O_2   0.096250 0.609566 0.930803 -0.445725
O56   O     O_R   0.000000 0.569370 0.192350 -0.606328
O57   O     O_2   0.903441 0.390688 0.069168 -0.450813
O58   O     O_2   0.973766 0.643851 0.431495 -0.450369
O59   O     O_2   0.960933 0.359146 0.568759 -0.450354
O60   O     O_2   0.356041 0.026242 0.431496 -0.450358
O61   O     O_2   0.640956 0.039067 0.568758 -0.450344
O62   O     O_2   0.026234 0.356149 0.431495 -0.450369
O63   O     O_2   0.039067 0.640854 0.568759 -0.450354
O64   O     O_2   0.643959 0.973758 0.431496 -0.450358
O65   O     O_2   0.359044 0.960933 0.568758 -0.450344
O66   O     O_R   0.569370 0.000000 0.807650 -0.602226
O67   O     O_R   0.430630 0.000000 0.192350 -0.604936
O68   O     O_R   0.000000 0.569370 0.807650 -0.605205
Zn1   Zn    Zn3+2 0.900880 0.500000 0.727850 1.046932
Zn2   Zn    Zn3+2 0.599120 0.000000 0.772150 1.047756
Zn3   Zn    Zn3+2 0.000000 0.400880 0.227850 1.046287
Zn4   Zn    Zn3+2 0.000000 0.599120 0.772150 1.049223
Zn5   Zn    Zn3+2 0.599120 0.000000 0.227850 1.045448
Zn6   Zn    Zn3+2 0.400880 0.000000 0.772150 1.047756
Zn7   Zn    Zn3+2 0.000000 0.599120 0.227850 1.046287
Zn8   Zn    Zn3+2 0.000000 0.400880 0.772150 1.049223
Zn9   Zn    Zn3+2 0.099120 0.500000 0.272150 1.046956
Zn10  Zn    Zn3+2 0.500000 0.900880 0.727850 1.045505
Zn11  Zn    Zn3+2 0.500000 0.099120 0.272150 1.046113
Zn12  Zn    Zn3+2 0.099120 0.500000 0.727850 1.046932
Zn13  Zn    Zn3+2 0.900880 0.500000 0.272150 1.046956
Zn14  Zn    Zn3+2 0.500000 0.099120 0.727850 1.045505
Zn15  Zn    Zn3+2 0.500000 0.900880 0.272150 1.046113
Zn16  Zn    Zn3+2 0.400880 0.000000 0.227850 1.045448

loop_
_geom_bond_atom_site_label_1
_geom_bond_atom_site_label_2
_ccdc_geom_bond_type
Br1   C63   S    
C108  C140  S    
O33   Zn13  S    
C7    C8    T    
C18   O50   S    
C129  C143  S    
C17   O49   S    
C8    C121  S    
C115  C133  S    
C31   O63   S    
O41   Zn11  S    
C32   O64   S    
C27   C49   A    
O38   Zn9   S    
C108  O2    A    
C126  O35   A    
O43   Zn9   S    
C33   N8    A    
C56   C58   A    
C15   C124  S    
C5    C125  S    
Br48  C72   S    
O23   Zn10  S    
C117  O15   A    
O17   Zn5   S    
C109  O66   A    
C28   O60   S    
Br5   C76   S    
C53   C97   A    
O10   Zn10  S    
O34   Zn5   S    
C29   O61   S    
C104  N1    S    
O45   Zn8   S    
C46   C95   A    
O67   Zn16  S    
C103  N2    S    
C122  O44   A    
C52   C140  A    
C101  C135  A    
C53   C141  A    
C45   C61   A    
O1    Zn12  S    
C18   C40   A    
C109  O3    A    
C33   C47   A    
C25   O57   S    
C93   C106  A    
Br2   C73   S    
Br23  C65   S    
C114  O11   A    
C125  O22   A    
Br24  C95   S    
C47   C75   A    
C128  O32   A    
C68   C136  A    
C115  O8    A    
C19   C41   A    
Br35  C123  S    
C38   C66   A    
Br46  C70   S    
C134  C138  A    
O25   Zn16  S    
O32   Zn10  S    
O47   Zn12  S    
C15   C143  T    
C90   C133  A    
O27   Zn7   S    
C79   C84   A    
O48   Zn13  S    
C73   C76   A    
C21   C34   A    
C107  C141  S    
C65   C71   A    
C49   C60   A    
C44   C60   A    
C14   C116  S    
Br32  C101  S    
O68   Zn4   S    
Br44  C67   S    
C125  O33   A    
C119  O41   A    
C20   C42   A    
Br39  C24   S    
C26   N5    A    
C35   C138  A    
C111  O5    A    
C84   C102  A    
O11   Zn13  S    
C30   N5    A    
C131  O29   A    
C22   C36   A    
C130  O28   A    
C107  O68   A    
Br3   C74   S    
C92   C105  A    
O7    Zn9   S    
Br38  C13   S    
O12   Zn9   S    
C20   O52   S    
Br47  C71   S    
Br26  C97   S    
O13   Zn12  S    
C116  O42   A    
C85   C90   A    
Br7   C78   S    
C31   N6    A    
C23   C37   A    
O5    Zn15  S    
C33   O65   S    
C28   C50   A    
C30   O62   S    
Br40  C35   S    
C22   O54   S    
C38   C58   A    
O36   Zn15  S    
C7    C131  S    
C16   C122  S    
C19   N3    A    
C2    C139  A    
C110  C138  S    
O19   Zn7   S    
C130  O39   A    
C18   N2    A    
Br8   C80   S    
C17   C39   A    
C122  O20   A    
O34   Zn11  S    
C107  O45   A    
O3    Zn6   S    
C24   C93   A    
C86   C101  A    
C26   C48   A    
C127  O31   A    
C48   C76   A    
C21   O53   S    
O42   Zn1   S    
C43   C59   A    
O22   Zn3   S    
O46   Zn15  S    
C126  O24   A    
C45   C74   A    
C42   C58   A    
O23   Zn2   S    
C49   C77   A    
O66   Zn2   S    
Br15  C86   S    
O39   Zn1   S    
C72   C77   A    
C100  N8    S    
C75   C78   A    
C14   C144  T    
C89   C134  A    
O12   Zn3   S    
C116  O14   A    
C26   O58   S    
O9    Zn11  S    
C51   C62   A    
C1    C81   A    
C28   N7    A    
C17   N1    A    
Br4   C75   S    
O1    Zn4   S    
C94   C103  A    
C98   N6    S    
Br18  C89   S    
O2    Zn3   S    
Br43  C53   S    
C88   C102  A    
C110  O67   A    
C123  C137  A    
Br42  C52   S    
C4    C11   T    
O24   Zn4   S    
C39   C54   A    
C86   C99   A    
O12   Zn13  S    
C85   C98   A    
C23   N3    A    
Br41  C46   S    
C88   C123  A    
C124  O46   A    
Br28  C57   S    
C22   N2    A    
C132  O30   A    
Br22  C94   S    
Br17  C88   S    
C21   N1    A    
C34   C54   A    
O14   Zn4   S    
C83   C100  A    
C20   N4    A    
C36   C64   A    
C57   C135  A    
Br31  C90   S    
C3    C127  S    
O37   Zn14  S    
C11   C118  S    
O56   Zn7   S    
C23   O55   S    
C81   C98   A    
C66   C70   A    
C37   C56   A    
C117  O43   A    
C97   C106  A    
C95   C104  A    
C121  O19   A    
C48   C59   A    
C27   O59   S    
O4    Zn5   S    
C87   C100  A    
O34   Zn16  S    
Br10  C82   S    
C41   C56   A    
C52   C96   A    
C111  C137  S    
C1    C133  A    
C113  O6    A    
C99   N5    S    
Br25  C96   S    
Br36  C134  S    
O35   Zn12  S    
C59   C60   A    
C4    C126  S    
C24   C141  A    
Br12  C64   S    
C40   C55   A    
O20   Zn2   S    
C129  O27   A    
O26   Zn2   S    
C31   C44   A    
C27   N6    A    
Br45  C69   S    
Br30  C79   S    
O29   Zn5   S    
O18   Zn8   S    
C87   C112  A    
C106  N3    S    
C82   C99   A    
C2    C91   A    
C39   C67   A    
Br29  C68   S    
O21   Zn16  S    
O6    Zn14  S    
O12   Zn7   S    
C109  C139  S    
Br6   C77   S    
C112  C136  A    
C131  O36   A    
C47   C62   A    
Br11  C83   S    
C35   C94   A    
C16   C142  T    
C5    C10   T    
Br33  C112  S    
C13   C92   A    
C57   C82   A    
O16   Zn6   S    
Br14  C85   S    
C9    C120  S    
C30   C43   A    
Br34  C66   S    
C128  O26   A    
C113  O10   A    
O44   Zn14  S    
C12   C117  S    
C111  O9    A    
O31   Zn11  S    
C91   C104  A    
C63   C69   A    
O15   Zn3   S    
C34   C63   A    
O23   Zn14  S    
C113  C136  S    
C37   C65   A    
C102  N7    S    
C32   C45   A    
Br21  C93   S    
C114  C135  S    
O1    Zn1   S    
C44   C73   A    
C42   C71   A    
Br37  C2    S    
C115  O13   A    
Br20  C92   S    
C127  O25   A    
C124  O21   A    
C105  N4    S    
C132  O37   A    
O28   Zn8   S    
C130  C142  S    
C68   C83   A    
O8    Zn1   S    
C79   C137  A    
Br13  C84   S    
C6    C132  S    
C29   C51   A    
C51   C80   A    
O40   Zn10  S    
C46   C139  A    
C13   C140  A    
C121  O48   A    
C74   C80   A    
C54   C55   A    
C29   N8    A    
C110  O4    A    
C25   C38   A    
Br9   C81   S    
O23   Zn6   S    
C108  O56   A    
O1    Zn8   S    
Br27  C1    S    
C128  C144  S    
C50   C78   A    
C120  O47   A    
C41   C70   A    
Br19  C91   S    
O34   Zn15  S    
C25   N4    A    
C61   C62   A    
C50   C61   A    
C36   C55   A    
C10   C119  S    
C43   C72   A    
C89   C103  A    
C3    C12   T    
C114  O7    A    
C120  O18   A    
C40   C69   A    
C96   C105  A    
Br16  C87   S    
C118  O40   A    
C119  O17   A    
C64   C67   A    
O30   Zn6   S    
C32   N7    A    
C118  O16   A    
C129  O38   A    
C6    C9    T    
C19   O51   S    
