data_mof_unit_20956.cif
_audit_creation_date              2012-12-11T16:22:32-0500
_audit_creation_method            fapswitch 2.2
_symmetry_space_group_name_H-M    P1
_symmetry_Int_Tables_number       1
_space_group_crystal_system       triclinic
_cell_length_a                    16.869163
_cell_length_b                    16.861102
_cell_length_c                    19.469282
_cell_angle_alpha                 117.887328
_cell_angle_beta                  62.289202
_cell_angle_gamma                 100.773596
_cell_volume                      4329.91197679

loop_
_atom_site_label
_atom_site_type_symbol
_atom_type_description
_atom_site_fract_x
_atom_site_fract_y
_atom_site_fract_z
_atom_type_partial_charge
C1    C     C_R   0.023228 0.759940 0.027700 -0.126987
C2    C     C_R   0.237651 0.576417 0.835159 -0.144753
C3    C     C_R   0.194882 0.437357 0.036050 -0.129614
C4    C     C_R   0.748796 0.474092 0.171527 -0.127989
C5    C     C_R   0.042803 0.328084 0.751326 -0.127740
C6    C     C_R   0.276373 0.449110 0.975540 0.059529
C7    C     C_R   0.032868 0.241766 0.744458 0.034825
C8    C     C_R   0.237029 0.554513 0.757814 0.043432
C9    C     C_R   0.988728 0.233335 0.043133 0.064889
C10   C     C_R   0.058726 0.863033 0.458800 -0.167106
C11   C     C_R   0.034335 0.803240 0.393911 -0.175747
C12   C     C_R   0.740923 0.531660 0.253796 0.034748
C13   C     C_R   0.082885 0.796624 0.310190 0.143924
C14   C     C_R   0.160674 0.845350 0.290572 -0.166880
C15   C     C_R   0.185491 0.905161 0.355728 -0.182183
C16   C     C_R   0.816380 0.509304 0.912216 -0.137484
C17   C     C_R   0.131976 0.917632 0.441166 0.118119
C18   C     C_R   0.141275 0.082029 0.509602 -0.165108
C19   C     C_R   0.111716 0.161319 0.584815 -0.166577
C20   C     C_R   0.077221 0.160323 0.665313 0.144270
C21   C     C_R   0.082228 0.080277 0.668847 -0.164555
C22   C     C_R   0.112290 0.000624 0.593188 -0.182465
C23   C     C_R   0.742413 0.459044 0.934681 0.067095
C24   C     C_R   0.136414 0.000293 0.513611 0.116329
C25   C     C_R   0.496692 0.562678 0.407221 -0.165165
C26   C     C_R   0.575176 0.533472 0.331388 -0.166415
C27   C     C_R   0.656607 0.572305 0.330545 0.144073
C28   C     C_R   0.006665 0.660724 0.242067 -0.145222
C29   C     C_R   0.656604 0.647067 0.404648 -0.164917
C30   C     C_R   0.577630 0.676628 0.480793 -0.182435
C31   C     C_R   0.498249 0.631042 0.483688 0.116138
C32   C     C_R   0.448257 0.634165 0.625846 -0.167023
C33   C     C_R   0.385517 0.610266 0.689896 -0.173471
C34   C     C_R   0.051003 0.738730 0.244779 0.040367
C35   C     C_R   0.298853 0.589149 0.695801 0.143661
C36   C     C_R   0.273552 0.599644 0.641233 -0.167999
C37   C     C_R   0.336498 0.624121 0.577112 -0.182572
C38   C     C_R   0.425515 0.637102 0.566306 0.118526
C39   C     C_R   0.675614 0.431064 0.900196 0.130214
C40   C     C_R   0.749983 0.430833 0.987751 -0.136706
C41   C     C_R   0.362916 0.404688 0.939639 0.132063
C42   C     C_R   0.455482 0.329076 0.957531 -0.227935
C43   C     C_R   0.371451 0.348042 0.970773 -0.172005
C44   C     C_R   0.439949 0.429202 0.883076 -0.278848
C45   C     C_R   0.261482 0.515340 0.959124 -0.126135
C46   C     C_R   0.523356 0.416131 0.874777 0.188947
C47   C     C_R   0.530320 0.369466 0.916010 0.189908
C48   C     C_R   0.608121 0.374100 0.925122 -0.281971
C49   C     C_R   0.672468 0.468818 0.850600 -0.175710
C50   C     C_R   0.597121 0.459715 0.836376 -0.226458
C51   C     C_R   0.806215 0.184044 0.183773 0.103069
C52   C     C_R   0.074564 0.739223 0.166530 -0.134784
C53   C     C_R   0.927958 0.863142 0.027618 0.130539
C54   C     C_R   0.848201 0.951934 0.008277 -0.231291
C55   C     C_R   0.887573 0.870465 0.981688 -0.172398
C56   C     C_R   0.975489 0.248342 0.826617 -0.126652
C57   C     C_R   0.929602 0.939805 0.100179 -0.281437
C58   C     C_R   0.889747 0.021793 0.127596 0.188641
C59   C     C_R   0.848109 0.027703 0.081549 0.192221
C60   C     C_R   0.806420 0.109148 0.110212 -0.279898
C61   C     C_R   0.847868 0.178542 0.228911 -0.162640
C62   C     C_R   0.889580 0.097823 0.201102 -0.227273
C63   C     C_R   0.827280 0.544107 0.248700 -0.129014
C64   C     C_R   0.943910 0.690584 0.951273 -0.133450
C65   C     C_R   0.964839 0.775078 0.002070 0.055441
C66   C     C_R   0.159226 0.508871 0.759071 -0.136033
C67   C     C_R   0.027148 0.314291 0.075530 -0.136216
C68   C     C_R   0.949521 0.246169 0.000079 -0.130512
H1    H     H_    0.054841 0.809845 0.066118 0.093152
H2    H     H_    0.974208 0.766141 0.410657 0.108194
H3    H     H_    0.200913 0.839190 0.225769 0.109150
H4    H     H_    0.695843 0.451622 0.151090 0.094853
H5    H     H_    0.242882 0.945963 0.340566 0.114883
H6    H     H_    0.158726 0.084019 0.449432 0.113804
H7    H     H_    0.109815 0.221843 0.579461 0.106693
H8    H     H_    0.059200 0.078214 0.729937 0.112172
H9    H     H_    0.109634 0.938345 0.597491 0.114284
H10   H     H_    0.436909 0.525455 0.407470 0.114269
H11   H     H_    0.572422 0.476112 0.275442 0.106896
H12   H     H_    0.952463 0.193674 0.844420 0.090437
H13   H     H_    0.717943 0.680289 0.405011 0.110796
H14   H     H_    0.579947 0.730602 0.538858 0.114413
H15   H     H_    0.516587 0.642207 0.618403 0.113599
H16   H     H_    0.839621 0.530701 0.861825 0.082988
H17   H     H_    0.406812 0.602855 0.731235 0.107588
H18   H     H_    0.206272 0.586442 0.646211 0.107306
H19   H     H_    0.317254 0.627117 0.532467 0.114076
H20   H     H_    0.610654 0.341258 0.960273 0.115358
H21   H     H_    0.724777 0.510634 0.827856 0.113338
H22   H     H_    0.460380 0.291148 0.987639 0.125489
H23   H     H_    0.130747 0.493756 0.714913 0.083810
H24   H     H_    0.593102 0.494539 0.803254 0.124956
H25   H     H_    0.313504 0.323961 0.010847 0.115392
H26   H     H_    0.435148 0.468248 0.854087 0.116838
H27   H     H_    0.773958 0.115015 0.076045 0.119185
H28   H     H_    0.992705 0.631012 0.285004 0.090402
H29   H     H_    0.847557 0.237005 0.285663 0.120159
H30   H     H_    0.817097 0.955438 0.971964 0.124774
H31   H     H_    0.921171 0.094695 0.237195 0.127360
H32   H     H_    0.886143 0.813182 0.925012 0.113835
H33   H     H_    0.959614 0.935474 0.136914 0.121681
H34   H     H_    0.053293 0.332072 0.121897 0.091379
H35   H     H_    0.712140 0.380105 0.007629 0.084580
H36   H     H_    0.120849 0.783307 0.141454 0.085393
H37   H     H_    0.845914 0.585141 0.300773 0.092514
H38   H     H_    0.900610 0.676033 0.920163 0.092342
H39   H     H_    0.309365 0.543091 0.916492 0.092766
H40   H     H_    0.904082 0.200826 0.976260 0.089513
H41   H     H_    0.279476 0.625115 0.861979 0.089032
H42   H     H_    0.182037 0.392488 0.064844 0.090470
H43   H     H_    0.083871 0.349011 0.701106 0.094418
H44   H     H_    0.015124 0.872113 0.524143 0.114175
N1    N     N_R   0.034930 0.670790 0.995440 -0.039184
N2    N     N_R   0.867000 0.509260 0.948460 -0.037509
N3    N     N_R   0.003780 0.616410 0.165900 -0.036165
N4    N     N_R   0.825670 0.461520 0.995440 -0.038716
N5    N     N_R   0.045120 0.664150 0.118920 -0.036709
N6    N     N_R   0.884940 0.497570 0.165910 -0.038972
N7    N     N_R   0.985840 0.628110 0.948460 -0.039161
N8    N     N_R   0.174330 0.538480 0.004560 -0.040995
N9    N     N_R   0.954880 0.335850 0.881080 -0.038549
N10   N     N_R   0.115060 0.502430 0.834090 -0.036737
N11   N     N_R   0.014160 0.371890 0.051540 -0.039250
N12   N     N_R   0.965070 0.329210 0.004560 -0.039759
N13   N     N_R   0.164150 0.545120 0.881070 -0.035927
N14   N     N_R   0.133000 0.490740 0.051540 -0.039449
N15   N     N_R   0.996220 0.383590 0.834100 -0.039171
N16   N     N_R   0.835850 0.454880 0.118930 -0.039466
Ni1   Ni    Ni4+2 0.103690 0.603690 0.000000 0.211303
Ni2   Ni    Ni4+2 0.896310 0.396310 0.000000 0.210308
Ni3   Ni    Ni4+2 0.991110 0.505800 0.892250 0.209813
Ni4   Ni    Ni4+2 0.008890 0.494200 0.107750 0.212390

loop_
_geom_bond_atom_site_label_1
_geom_bond_atom_site_label_2
_ccdc_geom_bond_type
C25   C31   A    
C2    H41   S    
C58   C62   A    
C6    C45   A    
N11   Ni4   S    
C27   C29   A    
C14   H3    S    
C54   C55   A    
C35   C36   A    
C51   C61   A    
N9    Ni2   S    
C3    C6    A    
C68   N12   A    
C3    N14   A    
N11   N12   A    
C8    C66   A    
C21   H8    S    
C26   C27   A    
C29   C30   A    
C64   N7    A    
N1    Ni1   S    
C18   C24   A    
C36   C37   A    
N9    N15   A    
C60   H27   S    
C30   C31   A    
N8    N14   A    
C10   C17   A    
C23   C40   A    
C16   H16   S    
C15   C17   A    
C18   C19   A    
N2    Ni3   S    
C33   H17   S    
C16   N2    A    
C43   H25   S    
N1    N7    A    
N6    N16   A    
C19   C20   A    
N3    N5    A    
C6    C41   S    
C55   H32   S    
N7    Ni3   S    
C66   N10   A    
C10   H44   S    
C32   C38   A    
C4    C12   A    
C53   C65   S    
N3    Ni4   S    
C52   N5    A    
C28   C34   A    
C59   C60   A    
C18   H6    S    
C13   C14   A    
C41   C43   A    
C1    N1    A    
C7    C56   A    
C44   C46   A    
C54   C59   A    
C53   C55   A    
C61   H29   S    
C11   H2    S    
C17   C24   S    
C4    N16   A    
C12   C27   S    
N8    Ni1   S    
C44   H26   S    
C5    C7    A    
C12   C63   A    
C53   C57   A    
C5    H43   S    
C36   H18   S    
C25   C26   A    
C1    H1    S    
C25   H10   S    
C67   N11   A    
C42   H22   S    
C8    C35   S    
C30   H14   S    
C9    C67   A    
C29   H13   S    
C37   C38   A    
C28   N3    A    
C1    C65   A    
C47   C48   A    
N14   Ni4   S    
C5    N15   A    
C48   H20   S    
N12   Ni2   S    
C56   N9    A    
C45   N8    A    
C50   H24   S    
C39   C49   A    
C49   C50   A    
C16   C23   A    
C41   C44   A    
C22   C24   A    
C63   H37   S    
C42   C43   A    
N10   Ni3   S    
C4    H4    S    
N5    Ni1   S    
C63   N6    A    
C32   H15   S    
C46   C47   A    
C52   H36   S    
C15   H5    S    
C3    H42   S    
C37   H19   S    
C2    C8    A    
C22   H9    S    
C49   H21   S    
N16   Ni2   S    
N2    N4    A    
C64   H38   S    
C66   H23   S    
C57   H33   S    
C46   C50   A    
C34   C52   A    
C26   H11   S    
C56   H12   S    
C31   C38   S    
C28   H28   S    
C32   C33   A    
N10   N13   A    
C19   H7    S    
C58   C59   A    
C9    C68   A    
C13   C34   S    
C64   C65   A    
C40   H35   S    
C11   C13   A    
C57   C58   A    
C40   N4    A    
C23   C39   S    
C33   C35   A    
C42   C47   A    
C61   C62   A    
N15   Ni3   S    
N6    Ni4   S    
C10   C11   A    
C62   H31   S    
C2    N13   A    
N13   Ni1   S    
N4    Ni2   S    
C20   C21   A    
C7    C20   S    
C14   C15   A    
C54   H30   S    
C51   C60   A    
C68   H40   S    
C21   C22   A    
C45   H39   S    
C67   H34   S    
C39   C48   A    
