data_mof_unit_54386.cif
_audit_creation_date              2012-10-26T19:03:45-0400
_audit_creation_method            fapswitch 2.2
_symmetry_space_group_name_H-M    P1
_symmetry_Int_Tables_number       1
_space_group_crystal_system       triclinic
_cell_length_a                    15.893897
_cell_length_b                    13.016302
_cell_length_c                    11.715089
_cell_angle_alpha                 100.104809
_cell_angle_beta                  93.965625
_cell_angle_gamma                 91.136426
_cell_volume                      2379.04685594

loop_
_atom_site_label
_atom_site_type_symbol
_atom_type_description
_atom_site_fract_x
_atom_site_fract_y
_atom_site_fract_z
_atom_type_partial_charge
C1    C     C_R   0.500052 0.299081 0.478565 0.539612
C2    C     C_R   0.502575 0.185657 0.467093 -0.002193
C3    C     C_R   0.497567 0.014271 0.347736 -0.139691
C4    C     C_R   0.340234 0.499975 0.500100 0.545467
C5    C     C_R   0.498405 0.121996 0.357388 -0.144177
C6    C     C_R   0.510066 0.140899 0.567540 -0.137131
C7    C     C_R   0.511437 0.032441 0.559996 0.045289
C8    C     C_R   0.503015 0.969125 0.447926 0.038258
C9    C     C_R   0.500250 0.861282 0.436660 -0.135450
C10   C     C_R   0.516054 0.876377 0.646255 -0.115353
C11   C     C_R   0.520709 0.985826 0.660995 -0.004428
C12   C     C_3   0.956319 0.470362 0.612074 -0.273224
C13   C     C_R   0.412277 0.416664 0.019807 -0.156173
C14   C     C_R   0.422318 0.416915 0.140213 0.155691
C15   C     C_R   0.538695 0.538437 0.157304 0.035602
C16   C     C_R   0.501978 0.700965 0.521680 0.552653
C17   C     C_R   0.532201 0.534110 0.034375 0.000360
C18   C     C_R   0.467970 0.471977 0.965878 -0.006929
C19   C     C_R   0.460608 0.465340 0.843731 0.043651
C20   C     C_R   0.577832 0.581893 0.855371 0.042923
C21   C     C_R   0.587395 0.590343 0.977532 -0.174203
C22   C     C_R   0.659812 0.499823 0.499821 0.553708
C23   C     C_3   0.917095 0.499838 0.497765 0.119704
C24   C     C_3   0.053653 0.474088 0.613810 -0.239531
C25   C     C_3   0.041096 0.422683 0.388941 -0.081729
C26   C     C_3   0.943868 0.415671 0.396703 -0.213098
C27   C     C_1   0.749406 0.499284 0.499326 -0.011877
C28   C     C_3   0.083041 0.499427 0.497541 0.037817
C29   C     C_3   0.536859 0.053306 0.781585 -0.259713
C30   C     C_3   0.554742 0.994619 0.883384 -0.305520
C31   C     C_3   0.578289 0.070518 0.996508 -0.449551
C32   C     C_3   0.359045 0.347134 0.185475 -0.218213
C33   C     C_3   0.357511 0.232820 0.122318 -0.330881
C34   C     C_3   0.952420 0.610107 0.482923 0.470324
C35   C     C_3   0.301861 0.163133 0.180332 -0.466162
C36   C     C_3   0.080730 0.314312 0.354830 -0.260080
C37   C     C_3   0.088526 0.247288 0.450383 -0.284819
C38   C     C_3   0.108605 0.134883 0.400277 -0.456530
C39   C     C_3   0.051438 0.610074 0.488492 -0.180887
C40   C     C_1   0.824871 0.499112 0.498598 0.010527
C41   C     C_1   0.175240 0.500114 0.499212 -0.075324
C42   C     C_1   0.250723 0.500162 0.500029 -0.044555
C43   C     C_R   0.505552 0.814662 0.535192 -0.015365
Cu1   Cu    Cu3+1 0.506190 0.507730 0.615930 0.931469
Cu2   Cu    Cu3+1 0.493810 0.492270 0.384070 0.927742
H1    H     H_    0.934220 0.390256 0.619500 0.112730
H2    H     H_    0.078675 0.400063 0.633686 0.120580
H3    H     H_    0.620860 0.625455 0.812736 0.126740
H4    H     H_    0.360921 0.372001 0.966951 0.080059
H5    H     H_    0.637628 0.640057 0.026691 0.093573
H6    H     H_    0.587130 0.587981 0.210657 0.125765
H7    H     H_    0.050562 0.460645 0.312291 0.127732
H8    H     H_    0.923173 0.336863 0.410282 0.105012
H9    H     H_    0.911410 0.426832 0.312659 0.144464
H10   H     H_    0.079293 0.667880 0.563751 0.098950
H11   H     H_    0.074784 0.635253 0.409928 0.109846
H12   H     H_    0.079113 0.535531 0.687167 0.112655
H13   H     H_    0.937635 0.703342 0.370130 0.340423
H14   H     H_    0.638716 0.112951 0.990581 0.157324
H15   H     H_    0.528216 0.127947 0.014432 0.146270
H16   H     H_    0.585807 0.026831 0.069744 0.141506
H17   H     H_    0.497617 0.947967 0.895049 0.157610
H18   H     H_    0.608158 0.941686 0.865575 0.163419
H19   H     H_    0.592545 0.105856 0.779356 0.149181
H20   H     H_    0.481124 0.102200 0.799957 0.135245
H21   H     H_    0.325175 0.165643 0.272395 0.155054
H22   H     H_    0.235749 0.189223 0.177183 0.146224
H23   H     H_    0.935439 0.523189 0.689398 0.116869
H24   H     H_    0.302932 0.081214 0.133747 0.148374
H25   H     H_    0.332423 0.225833 0.030452 0.151803
H26   H     H_    0.422473 0.203765 0.123030 0.156643
H27   H     H_    0.371300 0.344009 0.277029 0.216922
H28   H     H_    0.295091 0.378830 0.174691 0.115699
H29   H     H_    0.056861 0.098451 0.336553 0.152604
H30   H     H_    0.168648 0.132691 0.356860 0.150277
H31   H     H_    0.115430 0.088821 0.471502 0.145331
H32   H     H_    0.141152 0.279157 0.514897 0.161017
H33   H     H_    0.029055 0.246607 0.494669 0.162056
H34   H     H_    0.493369 0.813615 0.350560 0.125469
H35   H     H_    0.041977 0.270466 0.278334 0.136327
H36   H     H_    0.144618 0.325719 0.324870 0.137315
H37   H     H_    0.953765 0.683692 0.645129 0.298361
H38   H     H_    0.520818 0.837846 0.720782 0.129036
H39   H     H_    0.492659 0.966230 0.261874 0.102285
H40   H     H_    0.495431 0.155337 0.279135 0.129760
H41   H     H_    0.514141 0.191542 0.651470 0.120047
H42   H     H_    0.411482 0.416218 0.791208 0.112274
N1    N     N_R   0.515490 0.519350 0.790130 -0.228391
N2    N     N_R   0.484510 0.480650 0.209890 -0.226163
O1    O     O_R   0.504390 0.354460 0.582000 -0.508405
O2    O     O_3   0.924181 0.689145 0.569222 -0.688627
O3    O     O_R   0.493940 0.341410 0.386200 -0.521858
O4    O     O_R   0.384660 0.506540 0.597940 -0.497274
O5    O     O_R   0.374210 0.493480 0.402140 -0.520041
O6    O     O_R   0.506060 0.658590 0.613800 -0.506977
O7    O     O_R   0.495610 0.645540 0.418000 -0.503827
O8    O     O_R   0.625790 0.506520 0.597860 -0.500758
O9    O     O_R   0.615340 0.493460 0.402060 -0.494500
O10   O     O_3   0.921596 0.629845 0.373476 -0.690015

loop_
_geom_bond_atom_site_label_1
_geom_bond_atom_site_label_2
_ccdc_geom_bond_type
C1    O1    A    
C22   O9    A    
C41   C42   T    
C31   H16   S    
C7    C8    A    
C32   H27   S    
C38   H31   S    
C25   C28   S    
C7    C11   A    
C12   H23   S    
C12   C23   S    
C37   C38   S    
C13   C18   A    
C36   C37   S    
C1    C2    S    
C19   H42   S    
Cu2   O9    S    
C30   C31   S    
C23   C40   S    
C10   H38   S    
C18   C19   A    
C9    H34   S    
C23   C26   S    
C31   H14   S    
Cu2   O3    S    
C34   O2    S    
Cu1   O4    S    
C39   H10   S    
C24   H12   S    
C15   H6    S    
Cu2   N2    S    
C27   C40   T    
C5    H40   S    
C29   H19   S    
C22   O8    A    
C13   C14   A    
C2    C6    A    
Cu2   O5    S    
C26   H9    S    
C21   H5    S    
C34   O10   S    
C38   H30   S    
C9    C43   A    
C16   O7    A    
C34   C39   S    
C12   H1    S    
C19   N1    A    
C36   H35   S    
C32   H28   S    
C8    C9    A    
C28   C39   S    
C25   C26   S    
C37   H32   S    
C17   C21   A    
H37   O2    S    
C31   H15   S    
C14   N2    A    
C29   C30   S    
C15   N2    A    
Cu1   O8    S    
C39   H11   S    
C35   H22   S    
C36   H36   S    
C23   C34   S    
C17   C18   A    
C16   C43   S    
C35   H24   S    
C20   H3    S    
C33   H25   S    
C4    O5    A    
C3    C8    A    
C1    O3    A    
C22   C27   S    
C30   H17   S    
C13   H4    S    
C2    C5    A    
C26   H8    S    
Cu1   O1    S    
Cu1   Cu2   S    
C38   H29   S    
C15   C17   A    
C16   O6    A    
C10   C43   A    
C24   H2    S    
H13   O10   S    
C24   C28   S    
C14   C32   S    
C3    C5    A    
C6    H41   S    
C29   H20   S    
C6    C7    A    
C37   H33   S    
C12   C24   S    
C35   H21   S    
C32   C33   S    
C25   H7    S    
Cu1   O6    S    
C4    C42   S    
C20   N1    A    
C30   H18   S    
C33   C35   S    
C10   C11   A    
C33   H26   S    
C25   C36   S    
C4    O4    A    
C20   C21   A    
C11   C29   S    
C3    H39   S    
Cu1   N1    S    
Cu2   O7    S    
C28   C41   S    
