data_mof_unit_40372.cif
_audit_creation_date              2012-12-10T17:43:52-0500
_audit_creation_method            fapswitch 2.2
_symmetry_space_group_name_H-M    P1
_symmetry_Int_Tables_number       1
_space_group_crystal_system       triclinic
_cell_length_a                    15.867134
_cell_length_b                    15.019525
_cell_length_c                    13.786331
_cell_angle_alpha                 90.272009
_cell_angle_beta                  90.819661
_cell_angle_gamma                 88.758621
_cell_volume                      3284.3749149

loop_
_atom_site_label
_atom_site_type_symbol
_atom_type_description
_atom_site_fract_x
_atom_site_fract_y
_atom_site_fract_z
_atom_type_partial_charge
C1    C     C_R   0.502432 0.328986 0.500119 0.810531
C2    C     C_R   0.497723 0.671069 0.500506 0.826767
C3    C     C_R   0.496368 0.767604 0.503102 -0.170391
C4    C     C_R   0.504232 0.232531 0.501327 -0.165004
C5    C     C_R   0.573189 0.810584 0.504158 -0.267852
C6    C     C_R   0.427559 0.189623 0.503776 -0.259043
C7    C     C_R   0.575751 0.903114 0.512427 -0.032518
C8    C     C_R   0.425214 0.097263 0.513101 -0.033730
C9    C     C_R   0.499414 0.953319 0.514421 -0.120982
C10   C     C_R   0.501571 0.047013 0.513767 -0.125065
C11   C     C_R   0.421065 0.909872 0.517328 -0.129121
C12   C     C_R   0.580003 0.090415 0.512817 -0.113386
C13   C     C_R   0.653451 0.946344 0.519487 0.356444
C14   C     C_R   0.347767 0.054329 0.522378 0.365052
C15   C     C_R   0.655361 0.039071 0.517058 0.522841
C16   C     C_R   0.345999 0.961497 0.523845 0.519835
C17   C     C_R   0.561427 0.454028 0.795535 0.501607
C18   C     C_R   0.446115 0.555732 0.204839 0.540444
C19   C     C_R   0.436732 0.544187 0.792189 0.702446
C20   C     C_R   0.554217 0.444232 0.207291 0.696310
C21   C     C_R   0.432561 0.542620 0.895378 -0.224441
C22   C     C_R   0.555072 0.441653 0.104168 -0.230959
C23   C     C_R   0.339826 0.499095 0.499405 0.828884
C24   C     C_R   0.660243 0.498942 0.500545 0.807702
C25   C     C_R   0.493121 0.491813 0.948170 -0.118551
C26   C     C_R   0.493870 0.492025 0.051604 -0.124165
C27   C     C_R   0.553991 0.441806 0.897501 -0.236308
C28   C     C_R   0.435022 0.544831 0.102419 -0.228207
C29   C     C_R   0.368300 0.588191 0.947029 0.391822
C30   C     C_R   0.614167 0.389035 0.052026 0.407919
C31   C     C_R   0.367274 0.585301 0.049512 0.328723
C32   C     C_R   0.608517 0.383313 0.950111 0.346843
C33   C     C_3   0.975586 0.434435 0.574688 -0.305383
C34   C     C_3   0.024809 0.536782 0.425297 -0.312593
C35   C     C_3   0.031281 0.404273 0.489226 0.541816
C36   C     C_3   0.969753 0.566927 0.510930 0.554122
C37   C     C_1   0.250220 0.495081 0.498352 -0.161024
C38   C     C_1   0.750024 0.493274 0.501319 -0.172280
C39   C     C_3   0.028474 0.519899 0.585519 -0.291248
C40   C     C_3   0.972209 0.451135 0.414487 -0.310766
C41   C     C_3   0.083195 0.488351 0.499617 0.080053
C42   C     C_3   0.917363 0.483219 0.500246 0.079103
C43   C     C_1   0.174785 0.491530 0.498556 -0.002293
C44   C     C_1   0.825581 0.487770 0.501019 -0.010961
C45   C     C_R   0.420016 0.815939 0.513238 0.432789
C46   C     C_R   0.581033 0.184092 0.508118 0.428708
Cu1   Cu    Cu3+1 0.500010 0.499990 0.597420 1.030759
Cu2   Cu    Cu3+1 0.499990 0.500010 0.402580 1.000159
H1    H     H_    0.954911 0.389478 0.632846 0.155398
H2    H     H_    0.044436 0.578995 0.364462 0.162323
H3    H     H_    0.949322 0.422830 0.344799 0.151752
H4    H     H_    0.053078 0.547968 0.654610 0.156115
H5    H     H_    0.631050 0.771060 0.499856 0.177044
H6    H     H_    0.369687 0.229313 0.500409 0.175131
N1    N     N_R   0.499960 0.499930 0.743810 -0.286192
N2    N     N_R   0.500040 0.500070 0.256190 -0.275597
O1    O     O_R   0.500020 0.370250 0.582280 -0.560696
O2    O     O_R   0.499980 0.629750 0.417720 -0.579511
O3    O     O_R   0.500010 0.370270 0.417740 -0.560978
O4    O     O_R   0.499990 0.629730 0.582260 -0.541212
O5    O     O_R   0.379080 0.499980 0.582260 -0.513762
O6    O     O_R   0.620920 0.500020 0.417740 -0.552021
O7    O     O_R   0.379070 0.500000 0.417710 -0.576147
O8    O     O_R   0.620930 0.500000 0.582290 -0.558671
O9    O     O_3   0.070814 0.319523 0.481438 -0.609043
C47   C     C_3   0.009879 0.254229 0.463390 0.029335
H7    H     H_    0.997286 0.250450 0.384078 0.156087
H8    H     H_    0.949790 0.268268 0.501992 0.138655
C48   C     C_3   0.044398 0.164048 0.498150 -0.324983
H9    H     H_    0.103305 0.146860 0.458939 0.265360
H10   H     H_    0.059241 0.168356 0.576999 0.220077
C49   C     C_3   0.980715 0.090627 0.481240 -0.876303
H11   H     H_    0.922585 0.104724 0.523113 0.279802
H12   H     H_    0.008452 0.025912 0.505733 0.254204
H13   H     H_    0.964136 0.085360 0.402900 0.261985
O10   O     O_3   0.931252 0.651963 0.521352 -0.612688
C50   C     C_3   0.992575 0.717367 0.538316 0.048571
H14   H     H_    0.977914 0.774236 0.489212 0.180731
H15   H     H_    0.058202 0.694727 0.522635 0.130974
C51   C     C_3   0.988040 0.749869 0.643326 -0.361172
H16   H     H_    0.922662 0.772525 0.658569 0.232052
H17   H     H_    0.004481 0.694340 0.693420 0.210918
C52   C     C_3   0.047998 0.826298 0.662322 -0.903681
H18   H     H_    0.114133 0.803983 0.649683 0.275686
H19   H     H_    0.042364 0.848893 0.738785 0.256506
H20   H     H_    0.032078 0.883337 0.614003 0.257287
O11   O     O_3   0.300875 0.627496 0.897662 -0.555685
C53   C     C_3   0.311534 0.720542 0.896351 0.123032
H21   H     H_    0.372832 0.737294 0.863034 0.145154
H22   H     H_    0.309217 0.748715 0.971176 0.139963
C54   C     C_3   0.240122 0.763015 0.835891 -0.279254
H23   H     H_    0.241834 0.735738 0.760799 0.265189
H24   H     H_    0.178561 0.746458 0.868022 0.210146
C55   C     C_3   0.247640 0.863940 0.832080 -0.938656
H25   H     H_    0.246045 0.892839 0.906355 0.251709
H26   H     H_    0.193915 0.892569 0.789417 0.268597
H27   H     H_    0.307390 0.881992 0.796830 0.267944
O12   O     O_3   0.679190 0.343554 0.099453 -0.562005
C56   C     C_3   0.755282 0.390465 0.088662 0.122640
H28   H     H_    0.771980 0.420848 0.159681 0.164642
H29   H     H_    0.751777 0.446168 0.035028 0.097101
C57   C     C_3   0.825824 0.325779 0.057535 -0.317049
H30   H     H_    0.828050 0.266678 0.105577 0.222634
H31   H     H_    0.813082 0.302327 0.982333 0.239638
C58   C     C_3   0.911461 0.370107 0.061265 -0.954031
H32   H     H_    0.911249 0.429059 0.012913 0.263249
H33   H     H_    0.961017 0.322109 0.036778 0.263198
H34   H     H_    0.926836 0.391271 0.136680 0.259136
O13   O     O_3   0.297014 0.619607 0.096252 -0.606625
C59   C     C_3   0.245906 0.548760 0.125744 0.117148
H35   H     H_    0.261262 0.532557 0.202693 0.165628
H36   H     H_    0.254551 0.486760 0.081349 0.124949
C60   C     C_3   0.153257 0.577960 0.116843 -0.333879
H37   H     H_    0.142486 0.640822 0.157873 0.229849
H38   H     H_    0.137225 0.590846 0.039336 0.233917
C61   C     C_3   0.095377 0.506768 0.155368 -0.948926
H39   H     H_    0.101267 0.445062 0.111034 0.267349
H40   H     H_    0.028924 0.531372 0.151571 0.260932
H41   H     H_    0.111759 0.491023 0.232062 0.263880
O14   O     O_3   0.660375 0.322646 0.902688 -0.602975
C62   C     C_3   0.612615 0.247709 0.876508 0.094157
H42   H     H_    0.553418 0.267367 0.836708 0.144690
H43   H     H_    0.596251 0.209977 0.942772 0.143274
C63   C     C_3   0.664855 0.187195 0.809974 -0.296840
H44   H     H_    0.683268 0.225162 0.744825 0.264344
H45   H     H_    0.723198 0.164502 0.848956 0.207990
C64   C     C_3   0.615150 0.106115 0.777524 -0.912817
H46   H     H_    0.596350 0.066778 0.841398 0.245668
H47   H     H_    0.654825 0.062951 0.730379 0.259990
H48   H     H_    0.557836 0.127323 0.735727 0.258917
O15   O     O_3   0.345445 0.771311 0.525521 -0.565119
C65   C     C_3   0.309549 0.752832 0.433550 0.117319
H49   H     H_    0.339433 0.691367 0.403833 0.177902
H50   H     H_    0.316606 0.808989 0.381667 0.129734
C66   C     C_3   0.215523 0.737295 0.444020 -0.294834
H51   H     H_    0.206025 0.683074 0.496924 0.211099
H52   H     H_    0.183688 0.798616 0.471752 0.271891
C67   C     C_3   0.175601 0.712558 0.346646 -0.955714
H53   H     H_    0.193565 0.760133 0.289444 0.270428
H54   H     H_    0.105990 0.715280 0.352259 0.243761
H55   H     H_    0.196385 0.644197 0.325575 0.272326
O16   O     O_3   0.656812 0.227898 0.515414 -0.589782
C68   C     C_3   0.680496 0.256514 0.422472 0.148956
H56   H     H_    0.655593 0.324986 0.411436 0.206819
H57   H     H_    0.657019 0.212867 0.362373 0.149142
C69   C     C_3   0.776353 0.258688 0.416914 -0.329447
H58   H     H_    0.801866 0.297889 0.478745 0.212662
H59   H     H_    0.803224 0.189976 0.420861 0.269419
C70   C     C_3   0.802578 0.300325 0.321871 -0.905463
H60   H     H_    0.770039 0.267317 0.260205 0.294935
H61   H     H_    0.871317 0.291696 0.312006 0.225835
H62   H     H_    0.786097 0.372515 0.322044 0.280241
O17   O     O_3   0.728776 0.898367 0.527175 -0.575642
C71   C     C_3   0.743866 0.874305 0.625420 0.056012
H63   H     H_    0.768879 0.804659 0.626246 0.161920
H64   H     H_    0.685975 0.874732 0.670790 0.118007
C72   C     C_3   0.810057 0.934763 0.671599 -0.307430
H65   H     H_    0.870044 0.927657 0.631415 0.235607
H66   H     H_    0.788517 0.005328 0.667176 0.260342
C73   C     C_3   0.825684 0.912178 0.778273 -0.962036
H67   H     H_    0.767514 0.925328 0.820403 0.261922
H68   H     H_    0.876589 0.954350 0.808134 0.265608
H69   H     H_    0.845082 0.841155 0.786721 0.254966
O18   O     O_3   0.272054 0.102071 0.522527 -0.589152
C74   C     C_3   0.256634 0.136946 0.616438 0.033391
H70   H     H_    0.216481 0.197946 0.607480 0.185360
H71   H     H_    0.314977 0.158102 0.655579 0.123117
C75   C     C_3   0.209612 0.069871 0.677793 -0.311661
H72   H     H_    0.154851 0.044086 0.635999 0.252859
H73   H     H_    0.252857 0.013133 0.695642 0.238047
C76   C     C_3   0.178602 0.111921 0.772064 -0.952470
H74   H     H_    0.232678 0.136665 0.815751 0.262337
H75   H     H_    0.145527 0.061399 0.815047 0.262681
H76   H     H_    0.133882 0.168113 0.756363 0.259354
F1    F     F_    0.731728 0.077812 0.519044 -0.670199
F2    F     F_    0.269850 0.923066 0.531012 -0.666565
O19   O     O_3   0.633513 0.423967 0.749164 -0.546131
C77   C     C_3   0.701344 0.480241 0.775355 0.137485
H77   H     H_    0.700092 0.502508 0.852626 0.097498
H78   H     H_    0.698896 0.541328 0.730168 0.141662
C78   C     C_3   0.785521 0.431040 0.760165 -0.307606
H79   H     H_    0.789324 0.371304 0.807235 0.244441
H80   H     H_    0.790309 0.408312 0.683708 0.220597
C79   C     C_3   0.859369 0.490922 0.785503 -0.961365
H81   H     H_    0.862465 0.546328 0.732633 0.272279
H82   H     H_    0.919332 0.451663 0.783684 0.260865
H83   H     H_    0.852541 0.518919 0.859772 0.250740
O20   O     O_3   0.409012 0.626947 0.253316 -0.581175
C80   C     C_3   0.438543 0.710068 0.218759 0.083391
H84   H     H_    0.416896 0.762124 0.270354 0.142206
H85   H     H_    0.408561 0.728036 0.148202 0.153286
C81   C     C_3   0.535453 0.716459 0.211057 -0.408689
H86   H     H_    0.567561 0.689202 0.276604 0.256046
H87   H     H_    0.557805 0.677454 0.147370 0.192590
C82   C     C_3   0.561722 0.812846 0.198676 -0.894261
H88   H     H_    0.531097 0.842106 0.132878 0.247780
H89   H     H_    0.631174 0.815187 0.190694 0.263387
H90   H     H_    0.543698 0.853067 0.263303 0.264364
F3    F     F_    0.379553 0.593093 0.740055 -0.621106
F4    F     F_    0.608203 0.391438 0.258943 -0.663421

loop_
_geom_bond_atom_site_label_1
_geom_bond_atom_site_label_2
_ccdc_geom_bond_type
C66   C67   S    
C47   H8    S    
C76   H74   S    
C74   H70   S    
C68   C69   S    
C49   H12   S    
C36   C42   S    
Cu2   N2    S    
O11   C53   S    
C64   H47   S    
C77   H77   S    
C66   H51   S    
C39   C41   S    
C4    C46   A    
C50   H14   S    
C61   H39   S    
C29   O11   S    
C58   H33   S    
C33   C39   S    
C52   H18   S    
C34   C40   S    
C33   C42   S    
C63   H45   S    
O18   C74   S    
C19   C21   A    
C6    H6    S    
C60   H37   S    
C2    C3    S    
C48   H9    S    
C70   H61   S    
C51   H16   S    
C2    O4    A    
C23   O7    A    
C78   C79   S    
C47   C48   S    
Cu1   O1    S    
C35   O9    S    
C17   O19   S    
C68   H56   S    
C79   H81   S    
C57   C58   S    
C68   H57   S    
C48   H10   S    
C59   H35   S    
C20   F4    S    
C62   C63   S    
C36   O10   S    
Cu1   O4    S    
C75   C76   S    
Cu1   Cu2   S    
C61   H40   S    
C65   H49   S    
C24   C38   S    
C53   C54   S    
C9    C10   A    
C17   N1    A    
C71   H64   S    
C18   N2    A    
C82   H90   S    
C16   F2    S    
C75   H73   S    
C47   H7    S    
C72   H66   S    
C72   H65   S    
C41   C43   S    
C55   H25   S    
C34   C41   S    
C42   C44   S    
C32   O14   S    
C49   H13   S    
C58   H34   S    
C69   H59   S    
C78   H80   S    
C76   H76   S    
C34   H2    S    
C28   C31   A    
C46   O16   S    
C17   C27   A    
C73   H69   S    
C18   C28   A    
O10   C50   S    
C71   C72   S    
C4    C6    A    
C70   H62   S    
C54   H23   S    
C5    C7    A    
C49   H11   S    
Cu2   O7    S    
C6    C8    A    
C55   H27   S    
C25   C26   A    
C78   H79   S    
C21   C29   A    
C3    C45   A    
C24   O8    A    
C60   H38   S    
O20   C80   S    
C12   C46   A    
C73   H68   S    
C37   C43   T    
C80   C81   S    
C57   H31   S    
C81   C82   S    
C38   C44   T    
C1    O1    A    
C54   H24   S    
C69   C70   S    
C76   H75   S    
C11   C16   A    
Cu2   O6    S    
C56   H28   S    
C12   C15   A    
C7    C13   A    
C56   C57   S    
C31   O13   S    
C50   H15   S    
C55   H26   S    
C9    C11   A    
C59   C60   S    
C13   O17   S    
C62   H42   S    
C10   C12   A    
C65   H50   S    
C8    C10   A    
C75   H72   S    
C56   H29   S    
C53   H22   S    
O19   C77   S    
C72   C73   S    
C13   C15   A    
C24   O6    A    
C14   C16   A    
C11   C45   A    
O15   C65   S    
Cu1   O8    S    
C48   C49   S    
O14   C62   S    
Cu2   O3    S    
Cu1   N1    S    
C69   H58   S    
C50   C51   S    
C19   N1    A    
C80   H84   S    
C66   H52   S    
C21   C25   A    
C8    C14   A    
C22   C30   A    
C52   H19   S    
C27   C32   A    
C26   C28   A    
C36   C39   S    
C20   C22   A    
C40   C42   S    
C3    C5    A    
C67   H55   S    
Cu1   O5    S    
C77   H78   S    
Cu2   O2    S    
C2    O2    A    
C45   O15   S    
C74   C75   S    
C67   H54   S    
C25   C27   A    
C40   H3    S    
C58   H32   S    
C30   O12   S    
C19   F3    S    
C61   H41   S    
C15   F1    S    
C1    C4    S    
C79   H83   S    
C73   H67   S    
C60   C61   S    
C1    O3    A    
C35   C40   S    
C5    H5    S    
C64   H48   S    
C29   C31   A    
C23   C37   S    
C70   H60   S    
C81   H86   S    
C54   C55   S    
C30   C32   A    
C65   C66   S    
C18   O20   S    
C51   C52   S    
C33   C35   S    
C51   H17   S    
C79   H82   S    
C39   H4    S    
C34   C36   S    
C20   N2    A    
O9    C47   S    
C14   O18   S    
C57   H30   S    
C35   C41   S    
C59   H36   S    
C62   H43   S    
C77   C78   S    
C67   H53   S    
C82   H88   S    
C7    C9    A    
C71   H63   S    
C23   O5    A    
C52   H20   S    
C53   H21   S    
C74   H71   S    
O12   C56   S    
C22   C26   A    
C63   C64   S    
O16   C68   S    
C80   H85   S    
O17   C71   S    
O13   C59   S    
C33   H1    S    
C64   H46   S    
C81   H87   S    
C63   H44   S    
C82   H89   S    
