data_mof_unit_52102.cif
_audit_creation_date              2012-12-10T17:43:17-0500
_audit_creation_method            fapswitch 2.2
_symmetry_space_group_name_H-M    P1
_symmetry_Int_Tables_number       1
_space_group_crystal_system       triclinic
_cell_length_a                    14.966666
_cell_length_b                    13.872273
_cell_length_c                    10.637345
_cell_angle_alpha                 89.993346
_cell_angle_beta                  87.761624
_cell_angle_gamma                 90.031063
_cell_volume                      2206.85789738

loop_
_atom_site_label
_atom_site_type_symbol
_atom_type_description
_atom_site_fract_x
_atom_site_fract_y
_atom_site_fract_z
_atom_type_partial_charge
C1    C     C_R   0.329183 0.499855 0.499780 0.790180
C2    C     C_R   0.670818 0.499957 0.500163 0.791799
C3    C     C_R   0.953132 0.499435 0.499877 0.003534
C4    C     C_R   0.046887 0.498389 0.500951 0.017870
C5    C     C_R   0.909542 0.497325 0.383914 0.096155
C6    C     C_R   0.090522 0.499777 0.617020 0.062585
C7    C     C_R   0.945945 0.504622 0.729156 -0.231372
C8    C     C_R   0.053887 0.494354 0.271463 -0.284821
C9    C     C_R   0.039140 0.502726 0.731670 0.251043
C10   C     C_R   0.960491 0.496227 0.269250 0.250284
C11   C     C_R   0.445308 0.794255 0.584634 0.376873
C12   C     C_R   0.559842 0.207144 0.423012 0.373550
C13   C     C_R   0.554768 0.794243 0.415348 0.376740
C14   C     C_R   0.440046 0.207051 0.576787 0.374816
C15   C     C_R   0.563148 0.897079 0.425010 -0.106805
C16   C     C_R   0.433837 0.103829 0.570831 -0.089309
C17   C     C_R   0.436836 0.897024 0.574735 -0.106744
C18   C     C_R   0.566062 0.103928 0.428905 -0.089298
C19   C     C_R   0.499983 0.948844 0.499863 -0.111843
C20   C     C_R   0.499968 0.052209 0.499877 -0.114176
C21   C     C_R   0.634429 0.948851 0.365179 0.319836
C22   C     C_R   0.364129 0.051030 0.633491 0.312478
C23   C     C_R   0.365469 0.948653 0.634413 0.319734
C24   C     C_R   0.635722 0.051237 0.366097 0.311944
C25   C     C_R   0.499235 0.500137 0.259709 0.833674
C26   C     C_R   0.500669 0.500117 0.740312 0.833250
C27   C     C_3   0.457430 0.581457 0.043298 -0.256448
C28   C     C_3   0.542395 0.420589 0.956913 -0.290737
C29   C     C_3   0.543627 0.580682 0.956622 -0.257036
C30   C     C_3   0.456098 0.421353 0.043323 -0.288789
C31   C     C_3   0.417586 0.501743 0.962225 0.445353
C32   C     C_3   0.582170 0.500336 0.037850 0.441227
C33   C     C_3   0.501691 0.500785 0.876863 -0.045429
C34   C     C_3   0.498085 0.500866 0.123195 -0.046200
C35   C     C_R   0.815974 0.495552 0.385890 -0.249342
C36   C     C_R   0.184187 0.499844 0.614588 -0.268662
C37   C     C_R   0.767115 0.499831 0.500065 -0.065966
C38   C     C_R   0.232866 0.499201 0.500144 -0.049047
C39   C     C_R   0.809720 0.503698 0.614078 -0.216218
C40   C     C_R   0.190163 0.496648 0.386232 -0.217062
C41   C     C_R   0.902802 0.502676 0.614938 0.075452
C42   C     C_R   0.097107 0.496082 0.385678 0.098795
Cu1   Cu    Cu3+1 0.500000 0.597420 0.500000 0.965948
Cu2   Cu    Cu3+1 0.500000 0.402580 0.500000 0.975137
H1    H     H_    0.421167 0.645884 0.080328 0.152526
H2    H     H_    0.580101 0.356862 0.920872 0.145992
H3    H     H_    0.580938 0.644443 0.919478 0.152514
H4    H     H_    0.417547 0.358228 0.079644 0.145025
H5    H     H_    0.780406 0.490839 0.299334 0.197548
H6    H     H_    0.220413 0.501012 0.700527 0.169733
H7    H     H_    0.770191 0.506635 0.701739 0.113602
H8    H     H_    0.229604 0.495484 0.298419 0.112681
H9    H     H_    0.907101 0.506806 0.817295 0.153529
H10   H     H_    0.092831 0.493099 0.183403 0.147463
N1    N     N_R   0.500000 0.743810 0.500000 -0.225455
N2    N     N_R   0.500000 0.256190 0.500000 -0.235106
O1    O     O_R   0.370260 0.582280 0.500030 -0.585477
O2    O     O_R   0.629740 0.417720 0.499970 -0.567274
O3    O     O_R   0.629740 0.582280 0.499970 -0.585143
O4    O     O_R   0.370260 0.417720 0.500030 -0.568443
O5    O     O_R   0.499980 0.582260 0.316850 -0.565601
O6    O     O_R   0.500020 0.417740 0.683150 -0.563340
O7    O     O_R   0.500020 0.582260 0.683150 -0.565439
O8    O     O_R   0.499980 0.417740 0.316850 -0.563601
O9    O     O_3   0.330899 0.502257 0.917882 -0.784789
H11   H     H_    0.290706 0.503093 0.994165 0.310655
O10   O     O_3   0.668829 0.499489 0.082245 -0.770103
H12   H     H_    0.708942 0.496262 0.006005 0.316238
N3    N     N_2   0.079057 0.503816 0.850878 -0.441083
H13   H     H_    0.130368 0.455185 0.860550 0.263037
C43   C     C_3   0.099373 0.599232 0.896338 -0.690703
H14   H     H_    0.123775 0.594330 0.993297 0.221125
H15   H     H_    0.038551 0.645135 0.898081 0.236882
H16   H     H_    0.152057 0.633335 0.834939 0.230250
N4    N     N_2   0.918605 0.498453 0.151339 -0.423919
H17   H     H_    0.953689 0.462056 0.080698 0.271543
C44   C     C_3   0.893180 0.594152 0.112185 -0.670673
H18   H     H_    0.858849 0.589900 0.021742 0.221919
H19   H     H_    0.953318 0.640601 0.099376 0.223933
H20   H     H_    0.846754 0.627600 0.183287 0.233050
N5    N     N_2   0.413027 0.747357 0.696986 -0.376433
H21   H     H_    0.428266 0.782787 0.778709 0.235269
C45   C     C_3   0.324450 0.704881 0.701406 -0.455860
H22   H     H_    0.283047 0.736797 0.779674 0.211379
H23   H     H_    0.329732 0.627090 0.722563 0.229184
H24   H     H_    0.289732 0.715917 0.612042 0.230092
N6    N     N_2   0.612324 0.261530 0.334199 -0.344216
H25   H     H_    0.679639 0.265669 0.350382 0.293925
C46   C     C_3   0.589694 0.249997 0.203749 -0.595877
H26   H     H_    0.608599 0.177910 0.166957 0.218259
H27   H     H_    0.625725 0.305108 0.145821 0.243077
H28   H     H_    0.516697 0.258941 0.193664 0.214676
N7    N     N_2   0.587378 0.747146 0.303315 -0.375418
H29   H     H_    0.572148 0.782259 0.221362 0.235426
C47   C     C_3   0.676079 0.705008 0.299316 -0.458298
H30   H     H_    0.717526 0.737002 0.221097 0.212077
H31   H     H_    0.671185 0.627101 0.278287 0.228704
H32   H     H_    0.710598 0.716354 0.388784 0.229139
N8    N     N_2   0.387336 0.261379 0.665317 -0.344785
H33   H     H_    0.320060 0.265405 0.648862 0.291977
C48   C     C_3   0.409722 0.250069 0.795880 -0.601276
H34   H     H_    0.389940 0.178363 0.833165 0.219232
H35   H     H_    0.374284 0.305846 0.853327 0.240388
H36   H     H_    0.482804 0.258160 0.805997 0.215721
O11   O     O_3   0.706891 0.898703 0.315680 -0.770013
H37   H     H_    0.762315 0.933606 0.335874 0.338938
O12   O     O_3   0.292038 0.099592 0.687883 -0.765179
H38   H     H_    0.269933 0.063547 0.763324 0.333798
O13   O     O_3   0.292969 0.898352 0.683699 -0.769904
H39   H     H_    0.237558 0.933154 0.663339 0.338913
O14   O     O_3   0.707721 0.099926 0.311497 -0.763395
H40   H     H_    0.729695 0.063953 0.235961 0.334429

loop_
_geom_bond_atom_site_label_1
_geom_bond_atom_site_label_2
_ccdc_geom_bond_type
C14   N2    A    
N6    H25   S    
C48   H34   S    
C27   C29   S    
C39   H7    S    
C47   H30   S    
C26   O7    A    
C6    C9    A    
N5    H21   S    
C47   H32   S    
Cu1   O7    S    
C14   N8    S    
C39   C41   A    
C44   H18   S    
Cu2   O8    S    
C15   C19   A    
C28   H2    S    
N7    H29   S    
C29   H3    S    
C18   C24   A    
C30   H4    S    
C35   C37   A    
C8    C42   A    
C29   C32   S    
C30   C31   S    
C22   O12   S    
C29   C33   S    
C31   O9    S    
N3    C43   S    
C11   C17   A    
O14   H40   S    
Cu2   O2    S    
C35   H5    S    
O12   H38   S    
C31   C33   S    
C46   H27   S    
Cu1   O3    S    
C25   C34   S    
C27   H1    S    
C40   C42   A    
N7    C47   S    
C24   O14   S    
N5    C45   S    
C44   H19   S    
C27   C34   S    
C23   O13   S    
C30   C34   S    
C27   C31   S    
O10   H12   S    
C28   C32   S    
C4    C6    A    
C1    O4    A    
C8    H10   S    
C43   H15   S    
C2    O3    A    
C25   O5    A    
Cu2   O6    S    
C40   H8    S    
C11   N5    S    
C13   N7    S    
C25   O8    A    
C32   C34   S    
N4    H17   S    
C1    O1    A    
C10   N4    S    
Cu2   N2    S    
C26   C33   S    
C45   H22   S    
C15   C21   A    
C16   C20   A    
C2    O2    A    
C17   C23   A    
C46   H28   S    
N4    C44   S    
C12   N2    A    
C1    C38   S    
C32   O10   S    
Cu1   N1    S    
N8    C48   S    
C28   C33   S    
C48   H36   S    
C13   C15   A    
Cu1   Cu2   S    
C14   C16   A    
C7    H9    S    
C3    C4    A    
C36   H6    S    
Cu1   O5    S    
C44   H20   S    
C7    C9    A    
C3    C41   A    
C16   C22   A    
C12   N6    S    
C45   H23   S    
C8    C10   A    
C9    N3    S    
C3    C5    A    
C43   H16   S    
C47   H31   S    
O11   H37   S    
N8    H33   S    
C11   N1    A    
C19   C20   A    
C36   C38   A    
C26   O6    A    
C5    C10   A    
C37   C39   A    
O13   H39   S    
C38   C40   A    
C2    C37   S    
C4    C42   A    
Cu2   O4    S    
C5    C35   A    
C28   C30   S    
C17   C19   A    
C6    C36   A    
C18   C20   A    
C7    C41   A    
N3    H13   S    
Cu1   O1    S    
C43   H14   S    
C45   H24   S    
C48   H35   S    
O9    H11   S    
C21   C24   A    
C12   C18   A    
N6    C46   S    
C22   C23   A    
C46   H26   S    
C21   O11   S    
C13   N1    A    
