data_mof_unit_53873.cif
_audit_creation_date              2012-12-10T20:43:16-0500
_audit_creation_method            fapswitch 2.2
_symmetry_space_group_name_H-M    P1
_symmetry_Int_Tables_number       1
_space_group_crystal_system       triclinic
_cell_length_a                    15.832942
_cell_length_b                    10.640546
_cell_length_c                    9.888092
_cell_angle_alpha                 89.625647
_cell_angle_beta                  90.582255
_cell_angle_gamma                 90.367324
_cell_volume                      1665.70310398

loop_
_atom_site_label
_atom_site_type_symbol
_atom_type_description
_atom_site_fract_x
_atom_site_fract_y
_atom_site_fract_z
_atom_type_partial_charge
C1    C     C_R   0.503633 0.260578 0.500677 0.871901
C2    C     C_R   0.045192 0.479462 0.622973 0.099058
C3    C     C_1   0.823592 0.492220 0.501686 -0.073328
C4    C     C_1   0.176436 0.489420 0.497840 -0.074156
C5    C     C_1   0.251208 0.494493 0.498159 -0.181421
C6    C     C_1   0.748821 0.496339 0.501760 -0.190289
C7    C     C_R   0.465048 0.062483 0.594794 0.058734
C8    C     C_R   0.514847 0.129214 0.504841 -0.155899
C9    C     C_R   0.578601 0.067762 0.430808 0.065434
C10   C     C_R   0.577140 0.935234 0.426912 0.111887
C11   C     C_R   0.514015 0.871297 0.501867 -0.178547
C12   C     C_R   0.339475 0.499624 0.499389 0.924795
C13   C     C_R   0.464592 0.935171 0.593009 0.074068
C14   C     C_3   0.371670 0.927377 0.620046 -0.089798
C15   C     C_3   0.372500 0.070480 0.622516 -0.527178
C16   C     C_R   0.430731 0.457875 0.070031 0.114523
C17   C     C_R   0.564377 0.553078 0.073307 -0.175367
C18   C     C_R   0.564342 0.554876 0.928997 0.145419
C19   C     C_R   0.431329 0.458065 0.927872 0.143193
C20   C     C_3   0.391392 0.331746 0.918360 -0.177504
C21   C     C_3   0.390079 0.329186 0.074650 -0.108554
C22   C     C_R   0.503683 0.739491 0.499678 0.911690
C23   C     C_R   0.660540 0.499979 0.500620 0.865550
C24   C     C_R   0.957381 0.480905 0.624036 0.092802
C25   C     C_R   0.912715 0.487378 0.500616 -0.030738
C26   C     C_R   0.954779 0.490431 0.376061 0.094881
C27   C     C_R   0.042594 0.489015 0.374995 0.097491
C28   C     C_R   0.087282 0.484742 0.498504 -0.029974
H1    H     H_    0.360180 0.108118 0.724661 0.196811
H2    H     H_    0.616700 0.593507 0.129460 0.157950
H3    H     H_    0.434071 0.260839 0.873837 0.169258
H4    H     H_    0.434755 0.258051 0.116445 0.182973
H5    H     H_    0.356910 0.882110 0.718794 0.167690
H6    H     H_    0.336251 0.116407 0.539212 0.197486
N1    N     N_R   0.499440 0.499140 0.142800 -0.114328
N2    N     N_R   0.499440 0.499180 0.857150 -0.117563
O1    O     O_R   0.500010 0.316790 0.614690 -0.607743
O2    O     O_R   0.500000 0.316760 0.385350 -0.623341
O3    O     O_R   0.378030 0.499990 0.614640 -0.590364
O4    O     O_R   0.378020 0.499950 0.385300 -0.613970
O5    O     O_R   0.500000 0.683240 0.614650 -0.629421
O6    O     O_R   0.499990 0.683210 0.385310 -0.609018
O7    O     O_R   0.621980 0.500050 0.614700 -0.589126
O8    O     O_R   0.621970 0.500010 0.385360 -0.632792
Zn1   Zn    Zn3+2 0.500010 0.500020 0.653130 0.961578
Zn2   Zn    Zn3+2 0.499990 0.499980 0.346870 0.938500
N3    N     N_3   0.090723 0.473292 0.749111 -0.426746
H7    H     H_    0.128545 0.393113 0.748697 0.185082
H8    H     H_    0.130107 0.552273 0.756281 0.188359
N4    N     N_3   0.632513 0.613945 0.858178 -0.403559
H9    H     H_    0.609001 0.696604 0.814940 0.195420
H10   H     H_    0.680313 0.641017 0.925881 0.143549
N5    N     N_3   0.309922 0.338893 0.847029 -0.428396
H11   H     H_    0.272659 0.410918 0.885646 0.190641
H12   H     H_    0.278132 0.253151 0.858135 0.175098
C29   C     C_3   0.302343 0.326927 0.144043 -0.332343
C30   C     C_3   0.300595 0.236093 0.264175 -0.887817
H13   H     H_    0.314564 0.139085 0.230494 0.249323
H14   H     H_    0.347388 0.263989 0.342050 0.280157
H15   H     H_    0.237020 0.236507 0.310594 0.239156
H16   H     H_    0.284753 0.422324 0.178631 0.218472
H17   H     H_    0.251344 0.294590 0.075173 0.199860
N6    N     N_3   0.914506 0.476673 0.751231 -0.419473
H18   H     H_    0.877360 0.557154 0.758989 0.192029
H19   H     H_    0.874582 0.398020 0.752058 0.192152
N7    N     N_3   0.909228 0.495887 0.249901 -0.420989
H20   H     H_    0.871985 0.576694 0.249011 0.186002
H21   H     H_    0.869245 0.417473 0.244077 0.190813
N8    N     N_3   0.085445 0.492653 0.247773 -0.425369
H22   H     H_    0.122984 0.412520 0.241077 0.184385
H23   H     H_    0.124936 0.571768 0.245877 0.185897
N9    N     N_3   0.644306 0.135791 0.360702 -0.446654
H24   H     H_    0.639132 0.232691 0.371171 0.200503
H25   H     H_    0.701577 0.113983 0.408502 0.166341
C31   C     C_3   0.641289 0.865382 0.342483 -0.366833
C32   C     C_3   0.618477 0.872064 0.192173 -0.818462
H26   H     H_    0.666113 0.820157 0.133195 0.221919
H27   H     H_    0.555372 0.829053 0.173549 0.264923
H28   H     H_    0.617678 0.971028 0.156009 0.269420
H29   H     H_    0.705515 0.905107 0.358834 0.193695
H30   H     H_    0.646632 0.765458 0.373513 0.196284
N10   N     N_3   0.323073 0.874711 0.506615 -0.451126
H31   H     H_    0.259118 0.890368 0.525084 0.192342
H32   H     H_    0.337879 0.922212 0.416778 0.202693

loop_
_geom_bond_atom_site_label_1
_geom_bond_atom_site_label_2
_ccdc_geom_bond_type
N7    H21   S    
N6    H19   S    
C16   C21   S    
C1    C8    S    
C19   C20   S    
C32   H28   S    
C3    C6    T    
C14   H5    S    
C7    C8    A    
N3    H8    S    
N5    H11   S    
O4    Zn2   S    
C26   C27   A    
C32   H27   S    
C19   N2    A    
C16   N1    A    
C30   H14   S    
C22   O5    A    
C23   O7    A    
C29   C30   S    
O6    Zn2   S    
N8    H23   S    
C8    C9    A    
N4    H10   S    
C9    N9    S    
C31   H29   S    
C15   H6    S    
C27   N8    S    
C1    O1    A    
O3    Zn1   S    
C7    C15   S    
N7    H20   S    
C13   C14   S    
C17   H2    S    
C4    C28   S    
O8    Zn2   S    
C15   H1    S    
N5    H12   S    
C21   H4    S    
C26   N7    S    
C3    C25   S    
C24   C25   A    
C5    C12   S    
N9    H25   S    
C4    C5    T    
C30   H15   S    
N4    H9    S    
C25   C26   A    
C23   O8    A    
C12   O4    A    
C31   C32   S    
C10   C31   S    
N3    H7    S    
C17   C18   A    
N2    Zn1   S    
C32   H26   S    
O7    Zn1   S    
C1    O2    A    
C20   N5    S    
C24   N6    S    
N10   H32   S    
C2    C24   A    
C29   H17   S    
C14   N10   S    
O1    Zn1   S    
C18   N4    S    
C9    C10   A    
C29   H16   S    
C31   H30   S    
N9    H24   S    
C21   C29   S    
C2    N3    S    
C11   C22   S    
C12   O3    A    
C11   C13   A    
C30   H13   S    
C22   O6    A    
C16   C19   A    
C6    C23   S    
N8    H22   S    
O2    Zn2   S    
C10   C11   A    
N6    H18   S    
C7    C13   A    
C20   C21   S    
N10   H31   S    
C27   C28   A    
O5    Zn1   S    
C14   C15   S    
C2    C28   A    
C17   N1    A    
N1    Zn2   S    
C18   N2    A    
C20   H3    S    
