data_mof_unit_65493.cif
_audit_creation_date              2013-03-05T16:07:35-0500
_audit_creation_method            fapswitch 2.2
_symmetry_space_group_name_H-M    P1
_symmetry_Int_Tables_number       1
_space_group_crystal_system       triclinic
_cell_length_a                    15.80063
_cell_length_b                    11.573088
_cell_length_c                    10.789935
_cell_angle_alpha                 90.00104
_cell_angle_beta                  89.999011
_cell_angle_gamma                 89.999816
_cell_volume                      1973.06997213

loop_
_atom_site_label
_atom_site_type_symbol
_atom_site_description
_atom_site_fract_x
_atom_site_fract_y
_atom_site_fract_z
_atom_type_partial_charge
O1    O     O_R   0.499990 0.334450 0.602530 -0.604490
O2    O     O_R   0.500010 0.665550 0.397470 -0.604490
O3    O     O_R   0.500010 0.334450 0.397470 -0.604831
O4    O     O_R   0.499990 0.665550 0.602530 -0.604830
C1    C     C_1   0.499999 0.161058 0.499998 -0.132598
C2    C     C_1   0.500001 0.838941 0.500002 -0.132599
C3    C     C_R   0.499999 0.281193 0.499999 0.915175
C4    C     C_R   0.500000 0.718807 0.500001 0.915175
O5    O     O_R   0.376780 0.500000 0.602510 -0.611635
O6    O     O_R   0.623220 0.500000 0.397490 -0.611635
O7    O     O_R   0.376780 0.500000 0.397450 -0.593966
O8    O     O_R   0.623220 0.500000 0.602550 -0.593965
C5    C     C_R   0.337527 0.499999 0.499983 0.902670
C6    C     C_R   0.662473 0.500001 0.500016 0.902669
Zn1   Zn    Zn3+2 0.500000 0.500000 0.636920 1.037746
Zn2   Zn    Zn3+2 0.500000 0.500000 0.363080 1.037746
C7    C     C_1   0.500000 0.059161 0.499999 0.051995
C8    C     C_1   0.500000 0.940839 0.500001 0.051995
C9    C     C_3   0.972616 0.409056 0.562415 0.252238
C10   C     C_3   0.027384 0.590943 0.437584 0.252238
C11   C     C_3   0.027373 0.404567 0.445823 0.252038
C12   C     C_3   0.972627 0.595433 0.554176 0.252038
H1    H     H_    0.947217 0.491703 0.283983 0.222372
H2    H     H_    0.052783 0.508297 0.716017 0.222372
C13   C     C_1   0.249111 0.499991 0.499988 -0.090653
C14   C     C_1   0.750889 0.500009 0.500012 -0.090653
C15   C     C_3   0.029242 0.504578 0.619162 -0.353890
C16   C     C_3   0.970758 0.495422 0.380838 -0.353890
C17   C     C_3   0.083815 0.499980 0.499748 -0.105457
C18   C     C_3   0.916185 0.500020 0.500252 -0.105457
N1    N     N_1   0.499990 0.500000 0.180630 -0.068620
N2    N     N_1   0.500010 0.500000 0.819370 -0.068620
C19   C     C_1   0.174225 0.499982 0.499882 0.167250
C20   C     C_1   0.825775 0.500017 0.500118 0.167250
C21   C     C_1   0.499996 0.500000 0.069791 0.088904
C22   C     C_1   0.500004 0.500000 0.930209 0.088904
N3    N     N_R   0.055676 0.297657 0.387718 0.255694
O9    O     O_R   0.000208 0.224098 0.346508 -0.277693
O10   O     O_R   0.135920 0.275171 0.376288 -0.338557
N4    N     N_R   0.944324 0.702343 0.612282 0.255694
O11   O     O_R   0.999792 0.775902 0.653492 -0.277693
O12   O     O_R   0.864080 0.724829 0.623712 -0.338557
N5    N     N_R   0.944300 0.306979 0.629763 0.255248
O13   O     O_R   0.999759 0.236810 0.677310 -0.280296
O14   O     O_R   0.864053 0.285483 0.643169 -0.338646
N6    N     N_R   0.055700 0.693021 0.370237 0.255248
O15   O     O_R   0.000241 0.763190 0.322690 -0.280296
O16   O     O_R   0.135947 0.714517 0.356831 -0.338646

loop_
_geom_bond_atom_site_label_1
_geom_bond_atom_site_label_2
_geom_bond_distance
_ccdc_geom_bond_type
N5    O13   1.300213 A    
O8    Zn1   1.981950 S    
N3    O9    1.300217 A    
O1    Zn1   1.951521 S    
C12   C18   1.534015 S    
C15   C17   1.551284 S    
O2    Zn2   1.951520 S    
O7    Zn2   1.981953 S    
C21   C22   1.506082 S    
H2    C15   1.110127 S    
O8    C6    1.268316 A    
O4    C4    1.266402 A    
C12   N4    1.457350 S    
O4    Zn1   1.951533 S    
C16   C18   1.551284 S    
C7    C8    1.369359 S    
O5    Zn1   1.982047 S    
Zn1   N2    1.968624 S    
N3    O10   1.300192 A    
O6    Zn2   1.982044 S    
H1    C16   1.110127 S    
C6    C14   1.397022 S    
Zn2   N1    1.968624 S    
N5    O14   1.300193 A    
C5    C13   1.397022 S    
N2    C22   1.195946 T    
N4    O12   1.300192 A    
N4    O11   1.300216 A    
C9    C11   1.527688 S    
C11   C16   1.548390 S    
C10   C12   1.527688 S    
O3    C3    1.266402 A    
C10   C17   1.534017 S    
C12   C15   1.548390 S    
C2    C8    1.179264 T    
N1    C21   1.195946 T    
C1    C7    1.179264 T    
C18   C20   1.428533 S    
N6    O16   1.300193 A    
C17   C19   1.428533 S    
O7    C5    1.268315 A    
C11   N3    1.457350 S    
O6    C6    1.268269 A    
C1    C3    1.390326 S    
O5    C5    1.268269 A    
N6    O15   1.300213 A    
C2    C4    1.390326 S    
C10   C16   1.548388 S    
O1    C3    1.266398 A    
C9    C18   1.534017 S    
C11   C17   1.534015 S    
C14   C20   1.183248 T    
O2    C4    1.266398 A    
O3    Zn2   1.951534 S    
C13   C19   1.183248 T    
C9    C15   1.548388 S    
C10   N6    1.457344 S    
C9    N5    1.457344 S    
