data_mof_unit_46565.cif
_audit_creation_date              2012-12-10T19:00:55-0500
_audit_creation_method            fapswitch 2.2
_symmetry_space_group_name_H-M    P1
_symmetry_Int_Tables_number       1
_space_group_crystal_system       triclinic
_cell_length_a                    11.09668
_cell_length_b                    14.241411
_cell_length_c                    13.312275
_cell_angle_alpha                 90.114195
_cell_angle_beta                  90.71527
_cell_angle_gamma                 89.870179
_cell_volume                      2103.59711916

loop_
_atom_site_label
_atom_site_type_symbol
_atom_type_description
_atom_site_fract_x
_atom_site_fract_y
_atom_site_fract_z
_atom_type_partial_charge
C1    C     C_R   0.500583 0.326512 0.499906 0.950843
C2    C     C_R   0.745446 0.501563 0.500942 1.099323
C3    C     C_R   0.500706 0.673548 0.500099 1.120306
C4    C     C_3   0.069437 0.443283 0.586462 0.166100
C5    C     C_3   0.069749 0.463481 0.395844 0.144369
C6    C     C_3   0.930669 0.455509 0.600387 0.125586
C7    C     C_3   0.931385 0.448691 0.408537 0.177211
C8    C     C_3   0.073121 0.619487 0.507605 0.457987
C9    C     C_3   0.924290 0.618849 0.502004 0.471191
C10   C     C_3   0.120666 0.510848 0.497310 -0.556008
C11   C     C_3   0.878970 0.509429 0.503191 -0.546852
C12   C     C_1   0.500886 0.957799 0.500221 0.060966
C13   C     C_1   0.500575 0.225934 0.499774 -0.128576
C14   C     C_1   0.500645 0.141373 0.499858 0.036495
C15   C     C_1   0.500783 0.042359 0.500056 0.062047
C16   C     C_1   0.500926 0.858811 0.500333 0.047849
C17   C     C_1   0.500864 0.774279 0.500302 -0.034293
C18   C     C_1   0.499804 0.499930 0.169294 0.231437
C19   C     C_1   0.499596 0.499889 0.830709 0.189353
C20   C     C_1   0.499611 0.499880 0.049536 -0.000974
C21   C     C_1   0.499523 0.499863 0.950463 0.000208
C22   C     C_R   0.254572 0.503908 0.499171 1.134531
H1    H     H_    0.072912 0.373184 0.550262 0.089595
H2    H     H_    0.133607 0.750026 0.261792 0.390062
H3    H     H_    0.826819 0.843131 0.620122 0.378452
H4    H     H_    0.860244 0.812317 0.316068 0.383818
H5    H     H_    0.108864 0.391292 0.398712 0.132375
H6    H     H_    0.893235 0.383363 0.590774 0.109329
H7    H     H_    0.929956 0.376252 0.438761 0.079680
H8    H     H_    0.308253 0.295058 0.699078 0.380464
H9    H     H_    0.206489 0.400515 0.154335 0.382449
H10   H     H_    0.751564 0.551965 0.819921 0.370513
H11   H     H_    0.881059 0.314883 0.172363 0.392197
H12   H     H_    0.312445 0.704456 0.686345 0.378306
N1    N     N_1   0.500000 0.499980 0.261870 -0.016197
N2    N     N_1   0.500000 0.499980 0.738130 -0.019694
O1    O     O_R   0.500000 0.373720 0.576470 -0.611606
O2    O     O_2   0.079163 0.328708 0.751475 -0.204490
O3    O     O_3   0.265441 0.322920 0.640553 -0.589689
O4    O     O_2   0.028838 0.520962 0.196944 -0.123358
O5    O     O_2   0.227696 0.557121 0.263348 -0.239319
O6    O     O_3   0.179467 0.386163 0.223257 -0.518993
O7    O     O_2   0.831498 0.375541 0.763934 -0.267987
O8    O     O_2   0.972128 0.500119 0.802631 -0.131552
O9    O     O_3   0.758261 0.544007 0.746249 -0.471205
O10   O     O_2   0.747501 0.339146 0.337957 -0.335633
O11   O     O_2   0.785930 0.478404 0.237195 -0.202621
O12   O     O_R   0.500000 0.373720 0.423530 -0.598900
O13   O     O_3   0.934166 0.338132 0.227306 -0.460368
O14   O     O_2   0.094674 0.768884 0.643680 -0.171923
O15   O     O_2   0.110403 0.613227 0.715718 -0.191682
O16   O     O_3   0.287052 0.679196 0.619995 -0.561378
O17   O     O_2   0.122048 0.800911 0.450695 -0.181266
O18   O     O_2   0.273906 0.686788 0.411940 -0.318928
O19   O     O_3   0.091962 0.697803 0.295942 -0.419434
O20   O     O_2   0.721850 0.681522 0.601700 -0.323192
O21   O     O_2   0.899570 0.677925 0.705801 -0.169321
O22   O     O_3   0.879241 0.807517 0.573852 -0.431146
O23   O     O_R   0.314810 0.499990 0.576450 -0.528719
O24   O     O_2   0.887621 0.626497 0.294620 -0.177871
O25   O     O_2   0.724247 0.680459 0.395610 -0.325519
O26   O     O_3   0.901740 0.789297 0.377599 -0.429639
O27   O     O_R   0.314810 0.499990 0.423550 -0.576023
O28   O     O_R   0.685190 0.499990 0.576450 -0.554304
O29   O     O_R   0.685190 0.499990 0.423550 -0.536321
O30   O     O_R   0.500000 0.626290 0.576440 -0.589016
O31   O     O_R   0.500000 0.626290 0.423560 -0.577272
O32   O     O_2   0.217076 0.462193 0.758285 -0.207236
S1    S     S_3+6 0.157804 0.391637 0.690024 0.114725
S2    S     S_3+6 0.125800 0.488410 0.268262 0.158515
S3    S     S_3+6 0.874785 0.470316 0.730323 0.160819
S4    S     S_3+6 0.844332 0.403562 0.300451 0.111994
S5    S     S_3+6 0.137532 0.670280 0.625295 0.136861
S6    S     S_3+6 0.141048 0.701609 0.415540 0.145782
S7    S     S_3+6 0.855163 0.693633 0.600568 0.142389
S8    S     S_3+6 0.858488 0.676761 0.389350 0.128930
Zn1   Zn    Zn3+2 0.500000 0.500010 0.602090 1.127820
Zn2   Zn    Zn3+2 0.500000 0.500010 0.397910 1.157628

loop_
_geom_bond_atom_site_label_1
_geom_bond_atom_site_label_2
_ccdc_geom_bond_type
O22   S7    S    
O27   Zn2   S    
C1    O12   A    
C5    S2    S    
C7    H7    S    
H9    O6    S    
C8    C9    S    
O9    S3    S    
O28   Zn1   S    
N1    Zn2   S    
O10   S4    D    
O17   S6    D    
C12   C15   T    
C1    O1    A    
C19   N2    T    
C2    O29   A    
O26   S8    S    
O23   Zn1   S    
C8    S6    S    
O3    S1    S    
O2    S1    D    
C5    C10   S    
O20   S7    D    
C5    H5    S    
C13   C14   T    
C10   C22   S    
H2    O19   S    
C7    C11   S    
C9    C11   S    
O21   S7    D    
C16   C17   T    
O31   Zn2   S    
O4    S2    D    
C2    C11   S    
C18   N1    T    
C8    C10   S    
C8    S5    S    
C9    S8    S    
C2    O28   A    
H8    O3    S    
C3    C17   S    
C18   C20   S    
N2    Zn1   S    
C6    C11   S    
O25   S8    D    
H4    O26   S    
C6    S3    S    
C3    O31   A    
O11   S4    D    
C3    O30   A    
C1    C13   S    
H3    O22   S    
H11   O13   S    
O15   S5    D    
C22   O23   A    
C20   C21   T    
O8    S3    D    
C4    C6    S    
O16   S5    S    
H10   O9    S    
O14   S5    D    
O12   Zn2   S    
C7    S4    S    
C5    C7    S    
C4    H1    S    
O1    Zn1   S    
C14   C15   S    
C4    S1    S    
O7    S3    D    
O29   Zn2   S    
C9    S7    S    
O6    S2    S    
C19   C21   S    
C22   O27   A    
O18   S6    D    
O19   S6    S    
H12   O16   S    
O24   S8    D    
C6    H6    S    
O30   Zn1   S    
C12   C16   S    
C4    C10   S    
O32   S1    D    
O5    S2    D    
O13   S4    S    
