data_mof_unit_43427.cif
_audit_creation_date              2012-12-10T18:56:29-0500
_audit_creation_method            fapswitch 2.2
_symmetry_space_group_name_H-M    P1
_symmetry_Int_Tables_number       1
_space_group_crystal_system       triclinic
_cell_length_a                    10.834594
_cell_length_b                    19.43257
_cell_length_c                    18.171184
_cell_angle_alpha                 88.636549
_cell_angle_beta                  91.249186
_cell_angle_gamma                 89.802826
_cell_volume                      3823.81166072

loop_
_atom_site_label
_atom_site_type_symbol
_atom_type_description
_atom_site_fract_x
_atom_site_fract_y
_atom_site_fract_z
_atom_type_partial_charge
C1    C     C_R   0.504935 0.366764 0.500587 0.804385
C2    C     C_R   0.494135 0.632634 0.499204 0.811125
C3    C     C_R   0.871669 0.499176 0.501899 -0.013346
C4    C     C_R   0.128399 0.503851 0.497889 -0.019180
C5    C     C_R   0.942752 0.466025 0.558202 0.075759
C6    C     C_R   0.057203 0.534833 0.439845 0.091224
C7    C     C_R   0.526964 0.747761 0.438098 -0.102771
C8    C     C_R   0.455394 0.250176 0.558653 -0.074981
C9    C     C_R   0.504336 0.818766 0.431833 -0.054324
C10   C     C_R   0.434220 0.179221 0.551840 -0.074002
C11   C     C_R   0.446789 0.852655 0.489617 -0.044880
C12   C     C_R   0.458059 0.147211 0.485094 -0.058731
C13   C     C_R   0.403873 0.815614 0.552396 0.105487
C14   C     C_R   0.504572 0.185219 0.424652 0.097818
C15   C     C_R   0.404862 0.741948 0.551948 0.075996
C16   C     C_R   0.544416 0.254040 0.435706 0.076697
C17   C     C_R   0.476494 0.708788 0.497169 -0.182576
C18   C     C_R   0.505748 0.289278 0.499692 -0.179913
C19   C     C_R   0.556515 0.962850 0.504906 -0.173917
C20   C     C_R   0.342145 0.037662 0.466268 -0.180534
C21   C     C_R   0.559163 0.034244 0.503010 -0.116240
C22   C     C_R   0.339462 0.965774 0.468232 -0.123991
C23   C     C_R   0.262167 0.502815 0.499036 0.800361
C24   C     C_R   0.737897 0.498287 0.500821 0.834603
C25   C     C_R   0.452474 0.071824 0.483168 0.120302
C26   C     C_R   0.446931 0.928441 0.487445 0.092688
C27   C     C_R   0.450512 0.447096 0.723305 0.045086
C28   C     C_R   0.567065 0.452721 0.280131 0.057261
C29   C     C_R   0.452569 0.445938 0.801386 0.007114
C30   C     C_R   0.564710 0.450822 0.202517 0.030319
C31   C     C_R   0.497441 0.504568 0.839132 0.130328
C32   C     C_R   0.495602 0.501528 0.161877 0.131263
C33   C     C_R   0.542210 0.559777 0.796178 -0.248484
C34   C     C_R   0.432486 0.551567 0.200946 -0.255020
C35   C     C_R   0.546424 0.555584 0.719296 0.070086
C36   C     C_R   0.434889 0.549511 0.278115 0.100131
C37   C     C_R   0.606333 0.522560 0.965310 -0.014597
C38   C     C_R   0.382379 0.494389 0.036899 -0.006880
C39   C     C_R   0.600313 0.521961 0.042641 -0.238755
C40   C     C_R   0.386285 0.499889 0.959400 -0.230598
C41   C     C_R   0.491797 0.504975 0.079325 -0.000021
C42   C     C_R   0.497877 0.509324 0.922171 -0.001843
C43   C     C_R   0.163116 0.672460 0.303161 -0.143912
C44   C     C_R   0.841506 0.303594 0.659792 -0.065957
C45   C     C_R   0.136078 0.640195 0.370954 -0.010098
C46   C     C_R   0.882057 0.347554 0.603001 -0.025040
C47   C     C_R   0.109032 0.568276 0.372940 -0.061059
C48   C     C_R   0.889126 0.419670 0.614972 -0.067443
C49   C     C_R   0.108007 0.531268 0.306081 0.003815
C50   C     C_R   0.864491 0.445027 0.685777 0.040449
C51   C     C_R   0.129649 0.566665 0.239461 -0.159691
C52   C     C_R   0.826618 0.399004 0.741424 -0.167232
C53   C     C_R   0.157499 0.636364 0.238151 -0.203020
C54   C     C_R   0.813467 0.329242 0.728188 -0.134347
C55   C     C_R   0.929433 0.533099 0.443542 -0.143350
C56   C     C_R   0.070276 0.470458 0.556589 -0.188996
Cu1   Cu    Cu3+1 0.499960 0.500000 0.573360 0.977425
Cu2   Cu    Cu3+1 0.500040 0.500000 0.426640 0.980360
H1    H     H_    0.175370 0.662593 0.186268 0.164880
H2    H     H_    0.783855 0.294531 0.771753 0.149895
H3    H     H_    0.639528 0.934225 0.520179 0.147722
H4    H     H_    0.259083 0.066573 0.451950 0.145687
H5    H     H_    0.644180 0.060498 0.517170 0.148010
H6    H     H_    0.254409 0.939212 0.455009 0.154858
H7    H     H_    0.409594 0.405413 0.693911 0.167688
H8    H     H_    0.622495 0.416241 0.311774 0.113887
H9    H     H_    0.576490 0.605685 0.822246 0.145185
H10   H     H_    0.381541 0.592029 0.171614 0.146560
H11   H     H_    0.586271 0.597765 0.688318 0.152793
H12   H     H_    0.385474 0.588078 0.307684 0.152302
H13   H     H_    0.682856 0.532193 0.075330 0.184470
H14   H     H_    0.301689 0.494282 0.927310 0.184124
H15   H     H_    0.184371 0.726823 0.299625 0.200987
H16   H     H_    0.833468 0.248728 0.651728 0.181213
H17   H     H_    0.126233 0.540220 0.187812 0.206729
H18   H     H_    0.808144 0.416577 0.795838 0.213238
H19   H     H_    0.874643 0.558037 0.399802 0.170120
H20   H     H_    0.124524 0.444302 0.599762 0.160240
N1    N     N_R   0.499990 0.500020 0.683620 -0.189381
N2    N     N_R   0.500010 0.499980 0.316380 -0.189428
O1    O     O_R   0.499950 0.400180 0.561980 -0.566610
O2    O     O_R   0.500050 0.599820 0.438020 -0.578180
O3    O     O_R   0.500010 0.400190 0.438070 -0.585758
O4    O     O_R   0.499990 0.599810 0.561930 -0.604657
O5    O     O_R   0.319610 0.500000 0.561950 -0.597771
O6    O     O_R   0.680390 0.500000 0.438050 -0.592417
O7    O     O_R   0.319670 0.500010 0.438050 -0.565409
O8    O     O_R   0.680330 0.499990 0.561950 -0.550472
C57   C     C_3   0.335480 0.695715 0.607838 -0.357255
C58   C     C_3   0.218608 0.722123 0.644874 -0.386785
C59   C     C_3   0.142513 0.662618 0.676636 -0.734238
H21   H     H_    0.110255 0.627916 0.632611 0.298163
H22   H     H_    0.198636 0.632267 0.717842 0.238448
H23   H     H_    0.060364 0.683444 0.704172 0.242663
H24   H     H_    0.244491 0.753877 0.692571 0.223907
H25   H     H_    0.159765 0.752053 0.604878 0.243018
H26   H     H_    0.302298 0.650362 0.577225 0.227264
H27   H     H_    0.401549 0.677070 0.651484 0.187734
C60   C     C_3   0.635418 0.287669 0.382635 -0.394660
C61   C     C_3   0.753485 0.244957 0.373792 -0.361724
C62   C     C_3   0.845405 0.281706 0.323992 -0.794554
H28   H     H_    0.811777 0.280757 0.265949 0.227341
H29   H     H_    0.858826 0.335986 0.339977 0.295596
H30   H     H_    0.935878 0.254704 0.327902 0.252595
H31   H     H_    0.796731 0.234470 0.428737 0.245091
H32   H     H_    0.733086 0.195226 0.348862 0.235332
H33   H     H_    0.589734 0.298316 0.328308 0.187568
H34   H     H_    0.669298 0.336979 0.404307 0.220152
C63   C     C_3   0.411138 0.380760 0.841382 -0.425210
C64   C     C_3   0.519241 0.344557 0.882776 -0.339832
C65   C     C_3   0.481596 0.273726 0.912299 -0.824129
H35   H     H_    0.405742 0.278743 0.952009 0.261773
H36   H     H_    0.450762 0.240680 0.866409 0.267308
H37   H     H_    0.561840 0.248524 0.940957 0.242615
H38   H     H_    0.598134 0.338464 0.845432 0.217490
H39   H     H_    0.551196 0.375516 0.929974 0.236075
H40   H     H_    0.336011 0.391609 0.879709 0.210724
H41   H     H_    0.370230 0.344503 0.801341 0.220032
C66   C     C_3   0.632426 0.393174 0.165822 -0.440182
C67   C     C_3   0.542250 0.337784 0.139635 -0.297340
C68   C     C_3   0.610897 0.276508 0.108910 -0.864195
H42   H     H_    0.667963 0.293391 0.061793 0.262307
H43   H     H_    0.671303 0.252009 0.152288 0.251514
H44   H     H_    0.543289 0.237768 0.089505 0.248782
H45   H     H_    0.485732 0.319440 0.186502 0.226536
H46   H     H_    0.479220 0.359510 0.095939 0.241166
H47   H     H_    0.686935 0.413255 0.119140 0.212477
H48   H     H_    0.700176 0.369190 0.205386 0.197203
C69   C     C_2   0.729083 0.534682 0.933174 0.829145
O9    O     O_2   0.755628 0.508720 0.875267 -0.601092
O10   O     O_R   0.816727 0.574195 0.970676 -0.757619
H49   H     H_    0.897489 0.577972 0.943723 0.356021
C70   C     C_2   0.263884 0.474312 0.070879 0.798196
O11   O     O_2   0.263392 0.442727 0.129882 -0.592730
O12   O     O_R   0.152125 0.489557 0.033953 -0.762192
H50   H     H_    0.077840 0.472713 0.062096 0.352350
C71   C     C_2   0.130230 0.684836 0.436430 0.825932
O13   O     O_2   0.084475 0.664089 0.493573 -0.610121
O14   O     O_R   0.174121 0.752427 0.431623 -0.766653
H51   H     H_    0.160096 0.779208 0.477852 0.328755
C72   C     C_2   0.925850 0.315438 0.534735 0.821386
O15   O     O_2   0.928226 0.348293 0.476659 -0.595970
O16   O     O_R   0.966490 0.246973 0.537337 -0.752319
H52   H     H_    0.999047 0.231471 0.488507 0.336275
C73   C     C_2   0.081295 0.456164 0.303022 0.858715
O17   O     O_2   0.099703 0.418384 0.356930 -0.564404
O18   O     O_R   0.037566 0.428181 0.237228 -0.762761
H53   H     H_    0.024740 0.376598 0.241383 0.335763
C74   C     C_2   0.885724 0.518080 0.704615 0.843701
O19   O     O_2   0.861147 0.564455 0.659991 -0.598731
O20   O     O_R   0.935420 0.533786 0.773777 -0.731582
H54   H     H_    0.945364 0.585120 0.780528 0.330647
C75   C     C_2   0.604408 0.714667 0.382230 0.928846
O21   O     O_2   0.700121 0.685139 0.401373 -0.580685
O22   O     O_R   0.567327 0.717310 0.308034 -0.757655
H55   H     H_    0.626906 0.692431 0.275508 0.334539
C76   C     C_2   0.441289 0.279716 0.631737 0.862005
O23   O     O_2   0.338435 0.290745 0.655295 -0.585703
O24   O     O_R   0.546950 0.290342 0.675176 -0.774393
H56   H     H_    0.527438 0.303499 0.727062 0.317263
C77   C     C_2   0.549303 0.859242 0.367050 0.877767
O25   O     O_2   0.478059 0.896913 0.331740 -0.587530
O26   O     O_R   0.673073 0.854923 0.347347 -0.750608
H57   H     H_    0.692208 0.885208 0.302874 0.335385
C78   C     C_2   0.386015 0.137865 0.614936 0.864099
O27   O     O_2   0.283191 0.149917 0.637987 -0.544969
O28   O     O_R   0.458038 0.085073 0.647308 -0.765289
H58   H     H_    0.414820 0.060395 0.689164 0.326478
C79   C     C_3   0.368982 0.855764 0.620502 -0.400756
C80   C     C_3   0.457026 0.839537 0.686126 -0.345267
C81   C     C_3   0.419048 0.877932 0.754386 -0.820286
H59   H     H_    0.324701 0.862448 0.770654 0.250990
H60   H     H_    0.484407 0.865291 0.800695 0.247913
H61   H     H_    0.420861 0.934396 0.743507 0.259371
H62   H     H_    0.459157 0.783706 0.699830 0.219873
H63   H     H_    0.552165 0.855270 0.671531 0.229036
H64   H     H_    0.373733 0.912161 0.611361 0.219195
H65   H     H_    0.270982 0.848877 0.633591 0.182370
C82   C     C_3   0.494543 0.155861 0.347132 -0.403919
C83   C     C_3   0.574579 0.091422 0.334620 -0.344506
C84   C     C_3   0.612361 0.086646 0.254406 -0.813326
H66   H     H_    0.529127 0.085630 0.217655 0.263719
H67   H     H_    0.670667 0.131224 0.238439 0.242589
H68   H     H_    0.666158 0.038626 0.247166 0.252793
H69   H     H_    0.658776 0.090846 0.370538 0.211198
H70   H     H_    0.521053 0.044360 0.348068 0.261938
H71   H     H_    0.396368 0.142253 0.336211 0.192312
H72   H     H_    0.514715 0.195931 0.304788 0.208872

loop_
_geom_bond_atom_site_label_1
_geom_bond_atom_site_label_2
_ccdc_geom_bond_type
C43   H15   S    
C38   C40   A    
C81   H59   S    
C78   O27   D    
C31   C42   S    
C27   C29   A    
C79   C80   S    
Cu1   N1    S    
C5    C56   A    
C2    O4    A    
O18   H53   S    
C6    C55   A    
Cu2   O7    S    
C77   O25   D    
C53   H1    S    
C63   H40   S    
O12   H50   S    
C39   C41   A    
C54   H2    S    
C84   H66   S    
C67   C68   S    
C60   H34   S    
C81   H60   S    
C61   H31   S    
C62   H28   S    
C29   C63   S    
C19   C21   A    
C51   H17   S    
C27   N1    A    
C74   O20   S    
O24   H56   S    
C55   H19   S    
C67   H46   S    
C74   O19   D    
C59   H22   S    
C20   C25   A    
C1    O1    A    
O16   H52   S    
C56   H20   S    
C15   C17   A    
C38   C70   S    
C37   C42   A    
C19   C26   A    
C64   C65   S    
C68   H44   S    
C77   O26   S    
C3    C55   A    
C43   C53   A    
C76   O23   D    
O26   H57   S    
C52   C54   A    
C49   C51   A    
C50   C52   A    
C32   C41   S    
C31   C33   A    
C14   C16   A    
C75   O22   S    
C14   C82   S    
Cu2   N2    S    
C3    C5    A    
C66   H48   S    
C84   H67   S    
C76   O24   S    
C23   O7    A    
C4    C56   A    
C2    C17   S    
C29   C31   A    
C3    C24   S    
C8    C76   S    
Cu2   O6    S    
C79   H64   S    
C73   O18   S    
C44   C46   A    
C63   H41   S    
C73   O17   D    
C46   C72   S    
Cu1   Cu2   S    
C80   H62   S    
C45   C47   A    
C5    C48   S    
C46   C48   A    
C21   H5    S    
C6    C47   S    
C58   H24   S    
C81   H61   S    
C38   C41   A    
C47   C49   A    
C36   N2    A    
C34   H10   S    
C59   H21   S    
C4    C23   S    
C67   H45   S    
C80   H63   S    
C82   H72   S    
C11   C26   S    
C7    C17   A    
C8    C18   A    
C57   H26   S    
C13   C79   S    
C51   C53   A    
C72   O16   S    
C32   C34   A    
C28   H8    S    
C27   H7    S    
C15   C57   S    
C24   O8    A    
C40   C42   A    
C60   C61   S    
C7    C75   S    
O20   H54   S    
C45   C71   S    
C1    C18   S    
Cu1   O4    S    
C49   C73   S    
C65   H36   S    
C16   C18   A    
C66   C67   S    
C9    C77   S    
C48   C50   A    
C9    C11   A    
C68   H42   S    
C10   C12   A    
C8    C10   A    
C36   H12   S    
C20   C22   A    
C62   H30   S    
C13   C15   A    
C22   C26   A    
C70   O11   D    
Cu1   O1    S    
C2    O2    A    
C4    C6    A    
O10   H49   S    
C64   H39   S    
C79   H65   S    
O28   H58   S    
C83   C84   S    
C33   H9    S    
C69   O9    D    
C62   H29   S    
C84   H68   S    
C7    C9    A    
C21   C25   A    
C40   H14   S    
C65   H35   S    
C71   O14   S    
C12   C14   A    
C44   H16   S    
C52   H18   S    
O14   H51   S    
C16   C60   S    
C58   H25   S    
C30   C66   S    
C1    O3    A    
C60   H33   S    
C71   O13   D    
C57   H27   S    
C61   H32   S    
Cu1   O8    S    
C12   C25   S    
C83   H70   S    
Cu2   O2    S    
C75   O21   D    
C23   O5    A    
C28   C30   A    
C37   C39   A    
Cu2   O3    S    
C59   H23   S    
C30   C32   A    
C11   C13   A    
C50   C74   S    
C58   C59   S    
C19   H3    S    
C10   C78   S    
C64   H38   S    
C35   N1    A    
C61   C62   S    
C33   C35   A    
C37   C69   S    
C65   H37   S    
C34   C36   A    
C20   H4    S    
C28   N2    A    
C68   H43   S    
C83   H69   S    
C22   H6    S    
C82   C83   S    
C44   C54   A    
C82   H71   S    
C35   H11   S    
C78   O28   S    
C80   C81   S    
C63   C64   S    
O22   H55   S    
C70   O12   S    
C39   H13   S    
C57   C58   S    
C72   O15   D    
C24   O6    A    
C43   C45   A    
Cu1   O5    S    
C69   O10   S    
C66   H47   S    
