data_mof_unit_63105.cif
_audit_creation_date              2012-12-10T20:04:54-0500
_audit_creation_method            fapswitch 2.2
_symmetry_space_group_name_H-M    P1
_symmetry_Int_Tables_number       1
_space_group_crystal_system       triclinic
_cell_length_a                    38.593692
_cell_length_b                    32.126303
_cell_length_c                    21.340063
_cell_angle_alpha                 90.000202
_cell_angle_beta                  123.733775
_cell_angle_gamma                 90.000399
_cell_volume                      22003.9832793

loop_
_atom_site_label
_atom_site_type_symbol
_atom_type_description
_atom_site_fract_x
_atom_site_fract_y
_atom_site_fract_z
_atom_type_partial_charge
C1    C     C_R   0.919324 0.000009 0.419273 0.907525
C2    C     C_R   0.272118 0.967885 0.795617 -0.228257
C3    C     C_R   0.963161 0.228068 0.950268 -0.222934
C4    C     C_R   0.536832 0.728069 0.049770 -0.222878
C5    C     C_R   0.463168 0.728068 0.950231 -0.222896
C6    C     C_R   0.000001 0.206560 0.000001 0.130524
C7    C     C_R   0.500000 0.706560 0.000000 0.130495
C8    C     C_1   0.500000 0.838087 1.000000 -0.037482
C9    C     C_1   0.000000 0.338087 0.000000 -0.037398
C10   C     C_3   0.014776 0.964114 0.785031 0.211484
C11   C     C_3   0.985211 0.964119 0.214955 0.211498
C12   C     C_3   0.514741 0.464102 0.784998 0.211407
C13   C     C_R   0.227888 0.465708 0.212979 -0.228456
C14   C     C_3   0.485247 0.464106 0.214990 0.211399
C15   C     C_1   0.000001 0.162183 0.000001 -0.046615
C16   C     C_1   0.500000 0.662183 0.000001 -0.046598
C17   C     C_1   0.000001 0.124922 0.000001 -0.189461
C18   C     C_1   0.500000 0.624922 0.000000 -0.189372
C19   C     C_1   0.500000 0.875352 1.000000 -0.158337
C20   C     C_1   0.000000 0.375351 1.000000 -0.158344
C21   C     C_3   0.999713 0.000226 0.810497 -0.008467
C22   C     C_3   0.000287 0.000225 0.189503 -0.008502
C23   C     C_3   0.499713 0.500228 0.810497 -0.008577
C24   C     C_R   0.772110 0.465717 0.787068 -0.228453
C25   C     C_3   0.500287 0.500228 0.189503 -0.008579
C26   C     C_3   0.960367 0.005212 0.730653 -0.249322
C27   C     C_3   0.039635 0.005198 0.269349 -0.249261
C28   C     C_3   0.460372 0.505251 0.730658 -0.249030
C29   C     C_3   0.539630 0.505238 0.269343 -0.249026
C30   C     C_3   0.984349 0.036705 0.713279 -0.164665
C31   C     C_3   0.015664 0.036699 0.286734 -0.164604
C32   C     C_3   0.484385 0.536720 0.713314 -0.164538
C33   C     C_3   0.515627 0.536715 0.286698 -0.164531
C34   C     C_3   0.023436 0.031202 0.793454 0.199867
C35   C     C_R   0.706576 0.002008 0.208189 0.156122
C36   C     C_3   0.976576 0.031210 0.206557 0.199865
C37   C     C_3   0.523466 0.531181 0.793484 0.199743
C38   C     C_3   0.476544 0.531188 0.206527 0.199752
C39   C     C_3   0.039187 0.994985 0.768196 -0.172179
C40   C     C_3   0.960811 0.994998 0.231801 -0.172218
C41   C     C_3   0.539183 0.494949 0.768192 -0.172119
C42   C     C_3   0.460816 0.494960 0.231806 -0.172119
C43   C     C_3   0.031681 0.923052 0.826727 -0.927799
C44   C     C_3   0.968290 0.923062 0.173245 -0.927880
C45   C     C_3   0.531607 0.423024 0.826656 -0.927516
C46   C     C_R   0.293424 0.002071 0.791961 0.156098
C47   C     C_3   0.468368 0.423033 0.173320 -0.927508
C48   C     C_3   0.983744 0.795385 0.101018 -0.882060
C49   C     C_3   0.016253 0.795385 0.898978 -0.882028
C50   C     C_3   0.484333 0.295385 0.101792 -0.882018
C51   C     C_3   0.515656 0.295385 0.898196 -0.882001
C52   C     C_3   0.484590 0.202822 0.100372 -0.867200
C53   C     C_3   0.515397 0.202822 0.899613 -0.867151
C54   C     C_3   0.983994 0.702822 0.099589 -0.867145
C55   C     C_3   0.016005 0.702822 0.900408 -0.867134
C56   C     C_1   0.424334 0.792950 0.897771 0.165670
C57   C     C_R   0.206574 0.502200 0.207619 0.156028
C58   C     C_1   0.575666 0.792952 0.102230 0.165704
C59   C     C_1   0.924321 0.292951 0.897848 0.165693
C60   C     C_1   0.075680 0.292953 0.102152 0.165698
C61   C     C_3   0.050298 0.066795 0.844376 -0.906971
C62   C     C_3   0.949726 0.066811 0.155647 -0.906979
C63   C     C_3   0.550363 0.566749 0.844436 -0.906940
C64   C     C_3   0.449659 0.566763 0.155585 -0.906953
C65   C     C_3   0.707793 0.071580 0.268692 -0.922527
C66   C     C_3   0.292214 0.073982 0.738171 -0.922666
C67   C     C_3   0.207768 0.578968 0.242399 -0.922934
C68   C     C_R   0.793425 0.502199 0.792379 0.156027
C69   C     C_3   0.792235 0.578946 0.757495 -0.922924
C70   C     C_R   0.728836 0.035068 0.258669 0.209926
C71   C     C_R   0.271167 0.036244 0.744679 0.209963
C72   C     C_R   0.228824 0.538685 0.245844 0.210066
C73   C     C_R   0.080676 0.000010 0.580725 0.907587
C74   C     C_R   0.771177 0.538674 0.754104 0.210067
C75   C     C_R   0.772433 0.034070 0.301512 -0.194429
C76   C     C_R   0.227570 0.035217 0.701757 -0.194442
C77   C     C_R   0.272421 0.537595 0.288987 -0.194461
C78   C     C_R   0.727580 0.537586 0.710962 -0.194459
C79   C     C_R   0.793380 0.000900 0.294234 0.121989
C80   C     C_R   0.206620 0.000932 0.705843 0.121799
C81   C     C_R   0.293379 0.500998 0.293938 0.121387
C82   C     C_R   0.706621 0.500999 0.706061 0.121388
C83   C     C_R   0.771214 0.968368 0.244287 -0.184042
C84   C     C_R   0.419324 0.500009 0.419282 0.907779
C85   C     C_R   0.228783 0.967304 0.752640 -0.184022
C86   C     C_R   0.271223 0.465093 0.256061 -0.183967
C87   C     C_R   0.728776 0.465103 0.743988 -0.183964
C88   C     C_1   0.662059 0.001119 0.162895 -0.052669
C89   C     C_1   0.337941 0.001154 0.837169 -0.052581
C90   C     C_1   0.162058 0.501228 0.162653 -0.052364
C91   C     C_1   0.837942 0.501227 0.837347 -0.052360
C92   C     C_1   0.837790 0.000336 0.338192 -0.056334
C93   C     C_1   0.162210 0.000350 0.661844 -0.056359
C94   C     C_1   0.337789 0.500375 0.338053 -0.056416
C95   C     C_R   0.580676 0.500010 0.580718 0.907780
C96   C     C_1   0.662211 0.500377 0.661947 -0.056413
C97   C     C_1   0.875086 0.000063 0.375220 -0.186200
C98   C     C_1   0.124914 0.000068 0.624793 -0.186213
C99   C     C_1   0.375086 0.500072 0.375170 -0.186261
C100  C     C_1   0.624914 0.500073 0.624830 -0.186258
C101  C     C_R   0.999761 0.000007 0.621544 0.889080
C102  C     C_R   0.000239 0.000007 0.378456 0.889078
C103  C     C_R   0.499761 0.500008 0.621544 0.889293
C104  C     C_R   0.500239 0.500007 0.378456 0.889292
C105  C     C_1   0.624763 0.000465 0.125082 -0.177204
C106  C     C_3   0.999670 0.000028 0.688754 -0.059560
C107  C     C_1   0.375237 0.000481 0.874931 -0.177157
C108  C     C_1   0.124762 0.500512 0.125030 -0.176994
C109  C     C_1   0.875238 0.500511 0.874969 -0.176992
C110  C     C_R   1.000000 0.919434 1.000000 0.911648
C111  C     C_R   0.500000 0.419434 1.000000 0.911581
C112  C     C_R   0.999922 0.000202 0.878083 0.895457
C113  C     C_R   0.000078 0.000202 0.121916 0.895472
C114  C     C_R   0.499922 0.500204 0.878084 0.895417
C115  C     C_R   0.500077 0.500203 0.121916 0.895417
C116  C     C_R   0.000000 0.080730 0.000000 0.908455
C117  C     C_3   0.000329 0.000028 0.311246 -0.059554
C118  C     C_R   0.500000 0.580730 0.000000 0.908391
C119  C     C_R   0.500000 0.919544 1.000000 0.903226
C120  C     C_R   0.000000 0.419543 1.000000 0.902948
C121  C     C_R   0.580530 0.999985 0.080568 0.903656
C122  C     C_R   0.419470 0.999985 0.919432 0.903548
C123  C     C_R   0.080530 0.499985 0.080565 0.903259
C124  C     C_R   0.919470 0.499985 0.919435 0.903261
C125  C     C_R   0.499999 0.080533 1.000000 0.898613
C126  C     C_R   0.000000 0.580533 0.000000 0.898323
C127  C     C_R   0.492463 0.227978 0.049045 0.146658
C128  C     C_3   0.499671 0.500029 0.688754 -0.059668
C129  C     C_R   0.507525 0.227978 0.950941 0.146652
C130  C     C_R   0.992176 0.727978 0.048667 0.146632
C131  C     C_R   0.007822 0.727978 0.951330 0.146631
C132  C     C_R   0.499994 0.206599 0.999994 0.025570
C133  C     C_R   0.999999 0.706599 0.999999 0.025583
C134  C     C_R   0.007851 0.771961 0.951179 0.157933
C135  C     C_R   0.992146 0.771961 0.048818 0.157943
C136  C     C_R   0.507558 0.271961 0.950795 0.157954
C137  C     C_R   0.492432 0.271961 0.049193 0.157956
C138  C     C_3   0.975529 0.968569 0.704619 -0.161438
C139  C     C_3   0.500329 0.500029 0.311246 -0.059670
C140  C     C_3   0.024459 0.968560 0.295369 -0.161436
C141  C     C_3   0.475499 0.468593 0.704590 -0.161464
C142  C     C_3   0.524490 0.468586 0.295399 -0.161470
C143  C     C_R   0.999998 0.793519 0.999998 0.042345
C144  C     C_R   0.499996 0.293519 0.999995 0.042341
C145  C     C_1   0.499996 0.161883 0.999996 -0.003503
C146  C     C_1   0.999999 0.661883 0.999999 -0.003543
C147  C     C_1   0.999999 0.838132 0.999999 -0.002819
C148  C     C_1   0.499997 0.338133 0.999998 -0.002756
C149  C     C_1   0.999999 0.875356 0.999999 -0.205092
C150  C     C_R   0.727880 0.968934 0.201349 -0.228192
C151  C     C_1   0.499999 0.375357 0.999999 -0.205017
C152  C     C_1   0.499998 0.124654 0.999998 -0.185550
C153  C     C_1   1.000000 0.624654 1.000000 -0.185640
C154  C     C_R   0.462908 0.771511 0.949882 0.000795
C155  C     C_R   0.537092 0.771512 0.050119 0.000731
C156  C     C_R   0.962901 0.271510 0.949920 0.000943
C157  C     C_R   0.037100 0.271512 0.050081 0.000938
C158  C     C_R   0.500000 0.793418 0.000000 0.054905
C159  C     C_R   0.000000 0.293417 0.000000 0.054877
C160  C     C_R   0.036840 0.228069 0.049733 -0.222926
H1    H     H_    0.790040 0.059164 0.340538 0.149565
H2    H     H_    0.043890 0.942713 0.333288 0.151346
H3    H     H_    0.456035 0.442771 0.666638 0.151252
H4    H     H_    0.543946 0.442758 0.333344 0.151258
H5    H     H_    0.928260 0.009412 0.716694 0.167187
H6    H     H_    0.071743 0.009386 0.283310 0.167249
H7    H     H_    0.428269 0.509482 0.716703 0.167374
H8    H     H_    0.571734 0.509460 0.283300 0.167379
H9    H     H_    0.972055 0.066599 0.682503 0.155850
H10   H     H_    0.027969 0.066589 0.317521 0.155876
H11   H     H_    0.472119 0.566627 0.682566 0.155965
H12   H     H_    0.209964 0.061156 0.665159 0.149724
H13   H     H_    0.527902 0.566618 0.317456 0.155963
H14   H     H_    0.071243 0.990820 0.781863 0.135104
H15   H     H_    0.928753 0.990844 0.218133 0.135004
H16   H     H_    0.571235 0.490752 0.781855 0.135352
H17   H     H_    0.428762 0.490774 0.218142 0.135350
H18   H     H_    0.787416 0.942630 0.238571 0.150641
H19   H     H_    0.212579 0.940700 0.755878 0.150839
H20   H     H_    0.287433 0.436692 0.259841 0.151280
H21   H     H_    0.712565 0.436710 0.740247 0.151280
H22   H     H_    0.710922 0.943528 0.162714 0.156833
H23   H     H_    0.290021 0.565288 0.318708 0.150061
H24   H     H_    0.289073 0.941624 0.831796 0.157021
H25   H     H_    0.210938 0.437672 0.183756 0.157549
H26   H     H_    0.789059 0.437688 0.816331 0.157549
H27   H     H_    0.039724 0.902404 0.794917 0.249455
H28   H     H_    0.060008 0.928849 0.883689 0.251987
H29   H     H_    0.007764 0.907657 0.832278 0.235457
H30   H     H_    0.960241 0.902417 0.205049 0.249433
H31   H     H_    0.939966 0.928868 0.116285 0.251971
H32   H     H_    0.992202 0.907659 0.167688 0.235473
H33   H     H_    0.539631 0.402367 0.794828 0.249486
H34   H     H_    0.709981 0.565271 0.681203 0.150061
H35   H     H_    0.559938 0.428794 0.883625 0.252061
H36   H     H_    0.507675 0.407652 0.832190 0.235357
H37   H     H_    0.460338 0.402379 0.205141 0.249481
H38   H     H_    0.440038 0.428811 0.116353 0.252064
H39   H     H_    0.492295 0.407653 0.167779 0.235354
H40   H     H_    0.984354 0.829694 0.097030 0.240718
H41   H     H_    0.952352 0.787121 0.087471 0.243148
H42   H     H_    0.007772 0.787156 0.160473 0.241563
H43   H     H_    0.015641 0.829694 0.902965 0.240722
H44   H     H_    0.047645 0.787122 0.912525 0.243155
H45   H     H_    0.934738 0.210987 0.911897 0.149592
H46   H     H_    0.992225 0.787155 0.839523 0.241565
H47   H     H_    0.484912 0.329694 0.097762 0.240675
H48   H     H_    0.453037 0.287114 0.088704 0.243215
H49   H     H_    0.508544 0.287164 0.161152 0.241505
H50   H     H_    0.515079 0.329694 0.902227 0.240677
H51   H     H_    0.546952 0.287114 0.911282 0.243226
H52   H     H_    0.491445 0.287164 0.838835 0.241501
H53   H     H_    0.478947 0.221617 0.137246 0.243565
H54   H     H_    0.456783 0.182748 0.065651 0.241017
H55   H     H_    0.511987 0.182735 0.137679 0.241928
H56   H     H_    0.065263 0.210988 0.088104 0.149602
H57   H     H_    0.521038 0.221617 0.862736 0.243562
H58   H     H_    0.543204 0.182749 0.934332 0.241042
H59   H     H_    0.487999 0.182734 0.862307 0.241924
H60   H     H_    0.978129 0.721616 0.136172 0.243583
H61   H     H_    0.956224 0.682747 0.064577 0.240907
H62   H     H_    0.011340 0.682734 0.137168 0.242030
H63   H     H_    0.021869 0.721616 0.863825 0.243584
H64   H     H_    0.043775 0.682749 0.935421 0.240906
H65   H     H_    0.988659 0.682733 0.862830 0.242032
H66   H     H_    0.062744 0.084753 0.816596 0.245470
H67   H     H_    0.434751 0.710987 0.911831 0.149653
H68   H     H_    0.031295 0.087663 0.855316 0.237623
H69   H     H_    0.076660 0.054191 0.898632 0.253983
H70   H     H_    0.937286 0.084774 0.183432 0.245494
H71   H     H_    0.968737 0.087672 0.144716 0.237630
H72   H     H_    0.923360 0.054216 0.101386 0.253958
H73   H     H_    0.562823 0.584695 0.816670 0.245366
H74   H     H_    0.531381 0.587634 0.855399 0.237639
H75   H     H_    0.576714 0.554121 0.898679 0.254050
H76   H     H_    0.437204 0.584714 0.183356 0.245372
H77   H     H_    0.468649 0.587643 0.144630 0.237638
H78   H     H_    0.565250 0.710989 0.088170 0.149664
H79   H     H_    0.423304 0.554143 0.101337 0.254045
H80   H     H_    0.673325 0.069726 0.232539 0.249965
H81   H     H_    0.717420 0.073123 0.328288 0.244000
H82   H     H_    0.717375 0.100822 0.254607 0.243095
H83   H     H_    0.326681 0.072059 0.774128 0.249688
H84   H     H_    0.282576 0.077611 0.678815 0.244009
H85   H     H_    0.282644 0.102177 0.754997 0.243166
H86   H     H_    0.173301 0.576904 0.207000 0.249081
H87   H     H_    0.217430 0.588113 0.300135 0.244028
H88   H     H_    0.217306 0.603803 0.218750 0.243321
H89   H     H_    0.956089 0.942729 0.666691 0.151351
H90   H     H_    0.826701 0.576882 0.792898 0.249083
H91   H     H_    0.782574 0.588061 0.699747 0.244033
H92   H     H_    0.782699 0.603802 0.781110 0.243316
N1    N     N_1   0.393451 0.810130 0.856052 -0.202800
N2    N     N_1   0.606549 0.810133 0.143949 -0.202452
N3    N     N_1   0.893434 0.310134 0.856162 -0.203690
N4    N     N_1   0.106567 0.310137 0.143839 -0.203692
O1    O     O_R   0.939010 0.034440 0.439030 -0.617104
O2    O     O_R   0.439000 0.999980 0.991570 -0.614882
O3    O     O_R   0.061000 0.499980 0.008430 -0.614716
O4    O     O_R   0.939000 0.499980 0.991570 -0.614715
O5    O     O_R   0.500000 0.061040 0.052440 -0.616448
O6    O     O_R   0.500000 0.061040 0.947560 -0.616408
O7    O     O_R   0.000000 0.561040 0.052440 -0.616351
O8    O     O_R   0.000000 0.561040 0.947560 -0.616350
O9    O     O_R   0.939030 0.965580 0.439000 -0.617651
O10   O     O_R   0.060970 0.965580 0.561000 -0.617707
O11   O     O_R   0.439030 0.465580 0.439000 -0.617835
O12   O     O_R   0.060990 0.034440 0.560970 -0.617158
O13   O     O_R   0.560970 0.465580 0.561000 -0.617836
O14   O     O_R   0.000010 0.034440 0.593030 -0.626569
O15   O     O_R   0.999990 0.034440 0.406970 -0.626540
O16   O     O_R   0.500010 0.534440 0.593030 -0.626580
O17   O     O_R   0.499990 0.534440 0.406970 -0.626577
O18   O     O_R   0.000020 0.965580 0.593000 -0.625493
O19   O     O_R   0.999980 0.965580 0.407000 -0.625526
O20   O     O_R   0.500020 0.465580 0.593000 -0.625510
O21   O     O_R   0.499980 0.465580 0.407000 -0.625512
O22   O     O_R   0.034440 0.939060 0.034360 -0.615103
O23   O     O_R   0.439010 0.534440 0.439030 -0.617274
O24   O     O_R   0.965560 0.939060 0.965640 -0.615121
O25   O     O_R   0.534440 0.439060 0.034360 -0.615074
O26   O     O_R   0.465560 0.439060 0.965640 -0.615079
O27   O     O_R   0.034440 0.000050 0.941370 -0.622238
O28   O     O_R   0.965560 0.000050 0.058630 -0.622252
O29   O     O_R   0.534440 0.500050 0.941370 -0.622202
O30   O     O_R   0.465560 0.500050 0.058630 -0.622203
O31   O     O_R   0.965570 0.000070 0.872530 -0.631400
O32   O     O_R   0.034430 0.000070 0.127470 -0.631385
O33   O     O_R   0.465570 0.500070 0.872530 -0.631363
O34   O     O_R   0.560990 0.534440 0.560970 -0.617275
O35   O     O_R   0.534430 0.500070 0.127470 -0.631361
O36   O     O_R   0.034450 0.061050 0.034440 -0.616900
O37   O     O_R   0.965550 0.061050 0.965560 -0.616920
O38   O     O_R   0.534450 0.561050 0.034440 -0.616874
O39   O     O_R   0.465550 0.561050 0.965560 -0.616881
O40   O     O_R   0.500030 0.939050 0.052570 -0.613388
O41   O     O_R   0.499970 0.939050 0.947430 -0.613439
O42   O     O_R   0.000030 0.439050 0.052570 -0.613397
O43   O     O_R   0.999970 0.439050 0.947430 -0.613399
O44   O     O_R   0.561000 0.000050 0.113470 -0.614024
O45   O     O_R   0.439000 0.000050 0.886530 -0.613935
O46   O     O_R   0.061000 0.500050 0.113470 -0.613741
O47   O     O_R   0.939000 0.500050 0.886530 -0.613740
O48   O     O_R   0.561000 0.999980 0.008430 -0.614951
Zn1   Zn    Zn3+2 0.000000 0.045990 0.500000 0.957534
Zn2   Zn    Zn3+2 0.499980 0.000060 0.929880 0.975046
Zn3   Zn    Zn3+2 0.000020 0.500060 0.070120 0.975529
Zn4   Zn    Zn3+2 0.999980 0.500060 0.929880 0.975528
Zn5   Zn    Zn3+2 0.500000 0.545990 0.500000 0.957199
Zn6   Zn    Zn3+2 0.000000 0.954030 0.500000 0.957161
Zn7   Zn    Zn3+2 0.500000 0.454030 0.500000 0.956817
Zn8   Zn    Zn3+2 0.045990 0.000050 0.045940 0.956718
Zn9   Zn    Zn3+2 0.954010 0.000050 0.954060 0.956630
Zn10  Zn    Zn3+2 0.545990 0.500050 0.045940 0.956974
Zn11  Zn    Zn3+2 0.454010 0.500050 0.954060 0.956958
Zn12  Zn    Zn3+2 0.500020 0.000060 0.070120 0.975058

loop_
_geom_bond_atom_site_label_1
_geom_bond_atom_site_label_2
_ccdc_geom_bond_type
C21   C26   S    
C48   C135  S    
C148  C151  T    
C138  H89   S    
C12   C23   S    
C103  O20   A    
C154  C158  A    
C139  C142  S    
O2    Zn12  S    
O14   Zn1   S    
C82   C87   A    
C84   O23   A    
C29   C33   S    
C95   O34   A    
C44   H30   S    
C134  C143  A    
C22   C113  S    
C50   H49   S    
C125  O6    A    
C47   H38   S    
C18   C118  S    
C81   C86   A    
C40   C117  S    
C49   H44   S    
C155  C158  A    
O20   Zn7   S    
C36   C62   S    
C37   C63   S    
C52   C127  S    
C38   C64   S    
C10   C21   S    
C25   C29   S    
C116  O37   A    
C13   H25   S    
C57   C90   S    
C59   N3    T    
C28   C32   S    
C56   C154  S    
O27   Zn8   S    
C123  O3    A    
C23   C37   S    
C52   H55   S    
C84   O11   A    
C11   C140  S    
C30   H9    S    
O36   Zn8   S    
C78   C82   A    
C43   H27   S    
C69   C74   S    
C41   H16   S    
C157  C160  A    
C62   H72   S    
C22   C27   S    
C111  O26   A    
O17   Zn5   S    
C20   C120  S    
C21   C112  S    
O11   Zn7   S    
C83   H18   S    
C6    C160  A    
C31   H10   S    
C22   C36   S    
C33   C38   S    
C44   H32   S    
C33   C139  S    
C3    C156  A    
C77   H23   S    
C126  O7    A    
C58   N2    T    
C24   C87   A    
C73   O10   A    
C69   H91   S    
C4    C155  A    
C49   H46   S    
O34   Zn5   S    
C136  C144  A    
C31   C36   S    
C10   C138  S    
C107  C122  S    
C80   C93   S    
C75   C79   A    
C55   H64   S    
C50   H48   S    
C14   C142  S    
C3    C6    A    
O12   Zn1   S    
C46   C89   S    
O28   Zn9   S    
C132  C145  S    
O45   Zn2   S    
C29   H8    S    
O44   Zn12  S    
C13   C57   A    
C66   H83   S    
C68   C74   A    
C65   C70   S    
C48   H42   S    
C60   N4    T    
C121  O44   A    
C12   C141  S    
C67   C72   S    
C67   H88   S    
C76   H12   S    
O16   Zn5   S    
C67   H87   S    
C62   H70   S    
C35   C150  A    
O42   Zn3   S    
C83   C150  A    
C45   H36   S    
O48   Zn2   S    
C57   C72   A    
C47   H39   S    
C4    C7    A    
C92   C97   T    
C53   H57   S    
C73   C98   S    
C54   C130  S    
C8    C19   T    
C30   C34   S    
C34   C39   S    
C3    H45   S    
C60   C157  S    
O21   Zn7   S    
C54   H61   S    
O22   Zn8   S    
C23   C28   S    
C65   H81   S    
C116  O36   A    
C5    H67   S    
C73   O12   A    
C25   C38   S    
C51   C136  S    
C52   H54   S    
C11   C44   S    
C32   C37   S    
C102  C117  S    
C137  C144  A    
C26   C30   S    
C101  O18   A    
C53   C129  S    
O25   Zn10  S    
O26   Zn11  S    
C101  C106  S    
C118  O38   A    
C76   C80   A    
C104  O21   A    
C87   H21   S    
C59   C156  S    
O47   Zn4   S    
C133  C146  S    
C61   H66   S    
C75   H1    S    
O31   Zn9   S    
C90   C108  T    
C124  O47   A    
C63   H74   S    
C88   C105  T    
C96   C100  T    
O15   Zn1   S    
C37   C41   S    
C11   C40   S    
O10   Zn6   S    
C145  C152  T    
O18   Zn6   S    
C113  O28   A    
O29   Zn10  S    
C157  C159  A    
C125  O5    A    
C70   C75   A    
C4    H78   S    
C47   H37   S    
C28   C141  S    
O1    Zn1   S    
O37   Zn9   S    
C53   H59   S    
C39   C106  S    
C49   H43   S    
C26   H5    S    
O40   Zn12  S    
C130  C135  A    
C131  C134  A    
C8    C158  S    
C150  H22   S    
C48   H40   S    
C147  C149  T    
C64   H76   S    
C39   H14   S    
C142  H4    S    
C71   C76   A    
C5    C154  A    
C160  H56   S    
C2    C85   A    
C24   H26   S    
C78   H34   S    
C51   H52   S    
C61   H69   S    
C65   H80   S    
C112  O31   A    
C102  O19   A    
C128  C141  S    
C110  O24   A    
C129  C132  A    
C42   C139  S    
C19   C119  S    
O33   Zn11  S    
C111  O25   A    
C67   H86   S    
C119  O41   A    
O23   Zn5   S    
C1    O1    A    
C45   H33   S    
C61   H68   S    
O4    Zn3   S    
C121  O48   A    
C123  O46   A    
C102  O15   A    
C5    C7    A    
C95   C100  S    
C21   C34   S    
C27   C31   S    
O46   Zn3   S    
C10   C39   S    
C120  O43   A    
C12   C41   S    
C9    C20   T    
C66   C71   S    
C77   C81   A    
O30   Zn11  S    
C89   C107  T    
C126  O8    A    
C109  C124  S    
C2    H24   S    
O6    Zn2   S    
C46   C71   A    
C69   H90   S    
C7    C16   S    
C32   H11   S    
C55   C131  S    
C115  O35   A    
C117  C140  S    
C108  C123  S    
C55   H63   S    
C65   H82   S    
C15   C17   T    
O5    Zn12  S    
C84   C99   S    
C26   C138  S    
O3    Zn4   S    
C55   H65   S    
C104  C139  S    
C44   H31   S    
C23   C114  S    
C79   C83   A    
C51   H50   S    
C32   C128  S    
C146  C153  T    
C66   H84   S    
C43   H28   S    
C34   C61   S    
C14   C25   S    
C54   H62   S    
C24   C68   A    
C27   H6    S    
C63   H75   S    
C126  C153  S    
C124  O4    A    
C62   H71   S    
C74   C78   A    
O9    Zn6   S    
C115  O30   A    
C140  H2    S    
C104  O17   A    
C110  O22   A    
C66   H85   S    
C45   H35   S    
C49   C134  S    
C81   C94   S    
C122  O45   A    
C144  C148  S    
C110  C149  S    
C50   C137  S    
C2    C46   A    
C143  C147  S    
C80   C85   A    
O35   Zn10  S    
C38   C42   S    
C25   C115  S    
C113  O32   A    
O43   Zn4   S    
C106  C138  S    
C9    C159  S    
C42   H17   S    
C68   C91   S    
C127  C132  A    
C31   C117  S    
C64   H79   S    
C28   H7    S    
C6    C15   S    
O38   Zn10  S    
C122  O2    A    
C35   C70   A    
O24   Zn9   S    
C13   C86   A    
C33   H13   S    
O8    Zn4   S    
C69   H92   S    
C14   C42   S    
C50   H47   S    
C56   N1    T    
C30   C106  S    
C41   C128  S    
C95   O13   A    
C82   C96   S    
C118  O39   A    
C36   C40   S    
C1    C97   S    
C48   H41   S    
C112  O27   A    
C72   C77   A    
C125  C152  S    
C63   H73   S    
C129  C136  A    
C35   C88   S    
C85   H19   S    
O39   Zn11  S    
C86   H20   S    
C64   H77   S    
C105  C121  S    
C103  C128  S    
C120  O42   A    
C79   C92   S    
O19   Zn6   S    
C141  H3    S    
O41   Zn2   S    
C53   H58   S    
C114  O33   A    
C10   C43   S    
C119  O40   A    
C156  C159  A    
C12   C45   S    
C131  C133  A    
C111  C151  S    
C40   H15   S    
C114  O29   A    
C54   H60   S    
C14   C47   S    
C101  O14   A    
C11   C22   S    
C27   C140  S    
C103  O16   A    
C91   C109  T    
O7    Zn3   S    
C94   C99   T    
C29   C142  S    
C135  C143  A    
C52   H53   S    
C58   C155  S    
C130  C133  A    
C51   H51   S    
C1    O9    A    
C43   H29   S    
C16   C18   T    
C127  C137  A    
C93   C98   T    
O32   Zn8   S    
C17   C116  S    
O13   Zn7   S    
