data_mof_unit_51906.cif
_audit_creation_date              2012-12-11T14:40:23-0500
_audit_creation_method            fapswitch 2.2
_symmetry_space_group_name_H-M    P1
_symmetry_Int_Tables_number       1
_space_group_crystal_system       triclinic
_cell_length_a                    19.661238
_cell_length_b                    10.9617
_cell_length_c                    19.508624
_cell_angle_alpha                 89.999822
_cell_angle_beta                  97.158897
_cell_angle_gamma                 89.999919
_cell_volume                      4171.73334823

loop_
_atom_site_label
_atom_site_type_symbol
_atom_type_description
_atom_site_fract_x
_atom_site_fract_y
_atom_site_fract_z
_atom_type_partial_charge
C1    C     C_R   0.725297 0.952415 0.360772 0.536490
C2    C     C_3   0.260417 0.368816 0.562023 0.062234
C3    C     C_2   0.857367 0.667342 0.969365 0.547484
C4    C     C_3   0.245193 0.894595 0.434062 0.064434
C5    C     C_3   0.754803 0.894609 0.565941 0.064436
C6    C     C_3   0.733552 0.502716 0.458321 -0.119814
C7    C     C_3   0.266483 0.502711 0.541668 -0.119818
C8    C     C_3   0.280926 0.004930 0.469276 -0.148706
C9    C     C_3   0.719072 0.004944 0.530722 -0.148717
C10   C     C_3   0.804429 0.492132 0.502362 -0.139796
C11   C     C_3   0.195599 0.492184 0.497640 -0.139821
C12   C     C_3   0.319518 0.917989 0.522754 -0.106025
C13   C     C_R   0.274703 0.952415 0.639228 0.536490
C14   C     C_3   0.680480 0.918001 0.477245 -0.106024
C15   C     C_3   0.810283 0.357730 0.481171 -0.106517
C16   C     C_3   0.189707 0.357800 0.518844 -0.106528
C17   C     C_3   0.283508 0.806716 0.486982 -0.108533
C18   C     C_3   0.716488 0.806728 0.513021 -0.108507
C19   C     C_3   0.774126 0.315380 0.542464 -0.119407
C20   C     C_3   0.225836 0.315392 0.457547 -0.119406
C21   C     C_3   0.224089 0.816793 0.531354 -0.148331
C22   C     C_3   0.775909 0.816797 0.468652 -0.148325
C23   C     C_3   0.768569 0.449246 0.563085 0.063155
C24   C     C_R   0.210437 0.491646 0.367446 0.547789
C25   C     C_3   0.231431 0.449241 0.436914 0.063160
C26   C     C_3   0.259997 0.927060 0.566506 0.063962
C27   C     C_3   0.740002 0.927064 0.433495 0.063962
C28   C     C_3   0.527373 0.270650 0.974653 -0.144360
C29   C     C_3   0.472627 0.270650 0.025346 -0.144361
C30   C     C_3   0.027373 0.770651 0.974653 -0.144231
C31   C     C_3   0.972627 0.770651 0.025346 -0.144232
C32   C     C_3   0.566822 0.169575 0.016816 0.069434
C33   C     C_3   0.433178 0.169575 0.983184 0.069434
C34   C     C_3   0.066822 0.669576 0.016816 0.069413
C35   C     C_R   0.789563 0.491648 0.632553 0.547789
C36   C     C_3   0.933178 0.669576 0.983184 0.069413
C37   C     C_3   0.512569 0.170026 0.067196 0.021161
C38   C     C_3   0.487431 0.170026 0.932804 0.021161
C39   C     C_3   0.012569 0.670027 0.067196 0.021086
C40   C     C_3   0.987431 0.670027 0.932804 0.021085
C41   C     C_R   0.535435 0.180074 0.338090 0.532617
C42   C     C_R   0.464565 0.180074 0.661910 0.532618
C43   C     C_R   0.035429 0.680093 0.338086 0.533002
C44   C     C_R   0.964571 0.680093 0.661914 0.533003
C45   C     C_3   0.472832 0.068696 0.025803 -0.150173
C46   C     C_3   0.703320 0.326153 0.498550 -0.144054
C47   C     C_3   0.527169 0.068695 0.974198 -0.150173
C48   C     C_3   0.972832 0.568697 0.025803 -0.150359
C49   C     C_3   0.027168 0.568697 0.974197 -0.150359
C50   C     C_1   0.762137 0.423965 0.903962 0.040613
C51   C     C_1   0.237863 0.423965 0.096037 0.040613
C52   C     C_1   0.262138 0.923967 0.903964 0.042472
C53   C     C_1   0.737862 0.923968 0.096036 0.042471
C54   C     C_1   0.749045 0.411066 0.035536 -0.011649
C55   C     C_1   0.250955 0.411066 0.964464 -0.011650
C56   C     C_1   0.249044 0.911067 0.035536 -0.011517
C57   C     C_3   0.296650 0.326108 0.501448 -0.144070
C58   C     C_1   0.750956 0.911067 0.964464 -0.011517
C59   C     C_1   0.754510 0.415746 0.964110 -0.009344
C60   C     C_1   0.245490 0.415746 0.035890 -0.009344
C61   C     C_1   0.254510 0.915747 0.964110 -0.009260
C62   C     C_1   0.745490 0.915747 0.035889 -0.009260
C63   C     C_1   0.744500 0.398857 0.096163 0.038342
C64   C     C_1   0.255500 0.398857 0.903837 0.038340
C65   C     C_1   0.244499 0.898855 0.096162 0.040250
C66   C     C_1   0.755501 0.898855 0.903838 0.040250
C67   C     C_R   0.727199 0.319563 0.368760 0.546935
C68   C     C_3   0.185352 0.903605 0.477372 -0.117504
C69   C     C_R   0.272801 0.319566 0.631240 0.546933
C70   C     C_R   0.239058 0.862632 0.361961 0.535942
C71   C     C_R   0.760938 0.862646 0.638043 0.535924
C72   C     C_R   0.722619 0.951088 0.164328 0.579621
C73   C     C_R   0.277381 0.951087 0.835672 0.579622
C74   C     C_R   0.222620 0.451082 0.164332 0.586377
C75   C     C_R   0.777379 0.451082 0.835668 0.586376
C76   C     C_R   0.531501 0.178660 0.140589 0.582718
C77   C     C_R   0.468499 0.178660 0.859411 0.582718
C78   C     C_R   0.031501 0.678660 0.140589 0.583367
C79   C     C_3   0.814646 0.903612 0.522633 -0.117499
C80   C     C_R   0.968499 0.678660 0.859411 0.583367
C81   C     C_R   0.736825 0.362931 0.165393 0.590067
C82   C     C_R   0.263175 0.362931 0.834607 0.590066
C83   C     C_R   0.236823 0.862926 0.165389 0.582513
C84   C     C_R   0.763176 0.862925 0.834611 0.582509
C85   C     C_1   0.485761 0.172187 0.594712 -0.013490
C86   C     C_1   0.514237 0.172186 0.405287 -0.013495
C87   C     C_1   0.985776 0.672307 0.594718 -0.015108
C88   C     C_1   0.014224 0.672307 0.405282 -0.015104
C89   C     C_1   0.504181 0.168739 0.464750 -0.062347
C90   C     C_3   0.739580 0.368804 0.437979 0.062228
C91   C     C_1   0.495817 0.168739 0.535249 -0.062343
C92   C     C_1   0.004171 0.668987 0.464748 -0.063304
C93   C     C_1   0.995830 0.668987 0.535252 -0.063308
C94   C     C_3   0.697678 0.460948 0.520541 -0.112166
C95   C     C_3   0.302329 0.460885 0.479444 -0.112174
C96   C     C_3   0.221457 0.015168 0.514065 -0.122226
C97   C     C_3   0.778542 0.015174 0.485935 -0.122216
C98   C     C_2   0.642633 0.167343 0.030634 0.547466
C99   C     C_2   0.357367 0.167342 0.969365 0.547466
C100  C     C_2   0.142633 0.667343 0.030634 0.547484
Cr1   Cr    Cr6+3 0.765830 0.160660 0.268180 1.040040
Cr2   Cr    Cr6+3 0.384070 0.324050 0.751550 1.045778
Cr3   Cr    Cr6+3 0.115930 0.824050 0.248450 1.039594
Cr4   Cr    Cr6+3 0.884070 0.824050 0.751550 1.039594
Cr5   Cr    Cr6+3 0.234170 0.160660 0.731820 1.040040
Cr6   Cr    Cr6+3 0.265830 0.660660 0.268180 1.042873
Cr7   Cr    Cr6+3 0.734170 0.660660 0.731820 1.042874
Cr8   Cr    Cr6+3 0.612110 0.009150 0.248770 1.039532
Cr9   Cr    Cr6+3 0.387890 0.009150 0.751230 1.039531
Cr10  Cr    Cr6+3 0.112110 0.509150 0.248770 1.042929
Cr11  Cr    Cr6+3 0.887890 0.509150 0.751230 1.042929
Cr12  Cr    Cr6+3 0.615930 0.324050 0.248450 1.045778
H1    H     H_    0.660902 0.258761 0.494317 0.108263
H2    H     H_    0.284332 0.576596 0.578445 0.124666
H3    H     H_    0.304081 0.078904 0.441112 0.105945
H4    H     H_    0.695915 0.078925 0.558879 0.105936
H5    H     H_    0.374942 0.923188 0.542434 0.134948
H6    H     H_    0.625057 0.923203 0.457564 0.134949
H7    H     H_    0.846449 0.560342 0.506004 0.107733
H8    H     H_    0.153597 0.560427 0.493996 0.107719
H9    H     H_    0.856901 0.315035 0.464844 0.132130
H10   H     H_    0.143080 0.315173 0.535185 0.132163
H11   H     H_    0.310158 0.721847 0.474738 0.128382
H12   H     H_    0.339049 0.258682 0.505684 0.108248
H13   H     H_    0.689837 0.721853 0.525264 0.128366
H14   H     H_    0.791322 0.239997 0.578512 0.131630
H15   H     H_    0.208613 0.240014 0.421509 0.131641
H16   H     H_    0.200511 0.742850 0.559162 0.106039
H17   H     H_    0.799494 0.742849 0.440852 0.106028
H18   H     H_    0.550811 0.352045 0.953103 0.140493
H19   H     H_    0.449189 0.352045 0.046896 0.140493
H20   H     H_    0.050811 0.852046 0.953103 0.140361
H21   H     H_    0.949189 0.852046 0.046896 0.140361
H22   H     H_    0.449740 0.987529 0.047931 0.135605
H23   H     H_    0.130200 0.898366 0.456683 0.133647
H24   H     H_    0.550261 0.987529 0.952070 0.135604
H25   H     H_    0.949740 0.487531 0.047931 0.135726
H26   H     H_    0.050260 0.487530 0.952070 0.135726
H27   H     H_    0.732327 0.164070 0.990812 0.329801
H28   H     H_    0.267673 0.164071 0.009188 0.329801
H29   H     H_    0.232327 0.664070 0.990812 0.329826
H30   H     H_    0.767673 0.664071 0.009187 0.329826
H31   H     H_    0.869796 0.898369 0.543323 0.133651
H32   H     H_    0.651916 0.503800 0.538544 0.124356
H33   H     H_    0.348100 0.503670 0.461428 0.124383
H34   H     H_    0.194933 0.099028 0.528035 0.124864
H35   H     H_    0.805067 0.099036 0.471966 0.124848
H36   H     H_    0.715729 0.576605 0.421535 0.124660
O1    O     O_R   0.783230 0.287800 0.346510 -0.528754
O2    O     O_R   0.454570 0.285140 0.836900 -0.509317
O3    O     O_R   0.045430 0.785140 0.163100 -0.508419
O4    O     O_R   0.954570 0.785140 0.836900 -0.508419
O5    O     O_R   0.677850 0.374730 0.185500 -0.476871
O6    O     O_R   0.322150 0.374730 0.814500 -0.476870
O7    O     O_R   0.177850 0.874730 0.185500 -0.479209
O8    O     O_R   0.822150 0.874730 0.814500 -0.479210
O9    O     O_3   0.664630 0.164620 0.255130 -0.256096
O10   O     O_3   0.335370 0.164620 0.744870 -0.256093
O11   O     O_3   0.164630 0.664620 0.255130 -0.255479
O12   O     O_R   0.216770 0.287800 0.653490 -0.528760
O13   O     O_3   0.835370 0.664620 0.744870 -0.255475
O14   O     O_R   0.760130 0.037060 0.338610 -0.526297
O15   O     O_R   0.239870 0.037060 0.661390 -0.526294
O16   O     O_R   0.260130 0.537060 0.338610 -0.513345
O17   O     O_R   0.739870 0.537060 0.661390 -0.513338
O18   O     O_R   0.666620 0.921370 0.332440 -0.524911
O19   O     O_R   0.333380 0.921370 0.667560 -0.524912
O20   O     O_R   0.166620 0.421370 0.332440 -0.519850
O21   O     O_R   0.833380 0.421370 0.667560 -0.519846
O22   O     O_R   0.557170 0.082420 0.312350 -0.505992
O23   O     O_R   0.283230 0.787800 0.346510 -0.533164
O24   O     O_R   0.442830 0.082420 0.687650 -0.505993
O25   O     O_R   0.057170 0.582420 0.312350 -0.511895
O26   O     O_R   0.942830 0.582420 0.687650 -0.511898
O27   O     O_R   0.548310 0.285980 0.316250 -0.515968
O28   O     O_R   0.451690 0.285980 0.683750 -0.515967
O29   O     O_R   0.048310 0.785980 0.316250 -0.516373
O30   O     O_R   0.951690 0.785980 0.683750 -0.516371
O31   O     O_R   0.680520 0.375500 0.327470 -0.504408
O32   O     O_R   0.319480 0.375500 0.672530 -0.504408
O33   O     O_R   0.180520 0.875500 0.327470 -0.512958
O34   O     O_R   0.716770 0.787800 0.653490 -0.533162
O35   O     O_R   0.819480 0.875500 0.672530 -0.512955
O36   O     O_R   0.780350 0.286970 0.193350 -0.492233
O37   O     O_R   0.219650 0.286970 0.806650 -0.492232
O38   O     O_R   0.280350 0.786970 0.193350 -0.496119
O39   O     O_R   0.719650 0.786970 0.806650 -0.496120
O40   O     O_R   0.757460 0.036290 0.196640 -0.472581
O41   O     O_R   0.242540 0.036290 0.803360 -0.472581
O42   O     O_R   0.257460 0.536290 0.196640 -0.468049
O43   O     O_R   0.742540 0.536290 0.803360 -0.468049
O44   O     O_R   0.663740 0.920540 0.179290 -0.503154
O45   O     O_R   0.554500 0.081650 0.170370 -0.485796
O46   O     O_R   0.336260 0.920540 0.820710 -0.503155
O47   O     O_R   0.163740 0.420540 0.179290 -0.501438
O48   O     O_R   0.836260 0.420540 0.820710 -0.501439
O49   O     O_2   0.670436 0.164758 0.089866 -0.511355
O50   O     O_R   0.681220 0.166667 0.975225 -0.723946
O51   O     O_2   0.329564 0.164757 0.910134 -0.511355
O52   O     O_R   0.318780 0.166667 0.024775 -0.723946
O53   O     O_2   0.170435 0.664754 0.089866 -0.511346
O54   O     O_R   0.181220 0.666667 0.975225 -0.723900
O55   O     O_2   0.829565 0.664753 0.910134 -0.511346
O56   O     O_R   0.445500 0.081650 0.829630 -0.485796
O57   O     O_R   0.818780 0.666667 0.024775 -0.723900
O58   O     O_R   0.054500 0.581650 0.170370 -0.486632
O59   O     O_R   0.945500 0.581650 0.829630 -0.486633
O60   O     O_R   0.545430 0.285140 0.163100 -0.509317

loop_
_geom_bond_atom_site_label_1
_geom_bond_atom_site_label_2
_ccdc_geom_bond_type
C58   C62   S    
Cr12  O27   S    
C21   C26   S    
Cr7   O17   S    
C56   C61   S    
Cr8   O22   S    
C47   H24   S    
C67   O1    A    
Cr11  O26   S    
C33   C45   S    
Cr6   O23   S    
C14   C18   S    
C19   C23   S    
C2    C7    S    
C95   H33   S    
C51   C74   S    
C31   H21   S    
C5    C18   S    
Cr2   O10   S    
C4    C70   S    
C85   C91   T    
H27   O50   S    
C81   O5    A    
Cr8   O45   S    
C29   H19   S    
C7    C11   S    
C41   C86   S    
C45   H22   S    
C68   C96   S    
C48   H25   S    
C63   C81   S    
C50   C59   T    
C3    C36   S    
C7    H2    S    
C28   C29   S    
C24   O20   A    
C2    C69   S    
C44   O26   A    
C22   C79   S    
C52   C61   T    
C18   H13   S    
C30   C31   S    
C30   H20   S    
H28   O52   S    
C65   C83   S    
Cr5   O12   S    
C83   O7    A    
C54   C63   T    
C11   C25   S    
Cr2   O28   S    
C40   C49   S    
Cr7   O39   S    
C69   O12   A    
C3    O55   D    
C11   C16   S    
H30   O57   S    
Cr5   O37   S    
C16   H10   S    
C72   O40   A    
C10   H7    S    
Cr9   O19   S    
C8    H3    S    
C15   C19   S    
Cr10  O20   S    
C17   H11   S    
Cr4   O30   S    
C88   C92   T    
C29   C33   S    
C32   C98   S    
C14   H6    S    
Cr11  O13   S    
C99   O52   S    
C34   C100  S    
Cr5   O15   S    
C83   O38   A    
Cr6   O16   S    
C14   C27   S    
C89   C91   S    
C44   C87   S    
C2    C16   S    
Cr2   O6    S    
C46   H1    S    
Cr9   O24   S    
C4    C8    S    
Cr11  O48   S    
C55   C60   S    
C75   O48   A    
C41   O27   A    
Cr1   O9    S    
C74   O42   A    
C49   H26   S    
C97   H35   S    
C71   O34   A    
C24   O16   A    
C100  O54   S    
C11   H8    S    
C58   C66   T    
C78   O3    A    
C13   O15   A    
C54   C59   S    
C45   C47   S    
C26   C96   S    
C79   H31   S    
C19   C46   S    
Cr12  O9    S    
C98   O50   S    
C82   O37   A    
C34   C39   S    
C3    O57   S    
C39   C78   S    
Cr7   O13   S    
C36   C40   S    
C24   C25   S    
Cr6   O38   S    
C20   H15   S    
C43   O29   A    
C52   C73   S    
C76   O45   A    
C44   O30   A    
Cr4   O13   S    
C4    C68   S    
C30   C34   S    
Cr8   O9    S    
Cr7   O34   S    
C6    C94   S    
C6    C90   S    
C67   C90   S    
C17   C21   S    
C12   C26   S    
Cr11  O21   S    
C12   C17   S    
C75   O43   A    
C9    C14   S    
C78   O58   A    
C5    C9    S    
Cr5   O41   S    
C8    C96   S    
C6    H36   S    
C100  O53   D    
C70   O33   A    
Cr5   O10   S    
C46   C94   S    
C28   C32   S    
C8    C12   S    
C55   C64   T    
Cr4   O35   S    
C40   C80   S    
C30   C40   S    
Cr9   O46   S    
Cr10  O58   S    
C42   C85   S    
C16   C20   S    
C32   C37   S    
Cr4   O8    S    
C21   H16   S    
C64   C82   S    
C38   C47   S    
Cr1   O36   S    
C42   O24   A    
Cr2   O2    S    
Cr12  O31   S    
C4    C17   S    
Cr3   O7    S    
C48   C49   S    
C37   C76   S    
C1    O14   A    
C25   C95   S    
C23   C35   S    
C22   C27   S    
C21   C68   S    
C57   C95   S    
C35   O21   A    
C32   C47   S    
Cr9   O10   S    
C13   C26   S    
C5    C79   S    
C43   C88   S    
Cr7   O43   S    
Cr1   O40   S    
C77   O56   A    
Cr11  O59   S    
Cr10  O47   S    
C7    C95   S    
C2    C57   S    
Cr3   O29   S    
C56   C65   T    
C80   O4    A    
Cr8   O18   S    
C74   O47   A    
Cr1   O14   S    
C34   C49   S    
C9    C97   S    
Cr10  O25   S    
C98   O49   D    
C10   C15   S    
Cr3   O33   S    
C9    H4    S    
C79   C97   S    
Cr9   O56   S    
C86   C89   T    
C77   O2    A    
C6    C10   S    
C46   C90   S    
C38   C77   S    
Cr3   O3    S    
C10   C23   S    
C96   H34   S    
C41   O22   A    
C19   H14   S    
C33   C38   S    
C23   C94   S    
C22   H17   S    
Cr12  O5    S    
C94   H32   S    
Cr4   O4    S    
C18   C22   S    
C20   C57   S    
C69   O32   A    
C67   O31   A    
C50   C75   S    
C15   C90   S    
C84   O8    A    
Cr3   O11   S    
C43   O25   A    
C1    O18   A    
C68   H23   S    
C99   O51   D    
Cr2   O32   S    
C87   C93   T    
Cr1   O1    S    
C92   C93   S    
C35   O17   A    
C31   C39   S    
C36   C48   S    
C28   H18   S    
C70   O23   A    
C15   H9    S    
C13   O19   A    
C27   C97   S    
C66   C84   S    
C12   H5    S    
C82   O6    A    
C76   O60   A    
C80   O59   A    
C53   C62   T    
C5    C71   S    
C20   C25   S    
Cr12  O60   S    
C29   C37   S    
H29   O54   S    
C1    C27   S    
Cr6   O42   S    
C31   C36   S    
Cr8   O44   S    
C84   O39   A    
C42   O28   A    
C51   C60   T    
C81   O36   A    
C33   C99   S    
C28   C38   S    
C73   O46   A    
C53   C72   S    
C37   C45   S    
C72   O44   A    
C73   O41   A    
Cr10  O11   S    
Cr6   O11   S    
C39   C48   S    
C57   H12   S    
C71   O35   A    
