data_mof_unit_23795.cif
_audit_creation_date              2012-12-10T18:57:10-0500
_audit_creation_method            fapswitch 2.2
_symmetry_space_group_name_H-M    P1
_symmetry_Int_Tables_number       1
_space_group_crystal_system       triclinic
_cell_length_a                    8.715131
_cell_length_b                    10.828955
_cell_length_c                    9.599208
_cell_angle_alpha                 89.149376
_cell_angle_beta                  96.790682
_cell_angle_gamma                 91.647832
_cell_volume                      899.145423902

loop_
_atom_site_label
_atom_site_type_symbol
_atom_type_description
_atom_site_fract_x
_atom_site_fract_y
_atom_site_fract_z
_atom_type_partial_charge
C1    C     C_R   0.502918 0.262376 0.500823 0.786346
C2    C     C_R   0.531361 0.937938 0.374841 -0.223844
C3    C     C_R   0.522285 0.870818 0.500101 -0.096308
C4    C     C_R   0.535522 0.934642 0.626385 0.123249
C5    C     C_3   0.441578 0.921821 0.746280 -0.452379
C6    C     C_3   0.437354 0.061666 0.745934 -0.500912
C7    C     C_R   0.580059 0.589593 0.080211 0.237682
C8    C     C_R   0.410506 0.419397 0.068735 -0.067929
C9    C     C_R   0.402571 0.422166 0.920266 0.189820
C10   C     C_R   0.580999 0.588978 0.933502 0.228660
C11   C     C_3   0.750216 0.616967 0.945036 -0.502246
C12   C     C_R   0.204347 0.499163 0.464630 0.878163
C13   C     C_3   0.749839 0.617081 0.103170 -0.491050
C14   C     C_R   0.504426 0.737510 0.499621 0.796300
C15   C     C_R   0.795572 0.504225 0.534949 0.886368
C16   C     C_2   0.038982 0.492975 0.445405 -0.363216
C17   C     C_2   0.960617 0.516420 0.552063 -0.395549
C18   C     C_R   0.533475 0.061770 0.627185 0.135901
C19   C     C_R   0.519405 0.129342 0.501688 -0.092396
C20   C     C_R   0.530025 0.066721 0.375645 -0.218414
Cu1   Cu    Cu3+1 0.499990 0.499980 0.640670 0.925127
Cu2   Cu    Cu3+1 0.500010 0.500020 0.359330 0.932257
H1    H     H_    0.981688 0.465572 0.343551 0.162833
H2    H     H_    0.816857 0.540258 0.908679 0.222481
H3    H     H_    0.776449 0.709497 0.900584 0.191600
H4    H     H_    0.815430 0.539806 0.155920 0.214892
H5    H     H_    0.777210 0.709401 0.150336 0.192869
H6    H     H_    0.018084 0.546954 0.652284 0.161848
H7    H     H_    0.529126 0.116207 0.276672 0.164323
H8    H     H_    0.530929 0.891539 0.275591 0.163595
H9    H     H_    0.326433 0.876568 0.716386 0.200800
H10   H     H_    0.508936 0.882833 0.841634 0.192959
H11   H     H_    0.319626 0.096545 0.713562 0.191741
H12   H     H_    0.500753 0.103301 0.841949 0.197759
H13   H     H_    0.344887 0.350976 0.121519 0.158997
N1    N     N_R   0.500980 0.500930 0.148050 -0.208604
N2    N     N_R   0.500990 0.500890 0.852140 -0.207282
O1    O     O_R   0.500000 0.319640 0.618810 -0.598546
O2    O     O_R   0.500020 0.319680 0.381230 -0.592477
O3    O     O_R   0.274830 0.499980 0.591380 -0.590227
O4    O     O_R   0.274850 0.500020 0.353800 -0.586963
O5    O     O_R   0.499980 0.680320 0.618770 -0.580736
O6    O     O_R   0.500000 0.680360 0.381190 -0.583258
O7    O     O_R   0.725150 0.499980 0.646200 -0.589919
O8    O     O_R   0.725170 0.500020 0.408620 -0.574365
C21   C     C_3   0.281313 0.334705 0.847060 -0.386215
C22   C     C_3   0.114512 0.373513 0.860720 -0.354090
C23   C     C_3   0.045476 0.316287 0.987038 -0.858448
H14   H     H_    0.071467 0.216655 0.999191 0.251526
H15   H     H_    0.088376 0.365962 0.084697 0.249670
H16   H     H_    0.917882 0.324833 0.971253 0.241592
H17   H     H_    0.109232 0.475653 0.866181 0.219672
H18   H     H_    0.039313 0.342419 0.765366 0.218288
H19   H     H_    0.290975 0.326335 0.735550 0.233440
H20   H     H_    0.299628 0.240616 0.892053 0.164617

loop_
_geom_bond_atom_site_label_1
_geom_bond_atom_site_label_2
_ccdc_geom_bond_type
C21   H20   S    
C12   O3    A    
C7    C10   A    
C22   H17   S    
Cu1   O7    S    
Cu2   N1    S    
C7    N1    A    
C1    O2    A    
Cu2   O6    S    
C6    H11   S    
C22   H18   S    
C14   O5    A    
C5    H10   S    
C4    C18   A    
C21   H19   S    
C23   H15   S    
C2    C3    A    
C3    C4    A    
C9    C21   S    
Cu1   Cu2   S    
C4    C5    S    
C11   C13   S    
C16   C17   D    
C3    C14   S    
C1    O1    A    
C10   N2    A    
C12   C16   S    
Cu2   O2    S    
C9    N2    A    
C23   H14   S    
C15   O7    A    
C16   H1    S    
C20   H7    S    
C5    C6    S    
C6    C18   S    
C13   H4    S    
C1    C19   S    
Cu2   O4    S    
C10   C11   S    
C11   H3    S    
C2    C20   A    
Cu1   O5    S    
C22   C23   S    
C6    H12   S    
C11   H2    S    
C7    C13   S    
Cu2   O8    S    
Cu1   N2    S    
C12   O4    A    
C18   C19   A    
C8    N1    A    
C15   C17   S    
C15   O8    A    
C21   C22   S    
C8    C9    A    
C2    H8    S    
C17   H6    S    
C23   H16   S    
C13   H5    S    
Cu1   O1    S    
C19   C20   A    
C14   O6    A    
C5    H9    S    
C8    H13   S    
Cu1   O3    S    
