data_mof_unit_44874.cif
_audit_creation_date              2012-12-10T18:09:44-0500
_audit_creation_method            fapswitch 2.2
_symmetry_space_group_name_H-M    P1
_symmetry_Int_Tables_number       1
_space_group_crystal_system       triclinic
_cell_length_a                    10.618053
_cell_length_b                    12.611091
_cell_length_c                    13.080448
_cell_angle_alpha                 81.777685
_cell_angle_beta                  90.251881
_cell_angle_gamma                 101.189239
_cell_volume                      1700.09183682

loop_
_atom_site_label
_atom_site_type_symbol
_atom_type_description
_atom_site_fract_x
_atom_site_fract_y
_atom_site_fract_z
_atom_type_partial_charge
C1    C     C_R   0.482870 0.437843 0.691912 0.841764
C2    C     C_3   0.122287 0.501768 0.500718 0.186136
C3    C     C_3   0.098418 0.615431 0.518982 -0.390329
C4    C     C_3   0.053698 0.413912 0.588281 -0.392298
C5    C     C_R   0.402128 0.700623 0.063164 -0.203179
C6    C     C_R   0.502878 0.599201 0.199744 -0.052396
C7    C     C_R   0.502894 0.293783 0.845061 0.158525
C8    C     C_R   0.520057 0.272814 0.951923 -0.135378
C9    C     C_R   0.511359 0.350513 0.014791 -0.264462
C10   C     C_R   0.476853 0.450447 0.974657 0.088852
C11   C     C_R   0.440615 0.466518 0.871024 0.066827
C12   C     C_R   0.741714 0.499928 0.500571 0.821271
C13   C     C_R   0.473445 0.533621 0.035551 0.094213
C14   C     C_R   0.413463 0.622476 0.999030 0.169889
C15   C     C_R   0.362147 0.629607 0.900691 -0.258051
C16   C     C_R   0.375326 0.552629 0.837405 -0.185361
C17   C     C_R   0.527632 0.529999 0.132649 -0.257587
C18   C     C_R   0.443806 0.687339 0.164697 -0.210537
C19   C     C_R   0.470454 0.396204 0.803497 -0.203988
C20   C     C_R   0.273880 0.079322 0.393758 -0.321986
C21   C     C_R   0.660912 0.802288 0.622377 0.022251
C22   C     C_R   0.696487 0.908747 0.643785 -0.249203
C23   C     C_R   0.512732 0.561496 0.308833 0.854537
C24   C     C_R   0.635023 0.989056 0.594216 -0.239053
C25   C     C_R   0.537681 0.962652 0.523219 0.008104
C26   C     C_R   0.502630 0.853349 0.505874 0.249198
C27   C     C_R   0.470512 0.040584 0.472216 -0.040565
C28   C     C_R   0.353566 0.005107 0.424596 0.179222
C29   C     C_R   0.322589 0.897789 0.404371 -0.293101
C30   C     C_R   0.402543 0.825166 0.438227 -0.230087
C31   C     C_R   0.518486 0.153348 0.460588 0.239789
C32   C     C_R   0.312759 0.187056 0.411212 -0.028161
C33   C     C_R   0.258619 0.500516 0.500178 0.812029
C34   C     C_3   0.922195 0.475377 0.396048 -0.414009
C35   C     C_3   0.066880 0.477157 0.395118 -0.403899
C36   C     C_3   0.955347 0.615446 0.518245 -0.384544
C37   C     C_3   0.909399 0.415123 0.589950 -0.411431
C38   C     C_3   0.879066 0.501134 0.501163 0.187339
H1    H     H_    0.898745 0.535804 0.331705 0.156285
H2    H     H_    0.094781 0.430055 0.664307 0.151023
H3    H     H_    0.925983 0.636866 0.593165 0.172472
H4    H     H_    0.137548 0.635771 0.594503 0.180097
H5    H     H_    0.423771 0.741770 0.216790 0.147181
H6    H     H_    0.312446 0.694969 0.872413 0.146682
H7    H     H_    0.355067 0.768156 0.036699 0.135462
H8    H     H_    0.583991 0.469745 0.160665 0.137250
H9    H     H_    0.526180 0.327524 0.095936 0.148640
H10   H     H_    0.544427 0.197411 0.988683 0.158315
H11   H     H_    0.871237 0.393353 0.383123 0.193121
H12   H     H_    0.331188 0.559825 0.762641 0.162311
H13   H     H_    0.248456 0.243614 0.394232 0.146667
H14   H     H_    0.239634 0.871293 0.359182 0.146425
H15   H     H_    0.181592 0.053709 0.359980 0.148565
H16   H     H_    0.709135 0.739424 0.659342 0.131284
H17   H     H_    0.662090 0.070984 0.613331 0.147128
H18   H     H_    0.771160 0.928925 0.698348 0.149943
H19   H     H_    0.383437 0.747938 0.411104 0.205293
H20   H     H_    0.083891 0.396731 0.378815 0.175160
H21   H     H_    0.115100 0.540552 0.331934 0.157238
H22   H     H_    0.935686 0.679481 0.455610 0.177227
H23   H     H_    0.147175 0.679957 0.457118 0.172428
H24   H     H_    0.880832 0.434987 0.665693 0.157944
H25   H     H_    0.854724 0.332301 0.582514 0.159509
H26   H     H_    0.067898 0.331344 0.576206 0.177896
N1    N     N_R   0.433240 0.222190 0.444680 -0.098652
N2    N     N_R   0.566070 0.776970 0.554790 -0.129968
O1    O     O_R   0.468120 0.366740 0.627160 -0.622463
O2    O     O_R   0.510770 0.544830 0.662520 -0.601286
O3    O     O_R   0.663880 0.410950 0.482330 -0.627561
O4    O     O_R   0.706530 0.589040 0.517700 -0.626919
O5    O     O_R   0.489230 0.455170 0.337480 -0.611670
O6    O     O_R   0.531880 0.633260 0.372840 -0.626892
O7    O     O_R   0.293470 0.410960 0.482300 -0.629916
O8    O     O_R   0.336120 0.589050 0.517670 -0.648655
Zn1   Zn    Zn3+2 0.471520 0.381090 0.476390 0.914218
Zn2   Zn    Zn3+2 0.528480 0.618910 0.523610 0.918021
C39   C     C_3   0.518689 0.208280 0.776577 -0.364728
C40   C     C_3   0.541143 0.098429 0.832483 -0.944536
H27   H     H_    0.635281 0.108773 0.870975 0.261040
H28   H     H_    0.462301 0.061181 0.889695 0.263219
H29   H     H_    0.541718 0.041012 0.775909 0.267265
H30   H     H_    0.429312 0.189444 0.732616 0.231185
H31   H     H_    0.600606 0.242380 0.721293 0.209220
C41   C     C_3   0.657985 0.193030 0.426291 -0.395055
C42   C     C_3   0.669281 0.251567 0.314912 -0.854601
H32   H     H_    0.606562 0.201623 0.264092 0.247743
H33   H     H_    0.641812 0.332260 0.309966 0.289586
H34   H     H_    0.769657 0.263593 0.285404 0.224945
H35   H     H_    0.711559 0.242111 0.480920 0.207888
H36   H     H_    0.707978 0.123615 0.425225 0.196686

loop_
_geom_bond_atom_site_label_1
_geom_bond_atom_site_label_2
_ccdc_geom_bond_type
C2    C35   S    
C12   O3    A    
C3    H4    S    
C21   N2    A    
O6    Zn2   S    
C37   H24   S    
C7    C8    A    
C39   C40   S    
C24   H17   S    
C11   C19   A    
C29   C30   A    
O8    Zn2   S    
C35   H20   S    
C3    C36   S    
C28   C29   A    
C16   H12   S    
C15   H6    S    
C21   H16   S    
C40   H28   S    
C39   H31   S    
C15   C16   A    
C30   H19   S    
C1    O2    A    
C35   H21   S    
C34   C35   S    
C41   C42   S    
C4    H2    S    
C8    C9    A    
C9    C10   A    
C7    C39   S    
C42   H33   S    
C13   C14   A    
O7    Zn1   S    
C36   H3    S    
C41   H36   S    
C37   H25   S    
C3    H23   S    
C6    C18   A    
C1    C19   S    
C27   C31   A    
C34   H1    S    
C26   N2    A    
C23   O5    A    
C17   H8    S    
C40   H27   S    
C22   H18   S    
C5    C18   A    
C20   C28   A    
C25   C26   A    
C42   H32   S    
C5    H7    S    
C31   C41   S    
C2    C4    S    
C8    H10   S    
C32   H13   S    
C37   C38   S    
C11   C16   A    
N2    Zn2   S    
C24   C25   A    
C5    C14   A    
C2    C33   S    
C33   O7    A    
C9    H9    S    
C7    C19   A    
O4    Zn2   S    
C22   C24   A    
O2    Zn2   S    
C41   H35   S    
C20   C32   A    
C42   H34   S    
C31   N1    A    
C6    C17   A    
C12   O4    A    
C34   H11   S    
C34   C38   S    
C23   O6    A    
C20   H15   S    
C36   H22   S    
C10   C13   A    
C26   C30   A    
C25   C27   A    
C4    H26   S    
N1    Zn1   S    
C13   C17   A    
C36   C38   S    
C2    C3    S    
C18   H5    S    
O5    Zn1   S    
C40   H29   S    
C39   H30   S    
C6    C23   S    
C1    O1    A    
O3    Zn1   S    
C12   C38   S    
C10   C11   A    
C33   O8    A    
O1    Zn1   S    
C4    C37   S    
C27   C28   A    
C14   C15   A    
C21   C22   A    
C32   N1    A    
C29   H14   S    
