data_mof_unit_32042.cif
_audit_creation_date              2012-12-11T14:10:55-0500
_audit_creation_method            fapswitch 2.2
_symmetry_space_group_name_H-M    P1
_symmetry_Int_Tables_number       1
_space_group_crystal_system       monoclinic
_cell_length_a                    19.955293
_cell_length_b                    17.35248
_cell_length_c                    15.541653
_cell_angle_alpha                 90.0
_cell_angle_beta                  51.961187
_cell_angle_gamma                 90.0
_cell_volume                      4238.5664963

loop_
_atom_site_label
_atom_site_type_symbol
_atom_type_description
_atom_site_fract_x
_atom_site_fract_y
_atom_site_fract_z
_atom_type_partial_charge
C1    C     C_R   0.357668 0.189252 0.019043 -0.146216
C2    C     C_3   0.801262 0.805999 0.404530 -0.257734
C3    C     C_3   0.240595 0.877963 0.534257 -0.914381
C4    C     C_3   0.740593 0.622037 0.534257 -0.914385
C5    C     C_3   0.259406 0.377963 0.465742 -0.914384
C6    C     C_3   0.363731 0.569337 0.441309 -0.953947
C7    C     C_3   0.636268 0.430662 0.558692 -0.953946
C8    C     C_3   0.332457 0.687023 0.955088 -1.043340
C9    C     C_3   0.667542 0.312977 0.044913 -1.043338
C10   C     C_3   0.639054 0.665973 0.095270 -1.070826
C11   C     C_3   0.360947 0.334028 0.904727 -1.070822
C12   C     C_3   0.860947 0.165972 0.904727 -1.070821
C13   C     C_3   0.696028 0.245976 0.436777 -0.274678
C14   C     C_3   0.139053 0.834028 0.095275 -1.070826
C15   C     C_3   0.167542 0.187023 0.044913 -1.043338
C16   C     C_3   0.832459 0.812977 0.955084 -1.043336
C17   C     C_3   0.303972 0.754024 0.563223 -0.274677
C18   C     C_3   0.803971 0.745975 0.563223 -0.274677
C19   C     C_3   0.196028 0.254024 0.436777 -0.274677
C20   C     C_3   0.301262 0.694001 0.404530 -0.257735
C21   C     C_3   0.698738 0.305999 0.595469 -0.257735
C22   C     C_2   0.244404 0.722009 0.014182 0.222722
C23   C     C_2   0.755594 0.277992 0.985820 0.222721
C24   C     C_2   0.725871 0.701732 0.040320 0.224260
C25   C     C_R   0.642333 0.810748 0.980956 -0.146206
C26   C     C_2   0.274130 0.298269 0.959679 0.224258
C27   C     C_2   0.774130 0.201731 0.959679 0.224258
C28   C     C_2   0.225869 0.798269 0.040322 0.224258
C29   C     C_2   0.255594 0.222008 0.985820 0.222721
C30   C     C_2   0.744407 0.777992 0.014178 0.222718
C31   C     C_R   0.398896 0.801097 0.208455 -0.241765
C32   C     C_R   0.601104 0.198903 0.791545 -0.241768
C33   C     C_R   0.647192 0.824114 0.776806 -0.215146
C34   C     C_R   0.352807 0.175886 0.223194 -0.215144
C35   C     C_R   0.852807 0.324114 0.223194 -0.215144
C36   C     C_R   0.661309 0.172467 0.945793 -0.134542
C37   C     C_R   0.147192 0.675886 0.776806 -0.215144
C38   C     C_R   0.101104 0.301097 0.791545 -0.241768
C39   C     C_R   0.898896 0.698903 0.208455 -0.241768
C40   C     C_R   0.331833 0.908864 0.948685 -0.122288
C41   C     C_R   0.668167 0.091136 0.051316 -0.122288
C42   C     C_R   0.653633 0.898184 0.076404 -0.077521
C43   C     C_R   0.346368 0.101816 0.923594 -0.077518
C44   C     C_R   0.846368 0.398184 0.923594 -0.077519
C45   C     C_R   0.153632 0.601816 0.076406 -0.077517
C46   C     C_R   0.168167 0.408864 0.051315 -0.122288
C47   C     C_R   0.338691 0.827533 0.054208 -0.134544
C48   C     C_R   0.831833 0.591136 0.948684 -0.122289
C49   C     C_R   0.360330 0.084783 0.318631 0.478204
C50   C     C_R   0.639670 0.915217 0.681369 0.478204
C51   C     C_R   0.583373 0.111585 0.703060 0.545931
C52   C     C_R   0.416627 0.888415 0.296940 0.545929
C53   C     C_R   0.916627 0.611585 0.296940 0.545930
C54   C     C_R   0.083373 0.388415 0.703060 0.545929
C55   C     C_R   0.139670 0.584783 0.681369 0.478204
C56   C     C_R   0.860330 0.415217 0.318631 0.478203
C57   C     C_R   0.317102 0.172157 0.976144 0.102536
C58   C     C_R   0.838691 0.672467 0.054207 -0.134542
C59   C     C_R   0.682899 0.827843 0.023854 0.102536
C60   C     C_R   0.709137 0.151708 0.977334 0.105850
C61   C     C_R   0.290863 0.848292 0.022666 0.105852
C62   C     C_R   0.790863 0.651708 0.022665 0.105850
C63   C     C_R   0.209137 0.348292 0.977334 0.105850
C64   C     C_R   0.182897 0.672158 0.023857 0.102537
C65   C     C_R   0.817102 0.327843 0.976144 0.102537
C66   C     C_R   0.395952 0.813518 0.297659 -0.035508
C67   C     C_R   0.604049 0.186482 0.702340 -0.035508
C68   C     C_R   0.687479 0.855127 0.674341 -0.041065
C69   C     C_R   0.161309 0.327533 0.945793 -0.134542
C70   C     C_R   0.312520 0.144872 0.325659 -0.041066
C71   C     C_R   0.812520 0.355128 0.325659 -0.041065
C72   C     C_R   0.187480 0.644872 0.674341 -0.041066
C73   C     C_R   0.104049 0.313518 0.702340 -0.035507
C74   C     C_R   0.895951 0.686482 0.297660 -0.035508
C75   C     C_3   0.170391 0.151349 0.535237 0.284772
C76   C     C_3   0.829608 0.848650 0.464763 0.284772
C77   C     C_3   0.724299 0.203533 0.496538 0.231113
C78   C     C_3   0.275701 0.796467 0.503461 0.231113
C79   C     C_3   0.775700 0.703533 0.503461 0.231115
C80   C     C_R   0.142332 0.689252 0.980958 -0.146222
C81   C     C_3   0.224299 0.296467 0.496539 0.231115
C82   C     C_3   0.329609 0.651349 0.464763 0.284772
C83   C     C_3   0.670391 0.348650 0.535237 0.284772
C84   C     C_3   0.724149 0.772717 0.514210 0.282334
C85   C     C_3   0.275851 0.227283 0.485789 0.282336
C86   C     C_3   0.381966 0.721967 0.452116 0.270578
C87   C     C_3   0.618034 0.278033 0.547885 0.270577
C88   C     C_3   0.118034 0.221967 0.547885 0.270576
C89   C     C_3   0.881965 0.778032 0.452116 0.270575
C90   C     C_3   0.775851 0.272717 0.485789 0.282335
C91   C     C_R   0.857668 0.310748 0.019043 -0.146217
C92   C     C_3   0.224149 0.727283 0.514210 0.282336
C93   C     C_3   0.751939 0.815794 0.573729 0.041768
C94   C     C_3   0.248060 0.184206 0.426271 0.041767
C95   C     C_3   0.353222 0.764429 0.393295 0.032622
C96   C     C_3   0.646779 0.235570 0.606705 0.032623
C97   C     C_3   0.146779 0.264429 0.606705 0.032623
C98   C     C_3   0.853221 0.735570 0.393295 0.032623
C99   C     C_3   0.748060 0.315794 0.426271 0.041767
C100  C     C_3   0.251939 0.684206 0.573729 0.041767
C101  C     C_3   0.635139 0.763251 0.546386 -0.885211
C102  C     C_3   0.198738 0.194001 0.595469 -0.257735
C103  C     C_3   0.364860 0.236750 0.453613 -0.885211
C104  C     C_3   0.471474 0.718153 0.418294 -0.898623
C105  C     C_3   0.528526 0.281846 0.581707 -0.898620
C106  C     C_3   0.028526 0.218154 0.581707 -0.898620
C107  C     C_3   0.971473 0.781844 0.418294 -0.898618
C108  C     C_3   0.864860 0.263250 0.453613 -0.885212
C109  C     C_3   0.135140 0.736750 0.546386 -0.885211
C110  C     C_3   0.136268 0.069338 0.558692 -0.953947
C111  C     C_3   0.863732 0.930662 0.441309 -0.953948
C112  C     C_3   0.759406 0.122037 0.465742 -0.914381
Cl1   Cl    Cl    0.351263 0.045891 0.428783 -0.687839
Cl2   Cl    Cl    0.648737 0.954109 0.571216 -0.687839
Cl3   Cl    Cl    0.523473 0.087047 0.658815 -0.625654
Cl4   Cl    Cl    0.476527 0.912953 0.341184 -0.625654
Cl5   Cl    Cl    0.976527 0.587047 0.341185 -0.625653
Cl6   Cl    Cl    0.023473 0.412953 0.658815 -0.625653
Cl7   Cl    Cl    0.148736 0.545891 0.571217 -0.687838
Cl8   Cl    Cl    0.851263 0.454109 0.428783 -0.687839
H1    H     H_    0.356374 0.243386 0.053960 0.116024
H2    H     H_    0.604047 0.254091 0.821341 0.133326
H3    H     H_    0.117903 0.225739 0.111005 0.264801
H4    H     H_    0.154532 0.174262 0.986590 0.249066
H5    H     H_    0.837784 0.868506 0.915584 0.256466
H6    H     H_    0.845470 0.825738 0.013408 0.249066
H7    H     H_    0.882099 0.774261 0.888992 0.264801
H8    H     H_    0.663771 0.771214 0.795609 0.131272
H9    H     H_    0.336228 0.228785 0.204390 0.131273
H10   H     H_    0.836228 0.271215 0.204390 0.131273
H11   H     H_    0.163772 0.728785 0.795610 0.131273
H12   H     H_    0.104047 0.245909 0.821341 0.133326
H13   H     H_    0.895953 0.754091 0.178659 0.133326
H14   H     H_    0.313160 0.937403 0.904610 0.121361
H15   H     H_    0.686840 0.062597 0.095391 0.121362
H16   H     H_    0.668018 0.926042 0.125511 0.141468
H17   H     H_    0.643627 0.756615 0.946038 0.116019
H18   H     H_    0.331983 0.073958 0.874488 0.141469
H19   H     H_    0.831983 0.426042 0.874488 0.141469
H20   H     H_    0.168016 0.573958 0.125513 0.141469
H21   H     H_    0.186840 0.437403 0.095390 0.121362
H22   H     H_    0.813160 0.562597 0.904609 0.121364
H23   H     H_    0.200630 0.168146 0.659273 0.165529
H24   H     H_    0.799371 0.831854 0.340727 0.165529
H25   H     H_    0.694998 0.221565 0.371564 0.163972
H26   H     H_    0.305002 0.778435 0.628436 0.163973
H27   H     H_    0.805000 0.721564 0.628436 0.163972
H28   H     H_    0.673889 0.218374 0.890848 0.118987
H29   H     H_    0.194998 0.278435 0.371564 0.163972
H30   H     H_    0.299371 0.668146 0.340727 0.165529
H31   H     H_    0.700630 0.331854 0.659273 0.165529
H32   H     H_    0.614944 0.816125 0.528330 0.301436
H33   H     H_    0.635544 0.715522 0.498528 0.236992
H34   H     H_    0.588923 0.749532 0.634725 0.238783
H35   H     H_    0.385056 0.183876 0.471669 0.301436
H36   H     H_    0.411077 0.250468 0.365274 0.238783
H37   H     H_    0.364456 0.284479 0.501471 0.236992
H38   H     H_    0.491682 0.775871 0.424831 0.297476
H39   H     H_    0.326111 0.781627 0.109153 0.118987
H40   H     H_    0.472423 0.677906 0.473022 0.237709
H41   H     H_    0.516267 0.697218 0.333133 0.245369
H42   H     H_    0.508320 0.224128 0.575165 0.297476
H43   H     H_    0.483732 0.302776 0.666871 0.245371
H44   H     H_    0.527575 0.322095 0.526983 0.237708
H45   H     H_    0.008320 0.275872 0.575165 0.297476
H46   H     H_    0.027575 0.177904 0.526983 0.237709
H47   H     H_    0.983732 0.197224 0.666871 0.245371
H48   H     H_    0.991677 0.724127 0.424839 0.297476
H49   H     H_    0.016268 0.802771 0.333128 0.245372
H50   H     H_    0.826112 0.718374 0.109152 0.118987
H51   H     H_    0.972426 0.822096 0.473015 0.237708
H52   H     H_    0.885056 0.316124 0.471669 0.301436
H53   H     H_    0.864456 0.215521 0.501471 0.236992
H54   H     H_    0.911077 0.249532 0.365274 0.238783
H55   H     H_    0.114944 0.683876 0.528331 0.301436
H56   H     H_    0.088923 0.750469 0.634725 0.238783
H57   H     H_    0.135545 0.784480 0.498528 0.236991
H58   H     H_    0.071271 0.067666 0.637950 0.246838
H59   H     H_    0.133882 0.049330 0.492812 0.244783
H60   H     H_    0.177277 0.030541 0.564395 0.293894
H61   H     H_    0.173889 0.281626 0.890847 0.118987
H62   H     H_    0.928729 0.932334 0.362050 0.246839
H63   H     H_    0.822724 0.969459 0.435605 0.293894
H64   H     H_    0.866118 0.950670 0.507189 0.244783
H65   H     H_    0.823724 0.122463 0.385394 0.241792
H66   H     H_    0.763588 0.097962 0.528441 0.249149
H67   H     H_    0.717408 0.086323 0.458126 0.318565
H68   H     H_    0.176276 0.877537 0.614606 0.241792
H69   H     H_    0.282592 0.913677 0.541873 0.318564
H70   H     H_    0.236412 0.902038 0.471558 0.249148
H71   H     H_    0.676274 0.622463 0.614605 0.241793
H72   H     H_    0.143625 0.743386 0.946041 0.116027
H73   H     H_    0.736411 0.597963 0.471558 0.249148
H74   H     H_    0.782590 0.586323 0.541873 0.318564
H75   H     H_    0.323724 0.377537 0.385394 0.241793
H76   H     H_    0.217408 0.413677 0.458127 0.318564
H77   H     H_    0.263588 0.402037 0.528441 0.249148
H78   H     H_    0.428728 0.567665 0.362050 0.246838
H79   H     H_    0.366118 0.549329 0.507188 0.244783
H80   H     H_    0.322723 0.530541 0.435606 0.293894
H81   H     H_    0.571271 0.432334 0.637951 0.246838
H82   H     H_    0.677276 0.469459 0.564394 0.293894
H83   H     H_    0.856374 0.256614 0.053960 0.116024
H84   H     H_    0.633881 0.450670 0.492812 0.244783
H85   H     H_    0.337782 0.631494 0.915588 0.256466
H86   H     H_    0.382096 0.725739 0.888995 0.264802
H87   H     H_    0.345468 0.674263 0.013411 0.249066
H88   H     H_    0.662217 0.368506 0.084413 0.256465
H89   H     H_    0.654531 0.325738 0.986590 0.249066
H90   H     H_    0.617903 0.274261 0.111005 0.264801
H91   H     H_    0.626518 0.622055 0.155641 0.259407
H92   H     H_    0.586934 0.708900 0.140717 0.267362
H93   H     H_    0.637169 0.636939 0.033168 0.254249
H94   H     H_    0.395953 0.745909 0.178659 0.133326
H95   H     H_    0.373486 0.377938 0.844345 0.259406
H96   H     H_    0.362827 0.363072 0.966828 0.254250
H97   H     H_    0.413067 0.291101 0.859292 0.267359
H98   H     H_    0.873486 0.122062 0.844345 0.259406
H99   H     H_    0.913067 0.208899 0.859293 0.267359
H100  H     H_    0.862827 0.136928 0.966828 0.254250
H101  H     H_    0.126511 0.877933 0.155664 0.259406
H102  H     H_    0.137175 0.863079 0.033176 0.254252
H103  H     H_    0.086932 0.791101 0.140702 0.267358
H104  H     H_    0.162217 0.131494 0.084413 0.256466
N1    N     N_R   0.408680 0.130810 0.995780 -0.044918
N2    N     N_R   0.578590 0.132790 0.846380 -0.067664
N3    N     N_R   0.578590 0.867210 0.846380 -0.064369
N4    N     N_R   0.421410 0.132790 0.153620 -0.064369
N5    N     N_R   0.921410 0.367210 0.153620 -0.064369
N6    N     N_R   0.078590 0.632790 0.846380 -0.064369
N7    N     N_R   0.078590 0.367210 0.846380 -0.067664
N8    N     N_R   0.921410 0.632790 0.153620 -0.067663
N9    N     N_R   0.403840 0.921910 0.935760 -0.039968
N10   N     N_R   0.596160 0.078090 0.064240 -0.039968
N11   N     N_R   0.596160 0.921910 0.064240 -0.043446
N12   N     N_R   0.591320 0.869190 0.004220 -0.044919
N13   N     N_R   0.403840 0.078090 0.935760 -0.043447
N14   N     N_R   0.903840 0.421910 0.935760 -0.043446
N15   N     N_R   0.096160 0.578090 0.064240 -0.043447
N16   N     N_R   0.096160 0.421910 0.064240 -0.039968
N17   N     N_R   0.903840 0.578090 0.935760 -0.039968
N18   N     N_R   0.426250 0.076100 0.213650 -0.080662
N19   N     N_R   0.573750 0.923900 0.786350 -0.080662
N20   N     N_R   0.573750 0.076100 0.786350 -0.097356
N21   N     N_R   0.426250 0.923900 0.213650 -0.097356
N22   N     N_R   0.926250 0.576100 0.213650 -0.097356
N23   N     N_R   0.591320 0.130810 0.004220 -0.046043
N24   N     N_R   0.073750 0.423900 0.786350 -0.097356
N25   N     N_R   0.073750 0.576100 0.786350 -0.080662
N26   N     N_R   0.926250 0.423900 0.213650 -0.080662
N27   N     N_R   0.408680 0.869190 0.995780 -0.046043
N28   N     N_R   0.908680 0.630810 0.995780 -0.046043
N29   N     N_R   0.091320 0.369190 0.004220 -0.046043
N30   N     N_R   0.091320 0.630810 0.004220 -0.044917
N31   N     N_R   0.908680 0.369190 0.995780 -0.044918
N32   N     N_R   0.421410 0.867210 0.153620 -0.067664
Ni1   Ni    Ni4+2 0.500000 0.131570 0.000000 0.196720
Ni2   Ni    Ni4+2 0.500000 0.868430 0.000000 0.196721
Ni3   Ni    Ni4+2 0.000000 0.631570 0.000000 0.196720
Ni4   Ni    Ni4+2 1.000000 0.368430 0.000000 0.196720
Ni5   Ni    Ni4+2 0.488900 0.000000 0.862310 0.295217
Ni6   Ni    Ni4+2 0.511100 0.000000 0.137690 0.295218
Ni7   Ni    Ni4+2 0.988900 0.500000 0.862310 0.295217
Ni8   Ni    Ni4+2 0.011100 0.500000 0.137690 0.295217

loop_
_geom_bond_atom_site_label_1
_geom_bond_atom_site_label_2
_ccdc_geom_bond_type
C58   C62   A    
C31   C66   A    
C7    C83   S    
C14   C28   S    
C6    C82   S    
C20   C82   S    
C8    H87   S    
N1    N13   A    
C14   H101  S    
C58   N28   A    
N7    N24   A    
C13   H25   S    
C36   N23   A    
C2    C76   S    
C86   C104  S    
C52   N21   A    
C112  H67   S    
C49   N18   A    
C44   C65   A    
C109  H56   S    
N22   Ni8   S    
C107  H51   S    
C74   C98   S    
C31   H94   S    
C55   Cl7   S    
N30   Ni3   S    
C73   C97   S    
C20   C92   S    
C91   H83   S    
N9    N27   A    
N16   N29   A    
C33   C68   A    
C80   N30   A    
C31   N32   A    
C36   C60   A    
C110  H59   S    
C58   H50   S    
C45   C64   A    
C104  H40   S    
C32   N2    A    
C7    H82   S    
C27   C60   S    
C3    H69   S    
N27   Ni2   S    
N3    N19   A    
C6    H79   S    
C76   C93   S    
C53   Cl5   S    
C92   C109  S    
C41   N10   A    
C110  H58   S    
C16   C30   S    
C16   H7    S    
C76   C89   S    
C2    H24   S    
C43   H18   S    
C42   H16   S    
N19   Ni5   S    
C42   N11   A    
C39   C74   A    
C15   H104  S    
C53   N22   A    
C17   C78   S    
C9    C23   S    
C43   N13   A    
N3    Ni2   S    
C19   H29   S    
C5    C81   S    
N31   Ni4   S    
C2    C84   S    
C36   H28   S    
C34   N4    A    
C21   C83   S    
C25   N12   A    
C9    H89   S    
C18   C79   S    
C54   Cl6   S    
N8    Ni3   S    
N32   Ni2   S    
C111  H63   S    
C75   C102  S    
C8    C22   S    
N11   N12   A    
C55   N25   A    
C46   N16   A    
N6    N25   A    
C16   H5    S    
C11   H97   S    
C12   H99   S    
C47   N27   A    
C97   C102  S    
C85   C103  S    
C11   H96   S    
C5    H75   S    
N24   Ni7   S    
C50   N19   A    
C28   C61   S    
C21   H31   S    
C35   C71   A    
C83   C99   S    
C3    H68   S    
C84   C101  S    
C64   C80   A    
C4    H71   S    
C89   C107  S    
N14   Ni7   S    
C4    H73   S    
N17   N28   A    
N16   Ni8   S    
N21   Ni6   S    
N2    Ni1   S    
C12   H98   S    
N23   Ni1   S    
C15   C29   S    
C46   H21   S    
C24   C30   D    
C21   C90   S    
C52   Cl4   S    
C53   C74   A    
C37   N6    A    
N21   N32   A    
C13   C77   S    
C77   C90   S    
C15   H4    S    
C12   C27   S    
N13   Ni5   S    
C17   C86   S    
C112  H65   S    
C106  H45   S    
C32   H2    S    
C14   H103  S    
C34   H9    S    
C4    C79   S    
C18   H27   S    
C3    H70   S    
C104  H41   S    
C6    H78   S    
C43   C57   A    
N4    Ni1   S    
C103  H37   S    
C47   H39   S    
C11   C26   S    
C10   C24   S    
C101  H33   S    
C82   C86   S    
C71   C99   S    
C33   H8    S    
C51   Cl3   S    
C40   C61   A    
C37   H11   S    
C56   N26   A    
C35   N5    A    
C78   C95   S    
C38   H12   S    
C13   C99   S    
C77   C112  S    
C25   H17   S    
C26   C63   S    
C45   N15   A    
C7    H84   S    
C1    C57   A    
N10   N23   A    
C54   C73   A    
C88   C106  S    
C85   C94   S    
C10   H91   S    
C55   C72   A    
N2    N20   A    
C87   C105  S    
C110  H60   S    
C9    H90   S    
C56   C71   A    
C30   C59   S    
C13   C87   S    
N15   N30   A    
C105  H43   S    
C49   Cl1   S    
N18   Ni6   S    
C105  H44   S    
C48   H22   S    
C103  H36   S    
C10   H93   S    
C51   C67   A    
N25   Ni7   S    
C8    H86   S    
C35   H10   S    
N26   Ni8   S    
C19   C94   S    
C15   H3    S    
C5    H76   S    
C10   H92   S    
C75   C94   S    
C20   C95   S    
C29   C57   S    
C54   N24   A    
C19   C88   S    
C44   H19   S    
C23   C27   D    
C49   C70   A    
C32   C67   A    
C67   C96   S    
N15   Ni8   S    
C6    H80   S    
C102  H23   S    
C4    H74   S    
C108  H53   S    
C106  H46   S    
C90   C99   S    
C41   H15   S    
C52   C66   A    
C92   C100  S    
N9    Ni5   S    
C72   C100  S    
C1    N1    A    
C65   C91   A    
C34   C70   A    
C107  H48   S    
C69   N29   A    
C75   C110  S    
C24   C62   S    
C101  H32   S    
C70   C94   S    
C18   C89   S    
C82   C100  S    
C14   H102  S    
C45   H20   S    
N5    N26   A    
C41   C60   A    
C104  H38   S    
C48   N17   A    
C33   N3    A    
C9    H88   S    
C44   N14   A    
C83   C87   S    
C47   C61   A    
C5    H77   S    
C109  H55   S    
C87   C96   S    
C38   N7    A    
C56   Cl8   S    
C21   C96   S    
N11   Ni6   S    
C39   H13   S    
N7    Ni4   S    
N14   N31   A    
C77   C96   S    
N12   Ni2   S    
C68   C93   S    
C89   C98   S    
C63   C69   A    
C78   C92   S    
C106  H47   S    
C23   C65   S    
C108  H52   S    
C17   H26   S    
C48   C62   A    
C88   C97   S    
C90   C108  S    
C39   N8    A    
C7    H81   S    
C40   H14   S    
C37   C72   A    
C112  H66   S    
N29   Ni4   S    
C107  H49   S    
C79   C84   S    
C46   C63   A    
C91   N31   A    
C101  H34   S    
C76   C111  S    
C111  H64   S    
C81   C97   S    
C20   H30   S    
N8    N22   A    
C84   C93   S    
C111  H62   S    
C108  H54   S    
C8    H85   S    
C17   C100  S    
C1    H1    S    
C16   H6    S    
C86   C95   S    
C80   H72   S    
N1    Ni1   S    
N5    Ni4   S    
C109  H57   S    
C75   C88   S    
C40   N9    A    
N4    N18   A    
N6    Ni3   S    
C2    C98   S    
C26   C29   D    
N17   Ni7   S    
C42   C59   A    
C11   H95   S    
C18   C93   S    
C51   N20   A    
C105  H42   S    
C79   C98   S    
C22   C28   D    
N20   Ni5   S    
C25   C59   A    
C22   C64   S    
C50   Cl2   S    
C19   C81   S    
C3    C78   S    
C50   C68   A    
C12   H100  S    
C81   C85   S    
C85   C102  S    
C103  H35   S    
N28   Ni3   S    
C69   H61   S    
C66   C95   S    
C38   C73   A    
N10   Ni6   S    
