data_mof_unit_31620.cif
_audit_creation_date              2012-12-11T14:41:14-0500
_audit_creation_method            fapswitch 2.2
_symmetry_space_group_name_H-M    P1
_symmetry_Int_Tables_number       1
_space_group_crystal_system       triclinic
_cell_length_a                    24.618387
_cell_length_b                    17.441641
_cell_length_c                    15.532326
_cell_angle_alpha                 89.999989
_cell_angle_beta                  129.188509
_cell_angle_gamma                 90.0
_cell_volume                      5169.2204232

loop_
_atom_site_label
_atom_site_type_symbol
_atom_type_description
_atom_site_fract_x
_atom_site_fract_y
_atom_site_fract_z
_atom_type_partial_charge
C1    C     C_R   0.334614 0.390983 0.199268 -0.128807
C2    C     C_R   0.679638 0.624619 0.496184 -0.009745
C3    C     C_R   0.179638 0.875381 0.496184 -0.009746
C4    C     C_R   0.179638 0.124619 0.496184 -0.009745
C5    C     C_R   0.357094 0.317998 0.498117 0.023472
C6    C     C_R   0.357094 0.682002 0.498117 0.023472
C7    C     C_R   0.857094 0.817998 0.498117 0.023471
C8    C     C_R   0.857094 0.182002 0.498117 0.023472
C9    C     C_3   0.355393 0.204819 0.595085 -0.405061
C10   C     C_3   0.355393 0.795181 0.595085 -0.405061
C11   C     C_3   0.855393 0.704819 0.595086 -0.405063
C12   C     C_R   0.334614 0.609017 0.199268 -0.128807
C13   C     C_3   0.855393 0.295181 0.595085 -0.405060
C14   C     C_3   0.805119 0.645025 0.583845 -0.487163
C15   C     C_3   0.805119 0.354975 0.583844 -0.487163
C16   C     C_3   0.305119 0.145025 0.583844 -0.487164
C17   C     C_3   0.305119 0.854975 0.583844 -0.487163
C18   C     C_3   0.262322 0.308516 0.505205 -0.382723
C19   C     C_3   0.262322 0.691484 0.505205 -0.382725
C20   C     C_3   0.762322 0.808516 0.505204 -0.382724
C21   C     C_3   0.762322 0.191484 0.505204 -0.382723
C22   C     C_3   0.269711 0.212312 0.388268 -0.463299
C23   C     C_R   0.834614 0.890983 0.199268 -0.128806
C24   C     C_3   0.269711 0.787688 0.388268 -0.463298
C25   C     C_3   0.769712 0.712311 0.388269 -0.463297
C26   C     C_3   0.769712 0.287688 0.388269 -0.463299
C27   C     C_3   0.312454 0.261730 0.496331 0.336436
C28   C     C_3   0.312454 0.738270 0.496331 0.336436
C29   C     C_3   0.812454 0.761730 0.496332 0.336436
C30   C     C_3   0.812454 0.238270 0.496331 0.336436
C31   C     C_3   0.727662 0.671837 0.493527 0.263434
C32   C     C_3   0.727662 0.328163 0.493527 0.263435
C33   C     C_3   0.227662 0.171837 0.493527 0.263435
C34   C     C_R   0.834614 0.109017 0.199268 -0.128807
C35   C     C_3   0.227662 0.828163 0.493527 0.263435
C36   C     C_3   0.720657 0.754653 0.521037 -0.332386
C37   C     C_3   0.720658 0.245347 0.521038 -0.332387
C38   C     C_3   0.220658 0.254653 0.521038 -0.332388
C39   C     C_3   0.220658 0.745347 0.521038 -0.332386
C40   C     C_R   0.654120 0.365296 0.765102 -0.117315
C41   C     C_R   0.654121 0.634704 0.765102 -0.117316
C42   C     C_R   0.154121 0.865296 0.765102 -0.117316
C43   C     C_R   0.154120 0.134704 0.765102 -0.117315
C44   C     C_3   0.710749 0.670623 0.377442 0.328363
C45   C     C_R   0.624994 0.326479 0.804920 0.143162
C46   C     C_3   0.710748 0.329376 0.377442 0.328363
C47   C     C_3   0.210748 0.170624 0.377442 0.328363
C48   C     C_3   0.210748 0.829376 0.377442 0.328363
C49   C     C_2   0.651988 0.256038 0.869942 -0.209495
C50   C     C_2   0.651988 0.743961 0.869943 -0.209495
C51   C     C_2   0.151989 0.756038 0.869942 -0.209495
C52   C     C_2   0.151989 0.243961 0.869942 -0.209495
C53   C     C_2   0.699223 0.213711 0.875055 -0.113422
C54   C     C_2   0.699223 0.786289 0.875055 -0.113423
C55   C     C_2   0.199223 0.713711 0.875055 -0.113423
C56   C     C_R   0.624994 0.673521 0.804921 0.143162
C57   C     C_2   0.199224 0.286289 0.875055 -0.113422
C58   C     C_2   0.310045 0.658619 0.024196 -0.208521
C59   C     C_2   0.310045 0.341381 0.024196 -0.208520
C60   C     C_2   0.810045 0.158619 0.024196 -0.208521
C61   C     C_2   0.810045 0.841381 0.024196 -0.208521
C62   C     C_2   0.240505 0.658774 0.964588 -0.113447
C63   C     C_2   0.240505 0.341226 0.964588 -0.113447
C64   C     C_2   0.740505 0.158774 0.964588 -0.113447
C65   C     C_2   0.740505 0.841226 0.964589 -0.113447
C66   C     C_R   0.612978 0.395400 0.405561 -0.082686
C67   C     C_R   0.124994 0.826479 0.804921 0.143162
C68   C     C_R   0.612978 0.604600 0.405561 -0.082687
C69   C     C_R   0.112978 0.895400 0.405561 -0.082686
C70   C     C_R   0.112978 0.104600 0.405561 -0.082686
C71   C     C_R   0.407712 0.360762 0.591365 -0.142833
C72   C     C_R   0.407712 0.639238 0.591365 -0.142834
C73   C     C_R   0.907712 0.860762 0.591365 -0.142833
C74   C     C_R   0.907712 0.139238 0.591365 -0.142834
C75   C     C_R   0.687606 0.393280 0.590310 -0.142410
C76   C     C_R   0.687606 0.606719 0.590310 -0.142409
C77   C     C_R   0.187606 0.893280 0.590310 -0.142409
C78   C     C_R   0.124994 0.173521 0.804920 0.143161
C79   C     C_R   0.187606 0.106720 0.590310 -0.142409
C80   C     C_R   0.335800 0.359761 0.406095 -0.127228
C81   C     C_R   0.335800 0.640239 0.406095 -0.127229
C82   C     C_R   0.835800 0.859761 0.406095 -0.127229
C83   C     C_R   0.835800 0.140239 0.406095 -0.127229
C84   C     C_R   0.566147 0.366680 0.772846 -0.136936
C85   C     C_R   0.566147 0.633320 0.772846 -0.136936
C86   C     C_R   0.066147 0.866680 0.772846 -0.136937
C87   C     C_R   0.066147 0.133320 0.772846 -0.136936
C88   C     C_R   0.425685 0.388926 0.199756 -0.124281
C89   C     C_R   0.679638 0.375381 0.496184 -0.009745
C90   C     C_R   0.425685 0.611074 0.199756 -0.124282
C91   C     C_R   0.925685 0.888926 0.199756 -0.124282
C92   C     C_R   0.925685 0.111074 0.199756 -0.124282
C93   C     C_R   0.355556 0.370149 0.138089 0.145721
C94   C     C_R   0.355556 0.629851 0.138089 0.145721
C95   C     C_R   0.855556 0.870149 0.138089 0.145721
C96   C     C_R   0.855556 0.129851 0.138089 0.145721
Cl1   Cl    Cl    0.629143 0.717329 0.267859 -0.732111
Cl2   Cl    Cl    0.629142 0.282670 0.267859 -0.732110
Cl3   Cl    Cl    0.129142 0.217331 0.267859 -0.732110
Cl4   Cl    Cl    0.129142 0.782669 0.267859 -0.732110
H1    H     H_    0.281776 0.393619 0.170935 0.087899
H2    H     H_    0.812979 0.411544 0.559989 0.160740
H3    H     H_    0.312978 0.088456 0.559988 0.160741
H4    H     H_    0.312978 0.911544 0.559988 0.160740
H5    H     H_    0.318938 0.137995 0.666620 0.177063
H6    H     H_    0.318938 0.862004 0.666620 0.177063
H7    H     H_    0.818938 0.637996 0.666621 0.177063
H8    H     H_    0.818938 0.362004 0.666620 0.177063
H9    H     H_    0.291749 0.349271 0.576371 0.147011
H10   H     H_    0.291749 0.650729 0.576371 0.147012
H11   H     H_    0.791749 0.849272 0.576369 0.147011
H12   H     H_    0.281776 0.606381 0.170935 0.087899
H13   H     H_    0.791749 0.150728 0.576370 0.147011
H14   H     H_    0.741239 0.758015 0.608678 0.147144
H15   H     H_    0.741239 0.241986 0.608679 0.147144
H16   H     H_    0.241240 0.258014 0.608679 0.147144
H17   H     H_    0.241240 0.741986 0.608679 0.147143
H18   H     H_    0.746649 0.745638 0.311763 0.198331
H19   H     H_    0.746648 0.254361 0.311762 0.198331
H20   H     H_    0.246648 0.245639 0.311762 0.198331
H21   H     H_    0.246648 0.754361 0.311762 0.198331
H22   H     H_    0.304886 0.169574 0.392374 0.138292
H23   H     H_    0.781776 0.893618 0.170935 0.087898
H24   H     H_    0.304886 0.830426 0.392374 0.138292
H25   H     H_    0.804887 0.669574 0.392376 0.138292
H26   H     H_    0.804886 0.330425 0.392374 0.138292
H27   H     H_    0.707874 0.610342 0.351346 0.055011
H28   H     H_    0.707873 0.389657 0.351345 0.055011
H29   H     H_    0.207873 0.110343 0.351345 0.055011
H30   H     H_    0.207873 0.889657 0.351345 0.055011
H31   H     H_    0.225718 0.343070 0.428395 0.202466
H32   H     H_    0.225718 0.656930 0.428395 0.202467
H33   H     H_    0.725718 0.843069 0.428394 0.202466
H34   H     H_    0.781776 0.106381 0.170935 0.087899
H35   H     H_    0.725718 0.156930 0.428395 0.202466
H36   H     H_    0.702292 0.352646 0.779908 0.089451
H37   H     H_    0.702292 0.647354 0.779908 0.089452
H38   H     H_    0.202292 0.852646 0.779908 0.089452
H39   H     H_    0.202292 0.147354 0.779908 0.089451
H40   H     H_    0.664951 0.773540 0.467490 0.202844
H41   H     H_    0.664951 0.226459 0.467492 0.202844
H42   H     H_    0.164951 0.273541 0.467492 0.202844
H43   H     H_    0.164951 0.726459 0.467492 0.202844
H44   H     H_    0.215601 0.630275 0.993616 0.130804
H45   H     H_    0.396079 0.175583 0.596372 0.166149
H46   H     H_    0.215601 0.369725 0.993616 0.130805
H47   H     H_    0.715601 0.130275 0.993616 0.130805
H48   H     H_    0.715601 0.869725 0.993616 0.130805
H49   H     H_    0.715576 0.227957 0.826412 0.127816
H50   H     H_    0.715576 0.772043 0.826412 0.127816
H51   H     H_    0.215576 0.727957 0.826412 0.127816
H52   H     H_    0.215577 0.272043 0.826412 0.127816
H53   H     H_    0.334104 0.688013 0.994080 0.140322
H54   H     H_    0.334104 0.311987 0.994080 0.140322
H55   H     H_    0.834104 0.188013 0.994080 0.140322
H56   H     H_    0.396079 0.824417 0.596372 0.166149
H57   H     H_    0.834104 0.811987 0.994080 0.140322
H58   H     H_    0.636502 0.241481 0.919804 0.142162
H59   H     H_    0.636502 0.758518 0.919804 0.142162
H60   H     H_    0.136503 0.741482 0.919804 0.142162
H61   H     H_    0.136502 0.258519 0.919804 0.142162
H62   H     H_    0.590887 0.399729 0.319799 0.149294
H63   H     H_    0.590887 0.600271 0.319799 0.149295
H64   H     H_    0.090887 0.899729 0.319799 0.149293
H65   H     H_    0.090887 0.100271 0.319799 0.149293
H66   H     H_    0.426660 0.351450 0.674703 0.089595
H67   H     H_    0.896080 0.675583 0.596374 0.166150
H68   H     H_    0.426660 0.648549 0.674703 0.089596
H69   H     H_    0.926660 0.851451 0.674703 0.089596
H70   H     H_    0.926660 0.148549 0.674703 0.089596
H71   H     H_    0.734801 0.390782 0.675776 0.089936
H72   H     H_    0.734801 0.609217 0.675776 0.089936
H73   H     H_    0.234801 0.890782 0.675776 0.089936
H74   H     H_    0.234801 0.109218 0.675776 0.089936
H75   H     H_    0.292715 0.349728 0.319793 0.102961
H76   H     H_    0.292715 0.650272 0.319793 0.102961
H77   H     H_    0.792715 0.849728 0.319793 0.102961
H78   H     H_    0.896079 0.324417 0.596373 0.166149
H79   H     H_    0.792715 0.150272 0.319793 0.102961
H80   H     H_    0.536456 0.355347 0.800640 0.098623
H81   H     H_    0.536456 0.644653 0.800640 0.098623
H82   H     H_    0.036456 0.855347 0.800640 0.098623
H83   H     H_    0.036456 0.144653 0.800640 0.098623
H84   H     H_    0.455574 0.389233 0.170511 0.120121
H85   H     H_    0.455574 0.610767 0.170511 0.120121
H86   H     H_    0.955574 0.889232 0.170511 0.120121
H87   H     H_    0.955574 0.110767 0.170511 0.120121
H88   H     H_    0.382543 0.235513 0.675421 0.166627
H89   H     H_    0.812979 0.588456 0.559990 0.160741
H90   H     H_    0.382543 0.764486 0.675421 0.166627
H91   H     H_    0.882542 0.735514 0.675421 0.166627
H92   H     H_    0.882543 0.264486 0.675421 0.166627
N1    N     N_R   0.389430 0.421450 0.294590 -0.044860
N2    N     N_R   0.581780 0.577610 0.443390 -0.046021
N3    N     N_R   0.081780 0.922390 0.443390 -0.046021
N4    N     N_R   0.081780 0.077610 0.443390 -0.046021
N5    N     N_R   0.419850 0.423100 0.556610 -0.037767
N6    N     N_R   0.419850 0.576900 0.556610 -0.037767
N7    N     N_R   0.919850 0.923100 0.556610 -0.037767
N8    N     N_R   0.919850 0.076900 0.556610 -0.037767
N9    N     N_R   0.627410 0.423100 0.556610 -0.035879
N10   N     N_R   0.627410 0.576900 0.556610 -0.035879
N11   N     N_R   0.127410 0.923100 0.556610 -0.035879
N12   N     N_R   0.389430 0.578550 0.294590 -0.044860
N13   N     N_R   0.127410 0.076900 0.556610 -0.035879
N14   N     N_R   0.374220 0.422390 0.443390 -0.040436
N15   N     N_R   0.374220 0.577610 0.443390 -0.040436
N16   N     N_R   0.874220 0.922390 0.443390 -0.040436
N17   N     N_R   0.874220 0.077610 0.443390 -0.040436
N18   N     N_R   0.555000 0.424040 0.705410 -0.041962
N19   N     N_R   0.555000 0.575960 0.705410 -0.041962
N20   N     N_R   0.055000 0.924040 0.705410 -0.041962
N21   N     N_R   0.055000 0.075960 0.705410 -0.041962
N22   N     N_R   0.446630 0.421450 0.294590 -0.046957
N23   N     N_R   0.889430 0.921450 0.294590 -0.044860
N24   N     N_R   0.446630 0.578550 0.294590 -0.046957
N25   N     N_R   0.946630 0.921450 0.294590 -0.046957
N26   N     N_R   0.946630 0.078550 0.294590 -0.046957
N27   N     N_R   0.889430 0.078550 0.294590 -0.044860
N28   N     N_R   0.612200 0.424040 0.705410 -0.045553
N29   N     N_R   0.612200 0.575960 0.705410 -0.045553
N30   N     N_R   0.112200 0.924040 0.705410 -0.045553
N31   N     N_R   0.112200 0.075960 0.705410 -0.045553
N32   N     N_R   0.581780 0.422390 0.443390 -0.046021
Ni1   Ni    Ni4+2 0.382890 0.500000 0.370170 0.212527
Ni2   Ni    Ni4+2 0.882890 0.000000 0.370170 0.212527
Ni3   Ni    Ni4+2 0.618740 0.500000 0.629830 0.212229
Ni4   Ni    Ni4+2 0.118740 1.000000 0.629830 0.212229
Ni5   Ni    Ni4+2 0.514090 0.500000 0.370170 0.213198
Ni6   Ni    Ni4+2 0.014090 0.000000 0.370170 0.213198
Ni7   Ni    Ni4+2 0.487550 0.500000 0.629830 0.218155
Ni8   Ni    Ni4+2 0.987550 1.000000 0.629830 0.218154

loop_
_geom_bond_atom_site_label_1
_geom_bond_atom_site_label_2
_ccdc_geom_bond_type
C78   C87   A    
C58   C62   D    
C80   N14   A    
C57   H52   S    
C44   H27   S    
C7    C29   S    
C42   H38   S    
C8    C83   A    
C38   H42   S    
C42   N30   A    
C35   C39   S    
N2    Ni5   S    
C18   H9    S    
C69   N3    A    
C14   C31   S    
C9    H88   S    
C36   H14   S    
C25   H18   S    
C51   C67   S    
C90   N24   A    
C75   N9    A    
C92   H87   S    
N18   N28   A    
C15   C32   S    
C54   H50   S    
C54   C65   S    
C23   N23   A    
C43   C78   A    
C6    C72   A    
C40   H36   S    
C50   C54   D    
C13   H92   S    
N19   Ni7   S    
C47   H29   S    
C33   C38   S    
C19   C39   S    
C46   H28   S    
C3    C69   A    
C17   H4    S    
C34   C96   A    
C2    C68   A    
N23   N25   A    
C87   H83   S    
N20   Ni8   S    
C53   C64   S    
C76   N10   A    
C88   H84   S    
N3    N11   A    
C22   H20   S    
C10   C17   S    
C13   H78   S    
N19   N29   A    
C55   C62   S    
C85   N19   A    
C51   H60   S    
C92   C96   A    
C47   Cl3   S    
C66   H62   S    
N13   Ni4   S    
C76   H72   S    
C26   H26   S    
N4    N13   A    
C84   H80   S    
C25   H25   S    
N26   Ni6   S    
C17   C35   S    
N16   Ni2   S    
C5    C27   S    
C14   H89   S    
N15   Ni1   S    
C6    C28   S    
C70   N4    A    
C37   H41   S    
C71   H66   S    
C77   H73   S    
N18   Ni7   S    
C69   H64   S    
C90   C94   A    
C3    C35   S    
C20   H33   S    
C63   H46   S    
C41   H37   S    
C52   H61   S    
C81   N15   A    
C22   C47   S    
C46   Cl2   S    
C31   C36   S    
N27   Ni2   S    
C24   H24   S    
C40   N28   A    
C11   H67   S    
C72   H68   S    
C79   H74   S    
C48   H30   S    
C18   H31   S    
C52   C78   S    
C35   C48   S    
C77   N11   A    
C25   C44   S    
C4    C70   A    
N11   Ni4   S    
C59   H54   S    
C71   N5    A    
C66   C89   A    
C20   C29   S    
N5    Ni7   S    
C25   C29   S    
C40   C45   A    
C48   Cl4   S    
C31   C44   S    
C24   C48   S    
C81   H76   S    
C13   C30   S    
N1    N22   A    
C84   N18   A    
C26   H19   S    
C80   H75   S    
C4    C79   A    
C7    C73   A    
C70   H65   S    
C10   H56   S    
C53   H49   S    
C88   C93   A    
N6    Ni7   S    
N20   N30   A    
C51   C55   D    
C39   H17   S    
C72   N6    A    
C50   C56   S    
N3    Ni6   S    
C2    C31   S    
C5    C80   A    
C15   H8    S    
C91   N25   A    
C43   N31   A    
N7    Ni8   S    
C41   C56   A    
C58   H53   S    
C61   H57   S    
N25   Ni6   S    
C20   H11   S    
C38   H16   S    
C44   Cl1   S    
C16   H3    S    
C32   C89   S    
C45   C49   S    
N26   N27   A    
N14   Ni1   S    
C8    C74   A    
N24   Ni5   S    
C87   N21   A    
C5    C71   A    
C24   H21   S    
C10   H90   S    
C32   C37   S    
C65   H48   S    
C92   N26   A    
C19   C28   S    
C36   H40   S    
C11   C29   S    
C83   N17   A    
N21   Ni8   S    
C88   N22   A    
C16   H5    S    
C60   C96   S    
C21   H13   S    
C14   H7    S    
C91   H86   S    
C39   H43   S    
C26   C30   S    
C22   C27   S    
C13   C15   S    
N5    N14   A    
C75   H71   S    
C42   C67   A    
C33   C47   S    
C49   H58   S    
C86   N20   A    
C45   C84   A    
N17   Ni2   S    
C73   H69   S    
C3    C77   A    
C1    H1    S    
C12   H12   S    
C2    C76   A    
C9    C27   S    
C66   N32   A    
C86   H82   S    
C68   H63   S    
C10   C28   S    
C19   H32   S    
N9    Ni3   S    
N29   Ni3   S    
C4    C33   S    
C67   C86   A    
C85   H81   S    
N31   Ni4   S    
N6    N15   A    
C34   N27   A    
C32   C46   S    
C9    C16   S    
C18   C27   S    
C24   C28   S    
C57   C63   S    
N4    Ni6   S    
C23   H23   S    
C61   C95   S    
C82   N16   A    
C55   H51   S    
N10   Ni3   S    
C37   H15   S    
C90   H85   S    
C12   C94   A    
C50   H59   S    
C59   C93   S    
C21   C30   S    
N12   N24   A    
C59   C63   D    
N8    N17   A    
C83   H79   S    
C60   C64   D    
N23   Ni2   S    
C8    C30   S    
C58   C94   S    
C60   H55   S    
N1    Ni1   S    
C64   H47   S    
C16   C33   S    
C79   N13   A    
C17   H6    S    
C43   H39   S    
N21   N31   A    
C56   C85   A    
C74   N8    A    
C49   C53   D    
C73   N7    A    
C82   H77   S    
C9    H45   S    
N7    N16   A    
C11   C14   S    
C23   C95   A    
C11   H91   S    
C12   N12   A    
C15   H2    S    
C18   C38   S    
C19   H10   S    
C74   H70   S    
C52   C57   D    
C26   C46   S    
C91   C95   A    
C20   C36   S    
C61   C65   D    
C7    C82   A    
C21   C37   S    
N28   Ni3   S    
C1    C93   A    
N30   Ni4   S    
C75   C89   A    
C6    C81   A    
C34   H34   S    
C1    N1    A    
C22   H22   S    
C68   N2    A    
N8    Ni8   S    
N9    N32   A    
N12   Ni1   S    
N32   Ni5   S    
N22   Ni5   S    
C21   H35   S    
C41   N29   A    
C62   H44   S    
N2    N10   A    
