data_mof_unit_16594.cif
_audit_creation_date              2012-12-11T16:44:26-0500
_audit_creation_method            fapswitch 2.2
_symmetry_space_group_name_H-M    P1
_symmetry_Int_Tables_number       1
_space_group_crystal_system       triclinic
_cell_length_a                    27.182387
_cell_length_b                    7.197778
_cell_length_c                    22.835768
_cell_angle_alpha                 89.976892
_cell_angle_beta                  101.554382
_cell_angle_gamma                 90.043346
_cell_volume                      4377.33878937

loop_
_atom_site_label
_atom_site_type_symbol
_atom_type_description
_atom_site_fract_x
_atom_site_fract_y
_atom_site_fract_z
_atom_type_partial_charge
O1    O     O_R   0.707300 0.594030 0.176840 -0.539905
O2    O     O_R   0.292700 0.405970 0.823160 -0.539253
O3    O     O_R   0.792700 0.094030 0.323160 -0.540076
O4    O     O_R   0.207300 0.905970 0.676840 -0.536283
O5    O     O_R   0.697330 0.262360 0.295660 -0.545345
O6    O     O_R   0.302670 0.737640 0.704340 -0.539281
O7    O     O_R   0.802670 0.762360 0.204340 -0.545437
O8    O     O_R   0.197330 0.237640 0.795660 -0.544953
C1    C     C_R   0.684710 0.432453 0.311676 0.675510
C2    C     C_R   0.315252 0.567583 0.688296 0.668065
C3    C     C_R   0.815220 0.932515 0.188237 0.675608
C4    C     C_R   0.184781 0.067485 0.811763 0.675274
O9    O     O_R   0.701410 0.264250 0.175600 -0.526835
O10   O     O_R   0.298590 0.735750 0.824400 -0.527266
O11   O     O_R   0.798590 0.764250 0.324400 -0.526450
O12   O     O_R   0.201410 0.235750 0.675600 -0.536482
O13   O     O_R   0.796800 0.094950 0.202240 -0.534369
O14   O     O_R   0.203200 0.905050 0.797760 -0.534969
O15   O     O_R   0.703200 0.594950 0.297760 -0.534569
O16   O     O_R   0.296800 0.405050 0.702240 -0.536748
C5    C     C_R   0.689784 0.432557 0.153408 0.739994
C6    C     C_R   0.310216 0.567442 0.846592 0.741036
C7    C     C_R   0.810188 0.932534 0.346616 0.739014
C8    C     C_R   0.189989 0.067523 0.653243 0.744428
O17   O     O_3   0.781290 0.427390 0.258880 -0.374297
O18   O     O_3   0.218710 0.572610 0.741120 -0.377172
O19   O     O_3   0.718710 0.927390 0.241120 -0.374621
O20   O     O_3   0.281290 0.072610 0.758880 -0.371600
V1    V     V_3+5 0.744190 0.152150 0.248350 1.427466
V2    V     V_3+5 0.255810 0.847850 0.751650 1.441910
V3    V     V_3+5 0.755810 0.652150 0.251650 1.427471
V4    V     V_3+5 0.244190 0.347850 0.748350 1.414354
C9    C     C_R   0.155491 0.061715 0.594310 -0.075350
C10   C     C_R   0.844387 0.937944 0.405775 -0.077167
C11   C     C_R   0.344469 0.562031 0.905704 -0.078135
C12   C     C_R   0.655529 0.437967 0.094297 -0.077711
C13   C     C_R   0.140465 0.098160 0.486859 -0.171419
C14   C     C_R   0.860368 0.878291 0.512209 -0.167467
C15   C     C_R   0.360766 0.627445 0.011761 -0.167013
C16   C     C_R   0.639232 0.372551 0.988240 -0.167081
C17   C     C_R   0.173590 0.098926 0.542221 0.253600
C18   C     C_R   0.826748 0.887396 0.457295 0.267288
C19   C     C_R   0.326937 0.613998 0.957111 0.266477
C20   C     C_R   0.673061 0.386005 0.042889 0.266686
C21   C     C_R   0.104133 0.025002 0.590336 -0.252593
C22   C     C_R   0.895530 0.979227 0.410089 -0.252775
C23   C     C_R   0.395518 0.519355 0.910073 -0.252082
C24   C     C_R   0.604479 0.480633 0.089930 -0.252281
C25   C     C_R   0.069492 0.025933 0.534376 0.071428
C26   C     C_R   0.930617 0.967595 0.465545 0.071052
C27   C     C_R   0.430622 0.530766 0.965528 0.071201
C28   C     C_R   0.569375 0.469219 0.034475 0.071302
C29   C     C_R   0.088728 0.065213 0.482176 0.030267
C30   C     C_R   0.911813 0.918029 0.517235 0.028858
C31   C     C_R   0.412194 0.587559 0.016781 0.029086
C32   C     C_R   0.587804 0.412429 0.983222 0.028937
C33   C     C_R   0.016575 0.990588 0.528596 0.014986
C34   C     C_R   0.983619 0.001069 0.471226 0.015474
C35   C     C_R   0.483318 0.490639 0.971573 0.016182
C36   C     C_R   0.516679 0.509343 0.028430 0.016274
C37   C     C_R   0.004818 0.041750 0.421179 -0.186001
C38   C     C_R   0.995670 0.943087 0.578313 -0.185696
C39   C     C_R   0.496307 0.567800 0.077470 -0.184924
C40   C     C_R   0.503690 0.432180 0.922534 -0.184834
C41   C     C_R   0.055998 0.071999 0.426104 0.265394
C42   C     C_R   0.944735 0.906937 0.573110 0.267033
C43   C     C_R   0.445451 0.605279 0.072218 0.266867
C44   C     C_R   0.554546 0.394703 0.927785 0.266915
H1    H     H_    0.906535 0.016675 0.368917 0.114666
H2    H     H_    0.092582 0.000317 0.632080 0.113647
H3    H     H_    0.593469 0.517107 0.131163 0.114809
H4    H     H_    0.406529 0.482878 0.868840 0.115293
H5    H     H_    0.155925 0.126805 0.447708 0.180736
H6    H     H_    0.845505 0.838924 0.550937 0.178099
H7    H     H_    0.346054 0.669580 0.050313 0.177895
H8    H     H_    0.653943 0.330418 0.949689 0.177925
H9    H     H_    0.982648 0.049224 0.376629 0.157620
H10   H     H_    0.018120 0.929516 0.622555 0.157422
H11   H     H_    0.519025 0.587141 0.121313 0.157316
H12   H     H_    0.480972 0.412834 0.878691 0.157521
C45   C     C_R   0.869360 0.117809 0.132059 -0.133946
C46   C     C_R   0.130645 0.882192 0.867948 -0.134105
C47   C     C_R   0.628043 0.617804 0.364329 -0.136364
C48   C     C_R   0.373072 0.382873 0.637143 -0.157162
H13   H     H_    0.853839 0.245387 0.145626 0.122316
H14   H     H_    0.146165 0.754614 0.854379 0.122291
H15   H     H_    0.641394 0.745268 0.347735 0.121802
H16   H     H_    0.360469 0.255534 0.654705 0.136735
C49   C     C_R   0.904947 0.130448 0.095696 -0.133915
C50   C     C_R   0.095061 0.869553 0.904316 -0.133775
C51   C     C_R   0.592470 0.630642 0.400718 -0.130282
C52   C     C_R   0.408553 0.370242 0.600629 -0.131771
H17   H     H_    0.914956 0.266759 0.081725 0.101087
H18   H     H_    0.085054 0.733242 0.918288 0.101137
H19   H     H_    0.579360 0.767055 0.410413 0.103250
H20   H     H_    0.422523 0.234305 0.591871 0.107196
C53   C     C_R   0.926569 0.969693 0.076698 0.098001
C54   C     C_R   0.073441 0.030308 0.923315 0.097837
C55   C     C_R   0.573511 0.470030 0.423450 0.097344
C56   C     C_R   0.426304 0.530655 0.576458 0.097060
C57   C     C_R   0.911552 0.795568 0.095212 -0.126366
C58   C     C_R   0.088457 0.204434 0.904800 -0.126606
C59   C     C_R   0.590809 0.295766 0.408082 -0.128421
C60   C     C_R   0.407791 0.704560 0.590228 -0.131630
H21   H     H_    0.927908 0.668822 0.082177 0.103782
H22   H     H_    0.072102 0.331180 0.917837 0.103867
H23   H     H_    0.577499 0.168958 0.425178 0.101621
H24   H     H_    0.420187 0.830920 0.571861 0.102872
C61   C     C_R   0.875795 0.782821 0.131615 -0.159139
C62   C     C_R   0.124211 0.217180 0.868393 -0.158950
C63   C     C_R   0.626321 0.282837 0.371372 -0.156750
C64   C     C_R   0.372147 0.717344 0.626778 -0.146206
H25   H     H_    0.865377 0.646490 0.145060 0.118375
H26   H     H_    0.134627 0.353511 0.854946 0.118603
H27   H     H_    0.638679 0.146437 0.360643 0.116533
H28   H     H_    0.358376 0.853388 0.635773 0.127711
C65   C     C_R   0.853999 0.943909 0.150389 -0.047086
C66   C     C_R   0.146005 0.056092 0.849616 -0.047107
C67   C     C_R   0.645802 0.443838 0.349355 -0.045753
C68   C     C_R   0.354104 0.556461 0.650580 -0.054882
C69   C     C_R   0.964741 0.856088 0.991260 -0.142282
C70   C     C_R   0.035271 0.143912 0.008755 -0.142240
C71   C     C_R   0.496572 0.355245 0.458722 -0.132006
C72   C     C_R   0.503096 0.645723 0.541153 -0.131886
H29   H     H_    0.937250 0.745358 0.982880 0.116572
H30   H     H_    0.062761 0.254643 0.017135 0.116528
H31   H     H_    0.492628 0.243464 0.426411 0.121731
H32   H     H_    0.506907 0.757671 0.573406 0.122204
C73   C     C_R   0.999807 0.871530 0.954158 -0.132488
C74   C     C_R   0.000205 0.128471 0.045858 -0.132290
C75   C     C_R   0.461125 0.370383 0.495339 -0.142839
C76   C     C_R   0.538621 0.630351 0.504643 -0.141752
H33   H     H_    0.998342 0.771923 0.918337 0.123234
H34   H     H_    0.001670 0.228078 0.081678 0.123126
H35   H     H_    0.430999 0.269508 0.490248 0.114394
H36   H     H_    0.568784 0.731073 0.509908 0.114349
C77   C     C_R   0.035601 0.015593 0.962397 0.077320
C78   C     C_R   0.964410 0.984408 0.037618 0.077352
C79   C     C_R   0.463890 0.515811 0.537078 0.078851
C80   C     C_R   0.535854 0.485006 0.462825 0.078754
Br1   Br    Br    0.078487 0.124276 0.352979 -0.528424
Br2   Br    Br    0.922841 0.841457 0.645623 -0.525115
Br3   Br    Br    0.424200 0.683277 0.143944 -0.525009
Br4   Br    Br    0.575797 0.316703 0.856059 -0.524059
N1    N     N_2   0.775370 0.839170 0.454033 -0.529512
H37   H     H_    0.768354 0.752211 0.487359 0.262799
C81   C     C_3   0.739048 0.987856 0.439117 -0.507537
H38   H     H_    0.718513 0.008638 0.476062 0.190270
H39   H     H_    0.711677 0.949420 0.398097 0.189879
H40   H     H_    0.756992 0.121950 0.431133 0.194459
N2    N     N_2   0.225510 0.134613 0.545145 -0.538839
H41   H     H_    0.239909 0.062321 0.513381 0.260971
C82   C     C_3   0.238072 0.329966 0.545194 -0.517637
H42   H     H_    0.219461 0.395836 0.502449 0.200260
H43   H     H_    0.279304 0.345919 0.550150 0.198325
H44   H     H_    0.226267 0.402437 0.583008 0.212456
N3    N     N_2   0.724649 0.341594 0.046066 -0.530431
H45   H     H_    0.731927 0.253050 0.013308 0.262616
C83   C     C_3   0.759930 0.494531 0.059104 -0.506110
H46   H     H_    0.779930 0.514229 0.021620 0.190929
H47   H     H_    0.787887 0.462078 0.100222 0.188947
H48   H     H_    0.741113 0.627600 0.066076 0.194585
N4    N     N_2   0.275350 0.658422 0.953933 -0.530629
H49   H     H_    0.268072 0.746951 0.986696 0.262586
C84   C     C_3   0.240066 0.505498 0.940886 -0.506210
H50   H     H_    0.220039 0.485864 0.978351 0.190888
H51   H     H_    0.258883 0.372405 0.933945 0.194704
H52   H     H_    0.212129 0.537924 0.899747 0.189050

loop_
_geom_bond_atom_site_label_1
_geom_bond_atom_site_label_2
_ccdc_geom_bond_type
O17   V3    S    
C55   C59   A    
O1    C5    A    
N3    H45   S    
O19   V1    S    
O13   V1    S    
C72   C79   A    
O3    C7    A    
C81   H38   S    
C10   C18   A    
C52   H20   S    
C43   Br3   S    
C62   C66   A    
N1    H37   S    
C61   C65   A    
C33   C38   A    
C5    C12   S    
C39   H11   S    
O7    C3    A    
C6    C11   S    
O5    C1    A    
C84   H50   S    
C36   C39   A    
C40   C44   A    
O2    V4    S    
O9    V1    S    
N4    C84   S    
C14   C18   A    
C75   H35   S    
O16   V4    S    
O4    C8    A    
C57   C61   A    
C45   C65   A    
C60   H24   S    
O1    V3    S    
C9    C21   A    
C48   C68   A    
C72   C76   A    
C59   C63   A    
C47   C67   A    
O3    V1    S    
C22   H1    S    
C28   C36   A    
C1    O15   A    
C56   C60   A    
C15   C31   A    
C76   C80   A    
N4    H49   S    
C2    O16   A    
C16   C32   A    
O2    C6    A    
N2    H41   S    
C83   H47   S    
C44   Br4   S    
C10   C22   A    
C63   H27   S    
C15   H7    S    
C82   H43   S    
C11   C19   A    
C62   H26   S    
C16   C20   A    
C76   H36   S    
C72   H32   S    
C13   C29   A    
C34   C37   A    
O11   C7    A    
O15   V3    S    
C35   C36   A    
O12   C8    A    
C49   H17   S    
C20   N3    S    
C40   H12   S    
C74   H34   S    
O10   V2    S    
N1    C81   S    
C50   H18   S    
O5    V1    S    
C57   H21   S    
C39   C43   A    
O7    V3    S    
C38   C42   A    
C54   C77   S    
O8    V4    S    
C81   H40   S    
C2    C68   S    
C37   H9    S    
C64   C68   A    
O18   V4    S    
C15   C19   A    
C32   C44   A    
C71   C75   A    
C71   C80   A    
O4    V2    S    
C16   H8    S    
C49   C53   A    
C26   C34   A    
C69   C78   A    
C70   H30   S    
C69   H29   S    
C56   C79   S    
C41   Br1   S    
C71   H31   S    
C83   H46   S    
C14   C30   A    
C21   C25   A    
O8    C4    A    
C7    C10   S    
C35   C40   A    
C83   H48   S    
O9    C5    A    
C26   C30   A    
C82   H44   S    
C42   Br2   S    
C63   C67   A    
O6    V2    S    
C73   H33   S    
C84   H52   S    
O14   V2    S    
C1    C67   S    
C4    C66   S    
C55   C80   S    
C12   C20   A    
C27   C35   A    
C46   C66   A    
C24   H3    S    
N3    C83   S    
C74   C78   A    
C53   C78   S    
C64   H28   S    
C29   C41   A    
C52   C56   A    
C60   C64   A    
C14   H6    S    
C13   H5    S    
C3    O13   A    
C81   H39   S    
C21   H2    S    
C38   H10   S    
C48   H16   S    
C70   C77   A    
C69   C73   A    
C47   H15   S    
O6    C2    A    
C25   C33   A    
C23   C27   A    
O11   V3    S    
C30   C42   A    
C61   H25   S    
O12   V4    S    
C47   C51   A    
C22   C26   A    
C8    C9    S    
C46   C50   A    
C9    C17   A    
O10   C6    A    
O20   V2    S    
C17   N2    S    
C82   H42   S    
C45   C49   A    
C31   C43   A    
C54   C58   A    
C46   H14   S    
C33   C34   A    
C58   C62   A    
C25   C29   A    
C50   C54   A    
C12   C24   A    
C27   C31   A    
N2    C82   S    
C13   C17   A    
C45   H13   S    
C23   H4    S    
C75   C79   A    
C51   H19   S    
C37   C41   A    
C24   C28   A    
C73   C77   A    
C84   H51   S    
C58   H22   S    
C4    O14   A    
C59   H23   S    
C48   C52   A    
C51   C55   A    
C11   C23   A    
C18   N1    S    
C70   C74   A    
C53   C57   A    
C28   C32   A    
C19   N4    S    
C3    C65   S    
