data_mof_unit_30051.cif
_audit_creation_date              2012-12-10T17:48:21-0500
_audit_creation_method            fapswitch 2.2
_symmetry_space_group_name_H-M    P1
_symmetry_Int_Tables_number       1
_space_group_crystal_system       triclinic
_cell_length_a                    13.890211
_cell_length_b                    14.84045
_cell_length_c                    15.028988
_cell_angle_alpha                 115.938369
_cell_angle_beta                  108.192148
_cell_angle_gamma                 71.271318
_cell_volume                      2584.21779099

loop_
_atom_site_label
_atom_site_type_symbol
_atom_type_description
_atom_site_fract_x
_atom_site_fract_y
_atom_site_fract_z
_atom_type_partial_charge
C1    C     C_R   0.515887 0.118631 0.687637 0.834610
C2    C     C_R   0.484416 0.881359 0.312380 0.832122
C3    C     C_R   0.516810 0.358119 0.923908 0.067002
C4    C     C_R   0.483027 0.641432 0.076897 0.052919
C5    C     C_R   0.593718 0.318031 0.993214 0.082147
C6    C     C_R   0.404669 0.681129 0.007986 0.076129
C7    C     C_R   0.476433 0.465940 0.953718 0.087898
C8    C     C_R   0.522859 0.533465 0.047624 0.089842
C9    C     C_R   0.607324 0.490766 0.109319 -0.101122
C10   C     C_R   0.390904 0.508244 0.892642 -0.083385
C11   C     C_R   0.638278 0.385617 0.085002 -0.120711
C12   C     C_R   0.359088 0.613321 0.917043 -0.101100
C13   C     C_R   0.329986 0.298851 0.327696 -0.291233
C14   C     C_R   0.670289 0.700045 0.671254 -0.294319
C15   C     C_R   0.346865 0.222063 0.363660 0.583210
C16   C     C_R   0.653436 0.777221 0.635788 0.581877
C17   C     C_R   0.493116 0.282152 0.484774 0.055796
C18   C     C_R   0.506162 0.718493 0.515568 0.057801
C19   C     C_R   0.463691 0.373434 0.463368 0.013073
C20   C     C_R   0.535417 0.626752 0.536107 0.014162
C21   C     C_R   0.387453 0.373818 0.376498 -0.005834
C22   C     C_R   0.612127 0.625634 0.622593 0.007005
C23   C     C_R   0.687355 0.985914 0.504158 0.825194
C24   C     C_R   0.312646 0.014076 0.495832 0.823704
C25   C     C_R   0.508535 0.462052 0.521074 -0.071763
C26   C     C_R   0.490035 0.538389 0.478174 -0.078704
C27   C     C_R   0.429068 0.520868 0.378730 0.421197
C28   C     C_R   0.568860 0.479687 0.620597 0.400767
C29   C     C_R   0.370055 0.446969 0.335896 -0.182660
C30   C     C_R   0.628807 0.552686 0.663291 -0.188982
C31   C     C_1   0.206107 0.022787 0.492641 -0.097031
C32   C     C_1   0.793890 0.977159 0.507291 -0.098835
C33   C     C_2   0.011262 0.033404 0.488165 -0.148994
C34   C     C_2   0.988730 0.966471 0.511673 -0.145756
C35   C     C_1   0.882943 0.971541 0.509518 0.055021
C36   C     C_1   0.117051 0.028366 0.490363 0.056306
C37   C     C_R   0.531212 0.184597 0.795590 -0.102506
C38   C     C_R   0.469195 0.815375 0.204434 -0.114312
C39   C     C_R   0.627684 0.210816 0.966767 0.148128
C40   C     C_R   0.370282 0.788263 0.034006 0.146883
C41   C     C_R   0.594872 0.145073 0.868676 -0.167117
C42   C     C_R   0.403873 0.854407 0.131574 -0.166562
C43   C     C_R   0.487827 0.289359 0.824797 -0.164061
C44   C     C_R   0.513875 0.710879 0.175164 -0.217079
Cu1   Cu    Cu3+1 0.526370 0.916390 0.524860 1.048533
Cu2   Cu    Cu3+1 0.473630 0.083610 0.475140 1.049981
H1    H     H_    0.049629 0.907510 0.532704 0.180451
H2    H     H_    0.950362 0.092368 0.467139 0.178728
H3    H     H_    0.267096 0.304716 0.264743 0.201220
H4    H     H_    0.733448 0.693605 0.733836 0.200155
H5    H     H_    0.700887 0.358098 0.137372 0.184431
H6    H     H_    0.295398 0.640575 0.865232 0.183415
H7    H     H_    0.568302 0.685665 0.232664 0.204226
H8    H     H_    0.435783 0.315572 0.766936 0.199841
H9    H     H_    0.374519 0.936090 0.151237 0.222853
H10   H     H_    0.623589 0.063290 0.848851 0.221727
H11   H     H_    0.651636 0.536683 0.177579 0.164994
H12   H     H_    0.346236 0.461822 0.825018 0.159691
H13   H     H_    0.316904 0.439905 0.263930 0.192325
H14   H     H_    0.681467 0.559767 0.735487 0.174514
H15   H     H_    0.436000 0.733135 0.463259 0.209569
H16   H     H_    0.562971 0.268307 0.537812 0.196214
N1    N     N_R   0.433980 0.209250 0.437830 -0.251991
N2    N     N_R   0.566020 0.790750 0.562170 -0.252686
O1    O     O_R   0.534760 0.019630 0.662610 -0.551992
O2    O     O_R   0.465240 0.980370 0.337390 -0.549770
O3    O     O_R   0.490220 0.160840 0.620610 -0.555396
O4    O     O_R   0.509780 0.839160 0.379390 -0.557666
O5    O     O_R   0.663260 0.919400 0.523940 -0.495293
O6    O     O_R   0.336740 0.080600 0.476060 -0.495972
O7    O     O_R   0.618720 0.060610 0.481950 -0.601739
O8    O     O_R   0.381280 0.939390 0.518050 -0.599998
S1    S     S_3+6 0.442588 0.565802 0.292571 -0.044520
O9    O     O_2   0.547913 0.589760 0.322249 -0.328439
O10   O     O_2   0.431714 0.483312 0.188574 -0.306001
O11   O     O_3   0.348803 0.670370 0.289681 -0.561924
H17   H     H_    0.347208 0.677479 0.226699 0.378606
S2    S     S_3+6 0.549600 0.439845 0.707828 -0.039230
O12   O     O_2   0.442889 0.418536 0.676751 -0.304434
O13   O     O_2   0.630038 0.345562 0.714289 -0.340761
O14   O     O_3   0.560106 0.535028 0.822616 -0.530438
H18   H     H_    0.628635 0.512802 0.861884 0.359772
I1    I     I_    0.732071 0.140774 0.067780 -0.265467
I2    I     I_    0.263768 0.857641 0.933305 -0.258854
S3    S     S_3+6 0.761699 0.836610 0.677986 0.038162
O15   O     O_2   0.835463 0.810682 0.765126 -0.284079
O16   O     O_2   0.818593 0.792856 0.592801 -0.274058
O17   O     O_3   0.731006 0.964897 0.717027 -0.544030
H19   H     H_    0.797541 0.985453 0.733356 0.371776
S4    S     S_3+6 0.238423 0.162971 0.321921 0.037781
O18   O     O_2   0.181626 0.207310 0.407253 -0.273761
O19   O     O_2   0.164638 0.188604 0.234630 -0.283562
O20   O     O_3   0.268762 0.034724 0.283359 -0.547724
H20   H     H_    0.202091 0.014414 0.267040 0.370096

loop_
_geom_bond_atom_site_label_1
_geom_bond_atom_site_label_2
_ccdc_geom_bond_type
C7    C10   A    
O20   H20   S    
C27   C29   A    
S1    O9    D    
C40   I2    S    
C4    C8    A    
O14   H18   S    
C24   O6    A    
C7    C8    A    
C39   C41   A    
S3    O15   D    
C25   C28   A    
C3    C43   A    
C26   C27   A    
C19   C21   A    
Cu2   O2    S    
C3    C7    A    
C6    C12   A    
C42   H9    S    
S2    O13   D    
C33   C36   S    
C34   C35   S    
C23   O5    A    
C1    O3    A    
C44   H7    S    
C29   H13   S    
C8    C9    A    
C30   H14   S    
C1    O1    A    
C28   S2    S    
C18   C20   A    
C1    C37   S    
C40   C42   A    
Cu1   O8    S    
S1    O10   D    
C12   H6    S    
S3    O16   D    
Cu1   O5    S    
C32   C35   T    
C23   O7    A    
C6    C40   A    
O11   H17   S    
C4    C6    A    
S2    O12   D    
C4    C44   A    
C3    C5    A    
C25   C26   A    
Cu1   Cu2   S    
C21   C29   A    
C37   C43   A    
C41   H10   S    
C38   C44   A    
C17   H16   S    
C2    C38   S    
C43   H8    S    
S4    O19   D    
Cu1   O4    S    
C33   C34   D    
C13   C21   A    
C9    C11   A    
Cu2   O7    S    
C10   C12   A    
C13   H3    S    
C20   C22   A    
C13   C15   A    
Cu1   O1    S    
C16   S3    S    
S1    O11   S    
C14   C16   A    
C24   O8    A    
S4    O20   S    
S3    O17   S    
C5    C39   A    
C22   C30   A    
C10   H12   S    
C2    O2    A    
C18   H15   S    
C5    C11   A    
Cu1   N2    S    
C2    O4    A    
Cu2   N1    S    
C23   C32   S    
C14   C22   A    
C28   C30   A    
C24   C31   S    
C39   I1    S    
Cu2   O3    S    
C17   N1    A    
C15   S4    S    
S2    O14   S    
C18   N2    A    
S4    O18   D    
C14   H4    S    
C20   C26   A    
C17   C19   A    
C9    H11   S    
C37   C41   A    
C19   C25   A    
Cu2   O6    S    
C11   H5    S    
C38   C42   A    
O17   H19   S    
C33   H2    S    
C15   N1    A    
C31   C36   T    
C34   H1    S    
C16   N2    A    
C27   S1    S    
