data_mof_unit_42234.cif
_audit_creation_date              2012-12-11T15:27:41-0500
_audit_creation_method            fapswitch 2.2
_symmetry_space_group_name_H-M    P1
_symmetry_Int_Tables_number       1
_space_group_crystal_system       triclinic
_cell_length_a                    23.139021
_cell_length_b                    7.325117
_cell_length_c                    14.871034
_cell_angle_alpha                 90.000126
_cell_angle_beta                  107.749325
_cell_angle_gamma                 89.99989
_cell_volume                      2400.60011034

loop_
_atom_site_label
_atom_site_type_symbol
_atom_type_description
_atom_site_fract_x
_atom_site_fract_y
_atom_site_fract_z
_atom_type_partial_charge
O1    O     O_R   0.711000 0.648610 0.341170 -0.532207
O2    O     O_R   0.289000 0.351390 0.658830 -0.535739
O3    O     O_R   0.789000 0.148610 0.158830 -0.532207
O4    O     O_R   0.211000 0.851390 0.841170 -0.535740
O5    O     O_R   0.829650 0.322030 0.336650 -0.536182
O6    O     O_R   0.170350 0.677970 0.663350 -0.535451
O7    O     O_R   0.670350 0.822030 0.163350 -0.536182
O8    O     O_R   0.329650 0.177970 0.836650 -0.535451
C1    C     C_R   0.854204 0.485743 0.356738 0.718777
C2    C     C_R   0.145794 0.514260 0.643266 0.718345
C3    C     C_R   0.645795 0.985743 0.143262 0.718774
C4    C     C_R   0.354206 0.014260 0.856734 0.718344
O9    O     O_R   0.713950 0.319280 0.352070 -0.540950
O10   O     O_R   0.286050 0.680720 0.647930 -0.536965
O11   O     O_R   0.786050 0.819280 0.147930 -0.540950
O12   O     O_R   0.213950 0.180720 0.852070 -0.536965
O13   O     O_R   0.672470 0.142870 0.174360 -0.531144
O14   O     O_R   0.327530 0.857130 0.825640 -0.531638
O15   O     O_R   0.827530 0.642870 0.325640 -0.531143
O16   O     O_R   0.172470 0.357130 0.674360 -0.531637
C5    C     C_R   0.701362 0.487109 0.376500 0.690209
C6    C     C_R   0.298577 0.512439 0.623417 0.690624
C7    C     C_R   0.798637 0.987109 0.123499 0.690210
C8    C     C_R   0.201424 0.012439 0.876584 0.690627
O17   O     O_3   0.736530 0.478650 0.191680 -0.377974
O18   O     O_3   0.263470 0.521350 0.808320 -0.378448
O19   O     O_3   0.763470 0.978650 0.308320 -0.377974
O20   O     O_3   0.236530 0.021350 0.691680 -0.378447
V1    V     V_3+5 0.752500 0.206170 0.260820 1.400913
V2    V     V_3+5 0.247500 0.793830 0.739180 1.401242
V3    V     V_3+5 0.747500 0.706170 0.239180 1.400913
V4    V     V_3+5 0.252500 0.293830 0.760820 1.401243
C9    C     C_R   0.830123 0.989808 0.051298 -0.058373
C10   C     C_R   0.170730 0.000754 0.949647 -0.059570
C11   C     C_R   0.669876 0.489805 0.448701 -0.058374
C12   C     C_R   0.329273 0.500750 0.550356 -0.059569
C13   C     C_R   0.825521 0.986164 0.884599 0.030860
C14   C     C_R   0.175706 0.992359 0.116441 0.031269
C15   C     C_R   0.674480 0.486155 0.615402 0.030859
C16   C     C_R   0.324298 0.492344 0.383562 0.031269
C17   C     C_R   0.798218 0.018059 0.956217 -0.210546
C18   C     C_R   0.202559 0.028881 0.044786 -0.210868
C19   C     C_R   0.701782 0.518050 0.543783 -0.210542
C20   C     C_R   0.297446 0.528885 0.455216 -0.210878
C21   C     C_R   0.891564 0.946107 0.077889 -0.221828
C22   C     C_R   0.109710 0.951909 0.923195 -0.222463
C23   C     C_R   0.608435 0.446100 0.422113 -0.221830
C24   C     C_R   0.390292 0.451888 0.576810 -0.222460
C25   C     C_R   0.921972 0.919694 0.010004 0.065252
C26   C     C_R   0.079566 0.922439 0.991176 0.064465
C27   C     C_R   0.578029 0.419677 0.489999 0.065252
C28   C     C_R   0.420436 0.422412 0.508829 0.064463
C29   C     C_R   0.887614 0.927613 0.912551 0.088508
C30   C     C_R   0.113919 0.931090 0.088602 0.089772
C31   C     C_R   0.612388 0.427601 0.587452 0.088508
C32   C     C_R   0.386084 0.431058 0.411404 0.089777
C33   C     C_R   0.986140 0.891952 0.036096 0.073881
C34   C     C_R   0.015523 0.892472 0.965168 0.073563
C35   C     C_R   0.513861 0.391924 0.463910 0.073881
C36   C     C_R   0.484479 0.392447 0.534838 0.073563
C37   C     C_R   0.979449 0.863583 0.871275 -0.202289
C38   C     C_R   0.022341 0.864123 0.130033 -0.202512
C39   C     C_R   0.520554 0.363569 0.628732 -0.202289
C40   C     C_R   0.477661 0.364079 0.369974 -0.202519
C41   C     C_R   0.916538 0.871466 0.846710 -0.225434
C42   C     C_R   0.085227 0.873871 0.154546 -0.225775
C43   C     C_R   0.583466 0.371456 0.653295 -0.225433
C44   C     C_R   0.414775 0.373821 0.345462 -0.225770
H1    H     H_    0.891249 0.837472 0.774839 0.140709
H2    H     H_    0.110635 0.840806 0.226483 0.140538
H3    H     H_    0.608755 0.337467 0.725167 0.140709
H4    H     H_    0.389366 0.340744 0.273526 0.140540
H5    H     H_    0.086493 0.942719 0.848477 0.105592
H6    H     H_    0.914619 0.935568 0.152596 0.104479
H7    H     H_    0.413507 0.442689 0.651527 0.105593
H8    H     H_    0.585379 0.435564 0.347405 0.104479
H9    H     H_    0.248861 0.077168 0.062272 0.106732
H10   H     H_    0.751489 0.062175 0.938859 0.104753
H11   H     H_    0.251145 0.577191 0.437729 0.106735
H12   H     H_    0.748511 0.562165 0.561140 0.104752
H13   H     H_    0.998699 0.831942 0.815560 0.125658
H14   H     H_    0.003258 0.832056 0.185870 0.125795
H15   H     H_    0.501305 0.331935 0.684448 0.125657
H16   H     H_    0.496745 0.332005 0.314138 0.125796
C45   C     C_1   0.416714 0.007108 0.918722 -0.196946
C46   C     C_1   0.583288 0.992912 0.081271 -0.196760
C47   C     C_1   0.083285 0.507108 0.581278 -0.196947
C48   C     C_1   0.916712 0.492912 0.418729 -0.196759
C49   C     C_1   0.469133 0.002479 0.969966 -0.002956
C50   C     C_1   0.530870 0.997561 0.030025 -0.002891
C51   C     C_1   0.030867 0.502479 0.530034 -0.002955
C52   C     C_1   0.969130 0.497561 0.469975 -0.002890
C53   C     C_R   0.788314 0.016467 0.782827 0.119639
C54   C     C_R   0.725241 0.982736 0.752390 -0.102716
C55   C     C_R   0.691315 0.997591 0.657189 -0.120522
C56   C     C_R   0.719228 0.051124 0.590630 -0.066131
C57   C     C_R   0.780615 0.096689 0.619772 -0.135175
C58   C     C_R   0.814495 0.084057 0.715191 -0.179060
H17   H     H_    0.701654 0.942076 0.801442 0.103316
H18   H     H_    0.643247 0.967183 0.635064 0.118351
H19   H     H_    0.692914 0.062466 0.516941 0.123827
H20   H     H_    0.801741 0.145991 0.568729 0.114505
H21   H     H_    0.860949 0.131589 0.735897 0.116198
C59   C     C_R   0.213038 0.021838 0.218127 0.120159
C60   C     C_R   0.276117 0.988432 0.247997 -0.104885
C61   C     C_R   0.310289 0.002866 0.343096 -0.120287
C62   C     C_R   0.282612 0.055870 0.410052 -0.065119
C63   C     C_R   0.221182 0.100966 0.381433 -0.134981
C64   C     C_R   0.187022 0.088363 0.286149 -0.178088
H22   H     H_    0.299448 0.948241 0.198480 0.103023
H23   H     H_    0.358368 0.972687 0.364827 0.118815
H24   H     H_    0.309128 0.067097 0.483650 0.122525
H25   H     H_    0.200221 0.149656 0.432795 0.114769
H26   H     H_    0.140479 0.135096 0.265824 0.115815
C65   C     C_R   0.711688 0.516463 0.717174 0.119638
C66   C     C_R   0.774761 0.482735 0.747609 -0.102716
C67   C     C_R   0.808688 0.497597 0.842810 -0.120523
C68   C     C_R   0.780776 0.551133 0.909369 -0.066131
C69   C     C_R   0.719388 0.596695 0.880228 -0.135174
C70   C     C_R   0.685508 0.584058 0.784809 -0.179060
H27   H     H_    0.798347 0.442074 0.698557 0.103316
H28   H     H_    0.856756 0.467192 0.864934 0.118351
H29   H     H_    0.807090 0.562479 0.983058 0.123827
H30   H     H_    0.698263 0.645999 0.931271 0.114504
H31   H     H_    0.639053 0.631590 0.764103 0.116198
C71   C     C_R   0.286969 0.521829 0.281875 0.120166
C72   C     C_R   0.223887 0.488464 0.252004 -0.104877
C73   C     C_R   0.189716 0.502915 0.156905 -0.120283
C74   C     C_R   0.217397 0.555887 0.089950 -0.065119
C75   C     C_R   0.278831 0.600938 0.118569 -0.134994
C76   C     C_R   0.312989 0.588325 0.213853 -0.178101
H32   H     H_    0.200552 0.448294 0.301520 0.103009
H33   H     H_    0.141634 0.472775 0.135174 0.118814
H34   H     H_    0.190882 0.567129 0.016352 0.122527
H35   H     H_    0.299795 0.649605 0.067208 0.114772
H36   H     H_    0.359535 0.635032 0.234178 0.115819

loop_
_geom_bond_atom_site_label_1
_geom_bond_atom_site_label_2
_ccdc_geom_bond_type
O17   V3    S    
C60   H22   S    
O1    C5    A    
C53   C54   A    
C47   C51   T    
O19   V1    S    
C55   C56   A    
C9    C21   A    
C62   H24   S    
O3    C7    A    
C75   H35   S    
C10   C18   A    
C11   C23   A    
C73   C74   A    
C57   C58   A    
C25   C33   A    
C33   C38   A    
C69   H30   S    
C63   C64   A    
O7    C3    A    
C35   C40   A    
C26   C30   A    
C4    C45   S    
C36   C39   A    
C40   C44   A    
O9    V1    S    
C23   H8    S    
C14   C18   A    
C1    C48   S    
C59   C64   A    
O4    C8    A    
C25   C29   A    
C61   C62   A    
C3    C46   S    
C58   H21   S    
O1    V3    S    
O13   V1    S    
C66   C67   A    
O2    V4    S    
O3    V1    S    
C72   H32   S    
C40   H16   S    
C14   C59   S    
C28   C36   A    
C68   C69   A    
C1    O15   A    
C15   C31   A    
C48   C52   T    
C2    O16   A    
C16   C32   A    
O2    C6    A    
C62   C63   A    
C12   C24   A    
C10   C22   A    
C11   C19   A    
C16   C20   A    
C43   H3    S    
C57   H20   S    
C44   H4    S    
C13   C29   A    
C34   C37   A    
O11   C7    A    
C38   H14   S    
O15   V3    S    
C35   C36   A    
O12   C8    A    
C56   H19   S    
C24   H7    S    
O10   V2    S    
C59   C60   A    
O5    V1    S    
C61   H23   S    
C39   C43   A    
C2    C47   S    
O7    V3    S    
C66   H27   S    
C38   C42   A    
C13   C53   S    
C26   C34   A    
C76   H36   S    
C46   C50   T    
C17   H10   S    
C45   C49   T    
C55   H18   S    
C15   C19   A    
C7    C9    S    
C19   H12   S    
C32   C44   A    
C8    C10   S    
C39   H15   S    
C21   H6    S    
O8    V4    S    
C63   H25   S    
C67   H28   S    
O5    C1    A    
C31   C43   A    
C14   C30   A    
C21   C25   A    
O8    C4    A    
C16   C71   S    
C56   C57   A    
O9    C5    A    
C64   H26   S    
C30   C42   A    
O6    V2    S    
C15   C65   S    
O14   V2    S    
C12   C20   A    
C27   C35   A    
C72   C73   A    
C51   C52   S    
C29   C41   A    
C74   C75   A    
O16   V4    S    
C3    O13   A    
C70   H31   S    
C20   H11   S    
O6    C2    A    
C23   C27   A    
C69   C70   A    
O11   V3    S    
O18   V4    S    
O12   V4    S    
C6    C12   S    
C60   C61   A    
C22   C26   A    
C9    C17   A    
O10   C6    A    
O20   V2    S    
C5    C11   S    
C71   C76   A    
C37   H13   S    
C67   C68   A    
C33   C34   A    
C42   H2    S    
C28   C32   A    
C54   H17   S    
C71   C72   A    
C41   H1    S    
C75   C76   A    
C27   C31   A    
C68   H29   S    
C13   C17   A    
C54   C55   A    
C74   H34   S    
C37   C41   A    
C24   C28   A    
C18   H9    S    
C65   C70   A    
C4    O14   A    
C49   C50   S    
C73   H33   S    
C53   C58   A    
C22   H5    S    
O4    V2    S    
C65   C66   A    
