data_mof_unit_25544.cif
_audit_creation_date              2012-12-10T19:33:53-0500
_audit_creation_method            fapswitch 2.2
_symmetry_space_group_name_H-M    P1
_symmetry_Int_Tables_number       1
_space_group_crystal_system       triclinic
_cell_length_a                    11.063155
_cell_length_b                    15.798302
_cell_length_c                    16.921708
_cell_angle_alpha                 93.202945
_cell_angle_beta                  92.653891
_cell_angle_gamma                 76.504101
_cell_volume                      2869.71384258

loop_
_atom_site_label
_atom_site_type_symbol
_atom_type_description
_atom_site_fract_x
_atom_site_fract_y
_atom_site_fract_z
_atom_type_partial_charge
C1    C     C_R   0.506745 0.490334 0.348276 0.824777
C2    C     C_R   0.478574 0.512180 0.649543 0.819334
C3    C     C_R   0.605870 0.415678 0.221523 0.080826
C4    C     C_R   0.393921 0.602275 0.773295 0.050171
C5    C     C_R   0.435962 0.768618 0.461463 0.266078
C6    C     C_R   0.548309 0.233398 0.546594 0.300425
C7    C     C_R   0.466158 0.848507 0.446022 0.128692
C8    C     C_R   0.524395 0.149247 0.551127 0.097784
C9    C     C_R   0.545084 0.881843 0.500594 0.321732
C10   C     C_R   0.465582 0.114356 0.485839 0.339893
C11   C     C_R   0.616405 0.824300 0.554618 -0.375126
C12   C     C_R   0.406762 0.171595 0.427764 -0.372528
C13   C     C_R   0.604830 0.737306 0.555023 -0.001065
C14   C     C_R   0.413360 0.259765 0.432901 -0.001205
C15   C     C_R   0.263758 0.537284 0.503992 0.826462
C16   C     C_R   0.736095 0.463110 0.495049 0.846738
C17   C     C_2   0.126428 0.562863 0.506877 -0.000138
C18   C     C_2   0.873418 0.439989 0.490961 -0.012236
C19   C     C_2   0.061885 0.501693 0.519575 0.201639
C20   C     C_2   0.935277 0.503738 0.480746 0.187145
C21   C     C_R   0.524486 0.487580 0.261291 -0.164037
C22   C     C_R   0.435962 0.519808 0.733043 -0.189358
C23   C     C_R   0.469643 0.562386 0.218382 0.104965
C24   C     C_R   0.432115 0.444412 0.773951 0.121652
C25   C     C_R   0.503544 0.567432 0.140339 0.163521
C26   C     C_R   0.444887 0.447192 0.857420 0.133770
C27   C     C_R   0.555842 0.490242 0.096331 0.237353
C28   C     C_R   0.439937 0.528209 0.898910 0.253954
C29   C     C_R   0.610879 0.414137 0.137241 0.091157
C30   C     C_R   0.400160 0.606286 0.857734 0.092739
Cu1   Cu    Cu3+1 0.494060 0.416090 0.496220 0.906138
Cu2   Cu    Cu3+1 0.505940 0.583910 0.503780 0.901984
H1    H     H_    0.665738 0.692468 0.593591 0.153684
H2    H     H_    0.363471 0.303314 0.389094 0.155198
H3    H     H_    0.682739 0.846168 0.595087 0.161921
H4    H     H_    0.354564 0.148222 0.378990 0.160060
N1    N     N_2   0.549849 0.487072 0.011538 -0.244799
N2    N     N_2   0.451639 0.533412 0.983265 -0.217541
N3    N     N_R   0.514860 0.709950 0.509460 -0.206304
N4    N     N_R   0.485140 0.290050 0.490540 -0.198209
N5    N     N_2   0.554712 0.971254 0.502947 -0.224419
N6    N     N_2   0.458546 0.024511 0.479178 -0.232850
O1    O     O_R   0.494450 0.421340 0.382530 -0.596319
O2    O     O_R   0.505550 0.578660 0.617470 -0.591578
O3    O     O_R   0.504470 0.563060 0.388920 -0.572805
O4    O     O_R   0.495530 0.436940 0.611080 -0.594523
O5    O     O_R   0.317520 0.455180 0.497990 -0.579622
O6    O     O_R   0.682480 0.544820 0.502010 -0.576468
O7    O     O_R   0.327540 0.596900 0.504370 -0.612347
O8    O     O_R   0.672460 0.403100 0.495630 -0.582823
C31   C     C_3   0.880630 0.571977 0.420556 -0.842870
H5    H     H_    0.954079 0.581233 0.381647 0.227429
H6    H     H_    0.809343 0.551680 0.380424 0.219487
H7    H     H_    0.834646 0.634730 0.450257 0.247094
C32   C     C_3   0.109579 0.441672 0.587051 -0.867534
H8    H     H_    0.031329 0.431639 0.621248 0.232195
H9    H     H_    0.166158 0.378100 0.564671 0.245713
H10   H     H_    0.167832 0.471646 0.630295 0.219842
C33   C     C_3   0.940047 0.345311 0.493397 -0.909115
H11   H     H_    0.891433 0.306120 0.452335 0.242411
H12   H     H_    0.036089 0.333638 0.472067 0.249601
H13   H     H_    0.941438 0.322669 0.554270 0.241821
C34   C     C_3   0.064307 0.658809 0.509698 -0.916883
H14   H     H_    0.117837 0.694508 0.550795 0.233586
H15   H     H_    0.059324 0.684888 0.449846 0.242158
H16   H     H_    0.970785 0.671935 0.534988 0.247119
C35   C     C_3   0.397319 0.365832 0.731484 -0.818443
H17   H     H_    0.356294 0.378333 0.671368 0.250989
H18   H     H_    0.478944 0.309961 0.729524 0.219577
H19   H     H_    0.321650 0.347807 0.762842 0.220828
C36   C     C_3   0.374528 0.637348 0.254532 -0.833938
H20   H     H_    0.310853 0.612100 0.290844 0.213838
H21   H     H_    0.422853 0.681309 0.290176 0.245249
H22   H     H_    0.313969 0.675846 0.208879 0.229657
C37   C     C_3   0.458042 0.365691 0.903347 -0.820139
H23   H     H_    0.553071 0.347715 0.929839 0.246089
H24   H     H_    0.388012 0.377713 0.950053 0.236320
H25   H     H_    0.446337 0.307297 0.867565 0.221828
C38   C     C_3   0.496642 0.655524 0.107680 -0.837550
H26   H     H_    0.560308 0.650075 0.057959 0.233438
H27   H     H_    0.400196 0.686187 0.088504 0.240426
H28   H     H_    0.528433 0.698995 0.153893 0.226993
C39   C     C_3   0.672841 0.331433 0.090461 -0.377128
C40   C     C_3   0.588537 0.267050 0.082339 -0.850854
H29   H     H_    0.577232 0.241033 0.140349 0.245004
H30   H     H_    0.494972 0.299195 0.058694 0.259783
H31   H     H_    0.629759 0.211596 0.041293 0.240338
H32   H     H_    0.696525 0.346173 0.030630 0.204455
H33   H     H_    0.763612 0.299347 0.117796 0.205179
C41   C     C_3   0.367846 0.692646 0.905223 -0.348672
C42   C     C_3   0.246196 0.703614 0.948701 -0.831745
H34   H     H_    0.168764 0.695853 0.907117 0.253444
H35   H     H_    0.254628 0.654652 0.994236 0.263108
H36   H     H_    0.221837 0.769495 0.978459 0.229617
H37   H     H_    0.444788 0.696800 0.948193 0.195619
H38   H     H_    0.360551 0.749313 0.868344 0.197755
C43   C     C_3   0.696430 0.345373 0.267371 -0.387091
C44   C     C_3   0.826945 0.362555 0.272316 -0.866347
H39   H     H_    0.860631 0.369914 0.212952 0.250222
H40   H     H_    0.826645 0.422960 0.308755 0.253708
H41   H     H_    0.892797 0.307575 0.300574 0.244432
H42   H     H_    0.670601 0.340318 0.328587 0.232994
H43   H     H_    0.700046 0.279614 0.240010 0.206769
C45   C     C_3   0.331493 0.682456 0.726533 -0.348164
C46   C     C_3   0.193377 0.716596 0.743674 -0.857512
H44   H     H_    0.149397 0.662211 0.755100 0.261635
H45   H     H_    0.180134 0.765139 0.794081 0.255780
H46   H     H_    0.143714 0.750943 0.691849 0.230396
H47   H     H_    0.382794 0.734884 0.736759 0.187157
H48   H     H_    0.330222 0.667672 0.662148 0.230114
C47   C     C_3   0.655945 0.252838 0.597873 -0.357029
C48   C     C_3   0.779810 0.198470 0.568076 -0.864556
H49   H     H_    0.790179 0.211737 0.505411 0.261420
H50   H     H_    0.857554 0.214698 0.604974 0.238168
H51   H     H_    0.786143 0.127776 0.571704 0.254065
H52   H     H_    0.661055 0.320847 0.599658 0.262191
H53   H     H_    0.648184 0.238767 0.660502 0.175273
C49   C     C_3   0.305613 0.756219 0.442239 -0.346093
C50   C     C_3   0.207770 0.831464 0.407544 -0.922978
H54   H     H_    0.207172 0.893710 0.441588 0.270532
H55   H     H_    0.221784 0.837039 0.343798 0.263227
H56   H     H_    0.114153 0.818120 0.411653 0.248061
H57   H     H_    0.309004 0.697576 0.403450 0.235790
H58   H     H_    0.268662 0.747869 0.500163 0.221504
C51   C     C_3   0.551686 0.101198 0.627510 -0.857388
H59   H     H_    0.493427 0.053273 0.631539 0.251696
H60   H     H_    0.650973 0.066857 0.632985 0.241130
H61   H     H_    0.526655 0.147198 0.679310 0.207927
C52   C     C_3   0.436371 0.888092 0.366057 -0.838483
H62   H     H_    0.353289 0.943201 0.368074 0.248053
H63   H     H_    0.516221 0.912578 0.346959 0.237105
H64   H     H_    0.421874 0.838276 0.320012 0.219682

loop_
_geom_bond_atom_site_label_1
_geom_bond_atom_site_label_2
_ccdc_geom_bond_type
C32   H8    S    
C34   H15   S    
C1    C21   S    
C27   C29   A    
Cu2   O3    S    
C19   C20   S    
C40   H31   S    
C15   O5    A    
C30   C41   S    
C16   O6    A    
C48   H50   S    
C43   C44   S    
C41   H37   S    
C2    O4    A    
C46   H45   S    
Cu1   O1    S    
C16   O8    A    
C29   C39   S    
C20   C31   S    
C45   H47   S    
C10   N6    S    
Cu1   N4    S    
C15   C17   S    
N5    N6    D    
Cu2   N3    S    
C3    C29   A    
C49   C50   S    
C45   C46   S    
C24   C35   S    
C11   H3    S    
C1    O1    A    
C6    C47   S    
Cu1   Cu2   S    
C2    O2    A    
Cu1   O4    S    
C2    C22   S    
C51   H61   S    
C8    C51   S    
C47   H52   S    
C12   H4    S    
C18   C20   D    
C43   H42   S    
C52   H64   S    
C23   C25   A    
C39   H32   S    
C34   H16   S    
C33   H11   S    
Cu1   O5    S    
Cu2   O6    S    
C48   H49   S    
C50   H55   S    
C39   H33   S    
C46   H46   S    
C33   H12   S    
C7    C52   S    
C35   H17   S    
C23   C36   S    
C40   H29   S    
C42   H34   S    
C38   H27   S    
C6    C8    A    
C31   H5    S    
C31   H6    S    
C37   H23   S    
C13   H1    S    
N1    N2    D    
C42   H35   S    
C4    C22   A    
C3    C43   S    
C39   C40   S    
C28   N2    S    
C26   C37   S    
Cu2   O2    S    
C49   H58   S    
C9    C11   A    
C36   H22   S    
C43   H43   S    
C10   C12   A    
C16   C18   S    
C12   C14   A    
C44   H40   S    
C32   H9    S    
C51   H59   S    
C22   C24   A    
C3    C21   A    
Cu1   O8    S    
C5    C7    A    
C52   H62   S    
C50   H56   S    
C19   C32   S    
C7    C9    A    
C5    N3    A    
C33   H13   S    
C47   C48   S    
C25   C38   S    
C26   C28   A    
C24   C26   A    
C34   H14   S    
C14   H2    S    
C38   H28   S    
C50   H54   S    
C41   H38   S    
C25   C27   A    
C44   H41   S    
C46   H44   S    
C9    N5    S    
C5    C49   S    
C47   H53   S    
C31   H7    S    
C35   H19   S    
C21   C23   A    
C36   H20   S    
C17   C34   S    
C42   H36   S    
C45   H48   S    
C11   C13   A    
C1    O3    A    
C41   C42   S    
C32   H10   S    
C27   N1    S    
C4    C45   S    
C28   C30   A    
C17   C19   D    
C6    N4    A    
C49   H57   S    
C15   O7    A    
C37   H25   S    
Cu2   O7    S    
C13   N3    A    
C14   N4    A    
C38   H26   S    
C18   C33   S    
C8    C10   A    
C44   H39   S    
C37   H24   S    
C36   H21   S    
C51   H60   S    
C40   H30   S    
C35   H18   S    
C48   H51   S    
C4    C30   A    
C52   H63   S    
