data_mof_unit_43561.cif
_audit_creation_date              2012-12-10T20:43:23-0500
_audit_creation_method            fapswitch 2.2
_symmetry_space_group_name_H-M    P1
_symmetry_Int_Tables_number       1
_space_group_crystal_system       triclinic
_cell_length_a                    15.817734
_cell_length_b                    10.678331
_cell_length_c                    9.884009
_cell_angle_alpha                 90.143163
_cell_angle_beta                  89.885497
_cell_angle_gamma                 89.838561
_cell_volume                      1669.4631055

loop_
_atom_site_label
_atom_site_type_symbol
_atom_type_description
_atom_site_fract_x
_atom_site_fract_y
_atom_site_fract_z
_atom_type_partial_charge
C1    C     C_R   0.502183 0.260340 0.499674 0.885750
C2    C     C_R   0.443581 0.938007 0.405205 -0.026800
C3    C     C_R   0.494239 0.871411 0.498247 -0.160886
C4    C     C_R   0.339401 0.499617 0.500100 0.906447
C5    C     C_R   0.554528 0.932784 0.575541 -0.052011
C6    C     C_3   0.572623 0.925024 0.723474 -0.247522
C7    C     C_3   0.584462 0.067194 0.720035 0.276120
C8    C     C_R   0.426847 0.518227 0.071231 0.147625
C9    C     C_R   0.573695 0.494501 0.071637 -0.076818
C10   C     C_R   0.573707 0.495656 0.928013 -0.072852
C11   C     C_R   0.426775 0.516897 0.929207 0.058584
C12   C     C_R   0.043000 0.498405 0.619127 -0.146550
C13   C     C_3   0.347697 0.440503 0.923739 -0.356247
C14   C     C_3   0.346567 0.444934 0.079056 0.241795
C15   C     C_R   0.495855 0.739356 0.499986 0.847433
C16   C     C_R   0.660613 0.500651 0.499860 0.889301
C17   C     C_R   0.955567 0.498436 0.617146 -0.155783
C18   C     C_R   0.913082 0.487090 0.493998 0.064169
C19   C     C_R   0.957363 0.473680 0.370721 0.001747
C20   C     C_R   0.045617 0.473756 0.374437 -0.161077
C21   C     C_R   0.087289 0.486933 0.497870 0.112787
C22   C     C_3   0.679863 0.230648 0.726354 -0.199517
C23   C     C_1   0.823958 0.492139 0.497077 -0.090307
C24   C     C_2   0.361595 0.312470 0.862754 0.605862
C25   C     C_3   0.279354 0.274897 0.171729 -0.243924
C26   C     C_2   0.912679 0.460715 0.239203 0.403287
C27   C     C_2   0.379087 0.875874 0.318784 0.416150
C28   C     C_2   0.650765 0.848567 0.751509 0.584881
C29   C     C_1   0.176127 0.491442 0.499603 -0.055139
C30   C     C_1   0.250994 0.495682 0.500286 -0.160753
C31   C     C_1   0.749066 0.496676 0.499109 -0.188612
C32   C     C_R   0.561211 0.060206 0.572577 0.030510
C33   C     C_R   0.503737 0.128315 0.495581 -0.159816
C34   C     C_R   0.450012 0.067838 0.404150 -0.131642
H1    H     H_    0.076008 0.508521 0.714527 0.161119
H2    H     H_    0.538066 0.118157 0.785133 0.097434
H3    H     H_    0.634897 0.283097 0.791753 0.154364
H4    H     H_    0.672742 0.257812 0.618692 0.154990
H5    H     H_    0.744750 0.256417 0.758104 0.185228
H6    H     H_    0.414938 0.255304 0.894030 0.068819
H7    H     H_    0.288590 0.177689 0.207641 0.219595
H8    H     H_    0.238119 0.270452 0.080683 0.173600
H9    H     H_    0.247376 0.328379 0.253891 0.157662
H10   H     H_    0.844157 0.460388 0.235098 0.076268
H11   H     H_    0.360238 0.779935 0.337648 0.066867
H12   H     H_    0.633133 0.487969 0.124908 0.150745
H13   H     H_    0.707523 0.861104 0.691093 0.084440
H14   H     H_    0.633276 0.491583 0.874547 0.160718
H15   H     H_    0.294163 0.493095 0.877910 0.163187
H16   H     H_    0.294682 0.503604 0.122747 0.087559
H17   H     H_    0.920984 0.508576 0.711389 0.168608
H18   H     H_    0.082091 0.464760 0.281848 0.172313
H19   H     H_    0.409038 0.122451 0.339315 0.203712
H20   H     H_    0.516418 0.895856 0.783544 0.165227
N1    N     N_R   0.499440 0.499140 0.142800 -0.087551
N2    N     N_R   0.499440 0.499180 0.857150 -0.114873
O1    O     O_R   0.500010 0.316790 0.614690 -0.643545
O2    O     O_2   0.312915 0.272242 0.777577 -0.586188
O3    O     O_3   0.358947 0.327368 0.141754 -0.578675
O4    O     O_2   0.951992 0.450090 0.133290 -0.574745
O5    O     O_2   0.345471 0.931794 0.225563 -0.585070
O6    O     O_2   0.650611 0.771227 0.842146 -0.585485
O7    O     O_R   0.500000 0.316760 0.385350 -0.577022
O8    O     O_R   0.378030 0.499990 0.614640 -0.596066
O9    O     O_R   0.378020 0.499950 0.385300 -0.613946
O10   O     O_R   0.500000 0.683240 0.614650 -0.595603
O11   O     O_R   0.499990 0.683210 0.385310 -0.624329
O12   O     O_R   0.621980 0.500050 0.614700 -0.628379
O13   O     O_R   0.621970 0.500010 0.385360 -0.621272
O14   O     O_3   0.670079 0.100601 0.740706 -0.606800
Zn1   Zn    Zn3+2 0.500010 0.500020 0.653130 0.966611
Zn2   Zn    Zn3+2 0.499990 0.499980 0.346870 0.994289

loop_
_geom_bond_atom_site_label_1
_geom_bond_atom_site_label_2
_ccdc_geom_bond_type
C25   H8    S    
C12   C17   A    
O13   Zn2   S    
C28   H13   S    
C6    C7    S    
C16   O12   A    
C1    O1    A    
C26   H10   S    
O9    Zn2   S    
C10   N2    A    
C9    C10   A    
C4    O8    A    
N1    Zn2   S    
O10   Zn1   S    
N2    Zn1   S    
C15   O11   A    
C32   C33   A    
C17   H17   S    
C7    O14   S    
C33   C34   A    
C1    C33   S    
C9    H12   S    
C20   H18   S    
C13   C14   S    
O1    Zn1   S    
C16   C31   S    
C14   O3    S    
C11   C13   S    
C27   H11   S    
C14   H16   S    
C21   C29   S    
C6    H20   S    
C8    C11   A    
C13   H15   S    
C22   H5    S    
C1    O7    A    
C8    N1    A    
C25   H9    S    
C24   H6    S    
C17   C18   A    
C2    C3    A    
O12   Zn1   S    
C2    C27   S    
C10   H14   S    
C5    C6    S    
C4    C30   S    
O7    Zn2   S    
C9    N1    A    
C16   O13   A    
C29   C30   T    
C18   C23   S    
C22   H4    S    
C15   O10   A    
C3    C15   S    
C20   C21   A    
C34   H19   S    
C24   O2    D    
O11   Zn2   S    
C7    H2    S    
O8    Zn1   S    
C25   H7    S    
C19   C26   S    
C4    O9    A    
C18   C19   A    
C8    C14   S    
C7    C32   S    
C25   O3    S    
C3    C5    A    
C2    C34   A    
C22   H3    S    
C26   O4    D    
C12   C21   A    
C22   O14   S    
C5    C32   A    
C6    C28   S    
C11   N2    A    
C19   C20   A    
C13   C24   S    
C28   O6    D    
C12   H1    S    
C23   C31   T    
C27   O5    D    
