data_mof_unit_20307.cif
_audit_creation_date              2012-12-10T17:20:53-0500
_audit_creation_method            fapswitch 2.2
_symmetry_space_group_name_H-M    P1
_symmetry_Int_Tables_number       1
_space_group_crystal_system       triclinic
_cell_length_a                    14.333338
_cell_length_b                    10.774779
_cell_length_c                    9.601299
_cell_angle_alpha                 89.05768
_cell_angle_beta                  90.214084
_cell_angle_gamma                 93.107428
_cell_volume                      1480.4241856

loop_
_atom_site_label
_atom_site_type_symbol
_atom_type_description
_atom_site_fract_x
_atom_site_fract_y
_atom_site_fract_z
_atom_type_partial_charge
C1    C     C_R   0.493040 0.260918 0.500529 0.769189
C2    C     C_1   0.771050 0.497756 0.501303 -0.165982
C3    C     C_R   0.379357 0.116455 0.717937 -0.170882
C4    C     C_R   0.329916 0.047711 0.821951 -0.107393
C5    C     C_R   0.328614 0.916937 0.822753 -0.046593
C6    C     C_R   0.375331 0.857721 0.717102 -0.123851
C7    C     C_R   0.424035 0.925775 0.610915 0.067359
C8    C     C_R   0.427488 0.057464 0.611180 0.102955
C9    C     C_R   0.473580 0.124105 0.498342 -0.184909
C10   C     C_R   0.489110 0.058860 0.373032 -0.089885
C11   C     C_R   0.463365 0.932033 0.367505 -0.142423
C12   C     C_R   0.331148 0.499232 0.499850 0.769506
C13   C     C_R   0.458794 0.865471 0.494154 -0.255645
C14   C     C_R   0.657560 0.614615 0.137395 -0.072593
C15   C     C_R   0.740826 0.624973 0.059498 -0.087805
C16   C     C_R   0.732688 0.644393 0.916452 -0.177113
C17   C     C_R   0.645884 0.627449 0.853650 -0.144228
C18   C     C_R   0.572513 0.561402 0.924012 0.212194
C19   C     C_R   0.575084 0.558599 0.073170 0.135351
C20   C     C_R   0.428703 0.445482 0.074545 0.105843
C21   C     C_R   0.429148 0.444589 0.926802 0.029908
C22   C     C_R   0.485820 0.735059 0.498752 0.799876
C23   C     C_R   0.668718 0.498401 0.500389 0.859917
C24   C     C_1   0.228807 0.499204 0.499623 -0.159801
C25   C     C_1   0.143353 0.499024 0.499946 0.031826
C26   C     C_1   0.042651 0.498618 0.500607 0.045720
C27   C     C_1   0.957182 0.498190 0.501188 0.034459
C28   C     C_1   0.856491 0.497748 0.501618 -0.008885
Cu1   Cu    Cu3+1 0.499990 0.499990 0.640660 0.952913
Cu2   Cu    Cu3+1 0.500010 0.500010 0.359340 0.999626
H1    H     H_    0.791960 0.678855 0.854692 0.199838
H2    H     H_    0.639083 0.665590 0.750725 0.201361
H3    H     H_    0.371032 0.399349 0.872269 0.152628
H4    H     H_    0.371958 0.215452 0.715921 0.153019
H5    H     H_    0.366178 0.757792 0.712527 0.193020
H6    H     H_    0.370411 0.400550 0.130129 0.177867
N1    N     N_R   0.500820 0.501210 0.147910 -0.205669
N2    N     N_R   0.500850 0.501290 0.852040 -0.206240
O1    O     O_R   0.499990 0.319640 0.618810 -0.569232
O2    O     O_R   0.500000 0.319660 0.381240 -0.557232
O3    O     O_R   0.376050 0.499990 0.618810 -0.576891
O4    O     O_R   0.376060 0.500010 0.381240 -0.549302
O5    O     O_R   0.500000 0.680340 0.618760 -0.589282
O6    O     O_R   0.500010 0.680360 0.381190 -0.550824
O7    O     O_R   0.623940 0.499990 0.618760 -0.576144
O8    O     O_R   0.623950 0.500010 0.381190 -0.563343
C29   C     C_2   0.538429 0.117477 0.251460 0.537304
H7    H     H_    0.614195 0.123405 0.249506 0.045822
O9    O     O_2   0.494709 0.160876 0.154552 -0.483542
C30   C     C_2   0.274865 0.115114 0.923588 0.837731
O10   O     O_2   0.314557 0.189478 0.000976 -0.535645
O11   O     O_R   0.177817 0.095662 0.932037 -0.725430
H8    H     H_    0.151470 0.036259 0.859266 0.290243
C31   C     C_2   0.277240 0.840736 0.931345 0.459274
H9    H     H_    0.243532 0.884607 0.017059 0.116457
O12   O     O_2   0.272721 0.727299 0.927508 -0.520077
C32   C     C_2   0.422459 0.875802 0.237033 0.976990
O13   O     O_2   0.448477 0.913855 0.122491 -0.501243
O14   O     O_R   0.350527 0.782558 0.242741 -0.721713
H10   H     H_    0.324157 0.766233 0.339375 0.281151
C33   C     C_2   0.650617 0.725608 0.224113 0.897339
O15   O     O_2   0.610649 0.814056 0.176891 -0.584300
O16   O     O_R   0.699765 0.737231 0.349635 -0.806632
H11   H     H_    0.691712 0.820086 0.395433 0.318781
C34   C     C_2   0.833153 0.643207 0.128778 0.418399
H12   H     H_    0.838784 0.634035 0.240953 0.107009
O17   O     O_2   0.904160 0.666711 0.061276 -0.520144

loop_
_geom_bond_atom_site_label_1
_geom_bond_atom_site_label_2
_ccdc_geom_bond_type
Cu1   N2    S    
C30   O11   S    
Cu1   Cu2   S    
C23   O7    A    
C18   C19   A    
C9    C10   A    
C12   C24   S    
C29   H7    S    
C3    H4    S    
C7    C13   A    
Cu1   O1    S    
C33   O15   D    
C17   C18   A    
C18   N2    A    
Cu2   O2    S    
O14   H10   S    
C29   O9    D    
C23   O8    A    
C11   C32   S    
O11   H8    S    
Cu1   O5    S    
C16   H1    S    
C20   N1    A    
C11   C13   A    
Cu2   O6    S    
C32   O13   D    
C6    C7    A    
C22   O6    A    
C4    C5    A    
C13   C22   S    
C30   O10   D    
C2    C23   S    
C3    C8    A    
C26   C27   T    
C5    C6    A    
C31   O12   D    
C32   O14   S    
C7    C8    A    
C10   C11   A    
C1    O1    A    
O16   H11   S    
C12   O4    A    
C15   C16   A    
C15   C34   S    
C1    C9    S    
C5    C31   S    
C27   C28   S    
C21   H3    S    
C24   C25   T    
Cu2   N1    S    
C12   O3    A    
C20   C21   A    
C34   H12   S    
C4    C30   S    
C10   C29   S    
C33   O16   S    
C17   H2    S    
C14   C15   A    
Cu2   O4    S    
C2    C28   T    
C19   N1    A    
C1    O2    A    
Cu1   O3    S    
C25   C26   S    
C31   H9    S    
C14   C33   S    
C14   C19   A    
Cu2   O8    S    
C22   O5    A    
C6    H5    S    
C21   N2    A    
C3    C4    A    
C16   C17   A    
Cu1   O7    S    
C8    C9    A    
C34   O17   D    
C20   H6    S    
