data_mof_unit_46778.cif
_audit_creation_date              2012-10-26T19:57:47-0400
_audit_creation_method            fapswitch 2.2
_symmetry_space_group_name_H-M    P1
_symmetry_Int_Tables_number       1
_space_group_crystal_system       triclinic
_cell_length_a                    7.455218
_cell_length_b                    8.672672
_cell_length_c                    12.977186
_cell_angle_alpha                 88.067739
_cell_angle_beta                  78.657016
_cell_angle_gamma                 102.698824
_cell_volume                      799.947439904

loop_
_atom_site_label
_atom_site_type_symbol
_atom_type_description
_atom_site_fract_x
_atom_site_fract_y
_atom_site_fract_z
_atom_type_partial_charge
C1    C     C_R   0.452804 0.199663 0.503242 0.544018
C2    C     C_R   0.736537 0.564863 0.115759 0.242817
C3    C     C_R   0.603125 0.526197 0.858097 -0.187080
C4    C     C_R   0.395885 0.473050 0.142187 -0.183389
C5    C     C_R   0.588658 0.521743 0.966168 -0.017636
C6    C     C_R   0.410258 0.476405 0.034010 -0.016379
C7    C     C_2   0.426103 0.031873 0.504733 -0.158266
C8    C     C_2   0.573907 0.968130 0.495242 -0.160287
C9    C     C_3   0.959839 0.773390 0.145865 -0.003945
C10   C     C_3   0.156095 0.819559 0.168967 -0.364928
C11   C     C_3   0.993607 0.242659 0.882092 -0.016908
C12   C     C_R   0.547200 0.800338 0.496743 0.540446
C13   C     C_3   0.869871 0.177985 0.805818 -0.362043
C14   C     C_R   0.464755 0.493231 0.701789 0.559025
C15   C     C_R   0.535169 0.506973 0.298247 0.551300
C16   C     C_R   0.557474 0.515030 0.183921 0.000174
C17   C     C_R   0.441735 0.484906 0.816248 0.008339
C18   C     C_R   0.248309 0.434521 0.993024 -0.120135
C19   C     C_R   0.750486 0.564007 0.007121 -0.118680
C20   C     C_R   0.262092 0.434375 0.883895 0.252541
Cu1   Cu    Cu3+1 0.686350 0.517570 0.488220 0.966311
Cu2   Cu    Cu3+1 0.313650 0.482430 0.511780 0.969135
H1    H     H_    0.258111 0.436299 0.193863 0.156216
H2    H     H_    0.967238 0.826349 0.065186 0.107004
H3    H     H_    0.256378 0.773365 0.109936 0.158670
H4    H     H_    0.203101 0.950750 0.164893 0.093759
H5    H     H_    0.155915 0.770004 0.248889 0.151677
H6    H     H_    0.900693 0.249084 0.959361 0.131411
H7    H     H_    0.083277 0.157666 0.891284 0.115807
H8    H     H_    0.958877 0.167559 0.728148 0.160273
H9    H     H_    0.781635 0.058888 0.837275 0.094296
H10   H     H_    0.776571 0.258324 0.795194 0.156728
H11   H     H_    0.740936 0.563535 0.806509 0.153827
H12   H     H_    0.111493 0.402825 0.045719 0.140711
H13   H     H_    0.888038 0.598058 0.955084 0.150710
H14   H     H_    0.933352 0.375135 0.582614 0.236854
H15   H     H_    0.066720 0.625245 0.417807 0.234873
H16   H     H_    0.283578 0.960453 0.513617 0.132257
H17   H     H_    0.716431 0.039549 0.486364 0.131780
H18   H     H_    0.862808 0.824504 0.204137 0.137153
N1    N     N_2   0.033570 0.455950 0.529530 -0.252540
N2    N     N_2   0.966430 0.544050 0.470470 -0.251879
O1    O     O_R   0.621060 0.286250 0.492350 -0.508186
O2    O     O_3   0.101522 0.395855 0.842140 -0.547062
O3    O     O_R   0.378940 0.713750 0.507650 -0.508660
O4    O     O_R   0.306310 0.256580 0.512240 -0.505437
O5    O     O_R   0.693690 0.743420 0.487760 -0.505219
O6    O     O_R   0.631800 0.512400 0.642670 -0.527390
O7    O     O_R   0.368200 0.487600 0.357330 -0.525545
O8    O     O_R   0.317060 0.482730 0.662570 -0.438742
O9    O     O_R   0.682940 0.517270 0.337430 -0.446981
O10   O     O_3   0.899444 0.606322 0.154323 -0.550796

loop_
_geom_bond_atom_site_label_1
_geom_bond_atom_site_label_2
_ccdc_geom_bond_type
C10   H5    S    
C4    C16   A    
Cu1   O9    S    
C9    H2    S    
C5    C19   A    
C8    H17   S    
C15   O9    A    
C11   C13   S    
C9    C10   S    
C13   H10   S    
C8    C12   S    
Cu2   O8    S    
Cu1   O6    S    
C10   H4    S    
C12   O5    A    
C11   O2    S    
C19   H13   S    
Cu1   Cu2   S    
C18   H12   S    
C14   C17   S    
H14   N1    S    
C14   O8    A    
C9    O10   S    
C2    O10   S    
C11   H6    S    
Cu2   O7    S    
C10   H3    S    
C20   O2    S    
C7    H16   S    
C1    O1    A    
C3    C17   A    
C18   C20   A    
C15   O7    A    
C5    C6    A    
C6    C18   A    
C1    O4    A    
Cu2   N1    S    
C3    H11   S    
C15   C16   S    
C3    C5    A    
C13   H8    S    
C7    C8    D    
C17   C20   A    
C2    C16   A    
C11   H7    S    
C4    C6    A    
Cu2   O3    S    
N1    N2    D    
H15   N2    S    
C4    H1    S    
C14   O6    A    
Cu2   O4    S    
C2    C19   A    
C1    C7    S    
C13   H9    S    
C9    H18   S    
Cu1   O1    S    
Cu1   N2    S    
C12   O3    A    
Cu1   O5    S    
