data_mof_unit_8084.cif
_audit_creation_date              2012-12-11T14:36:19-0500
_audit_creation_method            fapswitch 2.2
_symmetry_space_group_name_H-M    P1
_symmetry_Int_Tables_number       1
_space_group_crystal_system       triclinic
_cell_length_a                    13.487754
_cell_length_b                    13.521808
_cell_length_c                    27.535484
_cell_angle_alpha                 90.970683
_cell_angle_beta                  90.123098
_cell_angle_gamma                 59.975073
_cell_volume                      4347.25057564

loop_
_atom_site_label
_atom_site_type_symbol
_atom_type_description
_atom_site_fract_x
_atom_site_fract_y
_atom_site_fract_z
_atom_type_partial_charge
C1    C     C_R   0.620370 0.101854 0.570024 0.547537
C2    C     C_1   0.650765 0.694768 0.656532 -0.053532
C3    C     C_3   0.453636 0.754335 0.800091 -0.263397
C4    C     C_3   0.435083 0.844142 0.839267 -0.299411
C5    C     C_3   0.342486 0.861393 0.875793 -0.440026
C6    C     C_3   0.092891 0.135580 0.737204 0.256031
C7    C     C_R   0.599701 0.779301 0.568607 0.545590
C8    C     C_3   0.183839 0.061398 0.774692 -0.145137
C9    C     C_1   0.095532 0.201303 0.901595 -0.006527
C10   C     C_1   0.228949 0.140196 0.617264 -0.002633
C11   C     C_3   0.050342 0.243699 0.769413 -0.110476
C12   C     C_3   0.143471 0.170050 0.806712 0.049125
C13   C     C_3   0.137241 0.269607 0.743541 -0.130291
C14   C     C_3   0.177730 0.160762 0.711609 0.051341
C15   C     C_1   0.632454 0.727442 0.615286 -0.010534
C16   C     C_3   0.228265 0.195473 0.781018 0.254394
C17   C     C_3   0.270881 0.087283 0.748851 -0.124488
C18   C     C_1   0.122078 0.182330 0.859255 -0.013756
C19   C     C_R   0.277611 0.122260 0.569561 0.543876
C20   C     C_1   0.200546 0.151470 0.659322 -0.010880
C21   C     C_3   0.643254 0.286206 0.736302 -0.099850
C22   C     C_3   0.561523 0.281670 0.774801 -0.111295
C23   C     C_1   0.695676 0.214139 0.901205 -0.014456
C24   C     C_1   0.636795 0.137095 0.617346 -0.009186
C25   C     C_3   0.747879 0.207855 0.768151 -0.102192
C26   C     C_3   0.722124 0.532310 0.761921 -0.137446
C27   C     C_3   0.666146 0.203192 0.805779 0.051799
C28   C     C_3   0.757755 0.100629 0.742143 -0.092655
C29   C     C_3   0.653410 0.179061 0.711129 0.046234
C30   C     C_3   0.675508 0.097814 0.780071 0.014690
C31   C     C_R   0.622101 0.098874 0.431095 0.548184
C32   C     C_3   0.571225 0.174442 0.748606 -0.093680
C33   C     C_1   0.679203 0.209750 0.858421 -0.061742
C34   C     C_1   0.645875 0.159774 0.659050 -0.047075
C35   C     C_R   0.735340 0.704922 0.359430 -0.136008
C36   C     C_R   0.747330 0.687052 0.309135 0.015651
C37   C     C_3   0.685787 0.624894 0.802250 0.089207
C38   C     C_R   0.762250 0.664446 0.207461 0.016304
C39   C     C_R   0.851598 0.663341 0.234071 -0.133017
C40   C     C_R   0.843668 0.675734 0.284639 -0.133954
C41   C     C_R   0.772370 0.643381 0.157354 -0.136355
C42   C     C_R   0.683928 0.639184 0.132092 -0.005056
C43   C     C_R   0.602096 0.775598 0.430391 0.546045
C44   C     C_R   0.555362 0.704201 0.356671 -0.121949
C45   C     C_R   0.562522 0.693579 0.306607 0.012807
C46   C     C_R   0.658082 0.686362 0.282544 0.063913
C47   C     C_R   0.472232 0.696664 0.280215 -0.118088
C48   C     C_3   0.607568 0.609119 0.735267 -0.117747
C49   C     C_R   0.475681 0.694227 0.229827 -0.138940
C50   C     C_R   0.571469 0.684240 0.205579 0.006919
C51   C     C_R   0.663666 0.679245 0.231838 0.065827
C52   C     C_R   0.579943 0.670592 0.155605 -0.128893
C53   C     C_R   0.636436 0.719198 0.382797 -0.004181
C54   C     C_R   0.218629 0.054284 0.357326 -0.133265
C55   C     C_R   0.277971 0.120469 0.431076 0.547912
C56   C     C_R   0.191320 0.068754 0.307946 0.014167
C57   C     C_R   0.150005 0.095564 0.207541 0.014929
C58   C     C_R   0.174201 0.993189 0.229664 -0.126212
C59   C     C_3   0.665065 0.666273 0.708133 0.007807
C60   C     C_R   0.195680 0.979533 0.279508 -0.125541
C61   C     C_R   0.125317 0.111803 0.157943 -0.133516
C62   C     C_R   0.099597 0.215694 0.136751 -0.002407
C63   C     C_R   0.180948 0.249814 0.363532 -0.129206
C64   C     C_R   0.157792 0.264112 0.314270 0.010146
C65   C     C_R   0.164553 0.172832 0.286098 0.062819
C66   C     C_R   0.134138 0.366295 0.292376 -0.122136
C67   C     C_3   0.779805 0.589012 0.733578 -0.094537
C68   C     C_R   0.118966 0.377564 0.242445 -0.118776
C69   C     C_R   0.124777 0.287743 0.214158 0.010645
C70   C     C_3   0.572303 0.700785 0.776168 -0.001179
C71   C     C_R   0.146617 0.185207 0.235899 0.062068
C72   C     C_R   0.104738 0.300842 0.164670 -0.124511
C73   C     C_R   0.218347 0.143227 0.384602 -0.003688
C74   C     C_R   0.563037 0.236084 0.363482 -0.129975
C75   C     C_R   0.562785 0.254957 0.313434 0.011371
C76   C     C_R   0.577065 0.289878 0.213311 -0.037001
C77   C     C_R   0.492243 0.376698 0.242958 -0.071716
C78   C     C_R   0.482338 0.359680 0.292173 0.234135
C79   C     C_3   0.741479 0.680755 0.774117 0.251966
C80   C     C_R   0.592878 0.308259 0.164147 0.225375
C81   C     C_3   0.627715 0.759695 0.748414 -0.084496
C82   C     C_R   0.676048 0.216003 0.135600 0.038628
C83   C     C_R   0.723021 0.043067 0.352730 -0.126117
C84   C     C_R   0.724385 0.059201 0.303316 0.019002
C85   C     C_R   0.645184 0.165498 0.283406 0.031209
C86   C     C_R   0.801881 0.968759 0.273410 -0.118542
C87   C     C_R   0.802545 0.983363 0.223737 -0.113830
C88   C     C_R   0.728415 0.089779 0.203759 0.010133
C89   C     C_R   0.649498 0.181739 0.233414 0.014349
C90   C     C_R   0.736904 0.106512 0.154890 -0.173445
C91   C     C_1   0.703058 0.591998 0.897787 -0.014427
C92   C     C_1   0.696407 0.607954 0.854765 -0.028742
C93   C     C_R   0.640592 0.129583 0.382736 -0.007059
C94   C     C_R   0.049005 0.236169 0.949705 0.542392
C95   C     C_R   0.712769 0.559809 0.947497 0.537944
C96   C     C_R   0.723163 0.226468 0.950376 0.542131
C97   C     C_R   0.046863 0.246270 0.088797 0.547229
C98   C     C_R   0.707336 0.575962 0.086114 0.544989
C99   C     C_R   0.718107 0.234969 0.089546 0.570301
C100  C     C_3   0.696029 0.990677 0.805985 -0.249209
C101  C     C_3   0.595637 0.014538 0.839799 -0.275886
C102  C     C_3   0.635152 0.931710 0.881913 -0.440575
Cr1   Cr    Cr6+3 0.417550 0.169090 0.500530 1.024347
Cr2   Cr    Cr6+3 0.669180 0.913420 0.499920 1.026179
Cr3   Cr    Cr6+3 0.413260 0.917540 0.499520 1.031279
Cr4   Cr    Cr6+3 0.909170 0.177380 0.020380 1.017411
Cr5   Cr    Cr6+3 0.912710 0.429210 0.018220 1.032418
Cr6   Cr    Cr6+3 0.657170 0.432570 0.019030 1.062077
H1    H     H_    0.119797 0.354264 0.730809 0.106707
H2    H     H_    0.798768 0.715118 0.379694 0.119501
H3    H     H_    0.927489 0.652659 0.215802 0.097090
H4    H     H_    0.912899 0.675978 0.304571 0.099580
H5    H     H_    0.510032 0.670837 0.135944 0.140987
H6    H     H_    0.405066 0.696832 0.209876 0.104535
H7    H     H_    0.398239 0.702855 0.298529 0.126667
H8    H     H_    0.479733 0.712935 0.374558 0.138663
H9    H     H_    0.121455 0.045948 0.136413 0.121124
H10   H     H_    0.247093 0.971919 0.373554 0.125828
H11   H     H_    0.177025 0.923629 0.208412 0.105524
H12   H     H_    0.959592 0.306059 0.778147 0.104675
H13   H     H_    0.589192 0.852827 0.742748 0.089920
H14   H     H_    0.215858 0.899277 0.295793 0.105514
H15   H     H_    0.084658 0.381544 0.148744 0.133436
H16   H     H_    0.101952 0.456711 0.225989 0.107562
H17   H     H_    0.129652 0.436550 0.313712 0.113777
H18   H     H_    0.178923 0.319363 0.384572 0.129832
H19   H     H_    0.502161 0.301946 0.387872 0.130974
H20   H     H_    0.430008 0.458028 0.228126 0.145296
H21   H     H_    0.799362 0.035424 0.132745 0.133115
H22   H     H_    0.863513 0.912458 0.201150 0.105029
H23   H     H_    0.481144 0.356009 0.788776 0.113300
H24   H     H_    0.861860 0.886669 0.288458 0.103786
H25   H     H_    0.782077 0.959827 0.367212 0.131691
H26   H     H_    0.551231 0.580241 0.718508 0.109537
H27   H     H_    0.758889 0.439616 0.767951 0.104215
H28   H     H_    0.198918 0.976880 0.786035 0.101405
H29   H     H_    0.361957 0.025101 0.740235 0.098039
H30   H     H_    0.853845 0.727234 0.768205 0.312257
H31   H     H_    0.319849 0.267581 0.781986 0.311305
H32   H     H_    0.677564 0.842163 0.868142 0.204801
H33   H     H_    0.696318 0.943468 0.904957 0.162432
H34   H     H_    0.630293 0.363641 0.717463 0.110100
H35   H     H_    0.560249 0.948663 0.904693 0.139478
H36   H     H_    0.554295 0.102630 0.855360 0.196442
H37   H     H_    0.529659 0.007013 0.818537 0.169035
H38   H     H_    0.706993 0.926168 0.778029 0.159231
H39   H     H_    0.777117 0.957461 0.826645 0.167756
H40   H     H_    0.525448 0.472760 0.168642 0.311490
H41   H     H_    0.365172 0.414935 0.342245 0.316741
H42   H     H_    0.261989 0.880583 0.857200 0.149951
H43   H     H_    0.372064 0.783072 0.897459 0.161978
H44   H     H_    0.324775 0.933591 0.900919 0.153420
H45   H     H_    0.500114 0.158422 0.739756 0.107390
H46   H     H_    0.514767 0.817655 0.859752 0.171710
H47   H     H_    0.410476 0.926474 0.821818 0.170000
H48   H     H_    0.387141 0.794218 0.771698 0.138805
H49   H     H_    0.445310 0.684074 0.816318 0.152442
H50   H     H_    0.998550 0.066805 0.736987 0.307921
H51   H     H_    0.837673 0.025346 0.728401 0.113562
H52   H     H_    0.819859 0.222499 0.777006 0.111872
H53   H     H_    0.852091 0.621159 0.139003 0.120724
H54   H     H_    0.865648 0.544098 0.715994 0.110260
O1    O     O_R   0.301710 0.195650 0.554160 -0.510734
O2    O     O_R   0.635520 0.542770 0.964420 -0.515884
O3    O     O_R   0.665950 0.325030 0.970100 -0.496266
O4    O     O_R   0.522390 0.158990 0.550460 -0.496347
O5    O     O_R   0.816620 0.158530 0.074540 -0.537538
O6    O     O_R   0.004460 0.188870 0.069750 -0.500457
O7    O     O_R   0.025800 0.341780 0.072300 -0.520191
O8    O     O_R   0.807650 0.528950 0.067500 -0.505899
O9    O     O_R   0.633420 0.550490 0.071810 -0.498501
O10   O     O_R   0.664000 0.332180 0.069640 -0.431066
O11   O     O_3   0.826350 0.346390 0.019210 -0.256160
O12   O     O_R   0.658900 0.818120 0.449760 -0.502835
O13   O     O_R   0.694390 0.003530 0.554040 -0.503023
O14   O     O_R   0.657700 0.819660 0.549320 -0.496403
O15   O     O_R   0.501930 0.803280 0.552920 -0.504349
O16   O     O_R   0.318170 0.023580 0.549580 -0.490249
O17   O     O_R   0.303010 0.193990 0.446760 -0.520823
O18   O     O_R   0.523600 0.157450 0.450900 -0.501234
O19   O     O_R   0.695690 0.001860 0.446640 -0.520498
O20   O     O_3   0.814079 0.714557 0.795559 -0.724169
O21   O     O_3   0.300000 0.225918 0.805741 -0.707490
O22   O     O_3   0.533186 0.415189 0.143968 -0.683993
O23   O     O_R   0.503220 0.801620 0.445520 -0.522004
O24   O     O_3   0.393426 0.447911 0.317804 -0.722282
O25   O     O_3   0.021394 0.104764 0.712577 -0.692168
O26   O     O_R   0.319370 0.022040 0.450020 -0.501216
O27   O     O_3   0.499990 0.000010 0.499990 -0.248436
O28   O     O_R   0.818720 0.150820 0.967160 -0.511711
O29   O     O_R   0.006410 0.181720 0.970200 -0.501942
O30   O     O_R   0.027890 0.334070 0.964920 -0.493940
O31   O     O_R   0.809600 0.521790 0.967960 -0.490583

loop_
_geom_bond_atom_site_label_1
_geom_bond_atom_site_label_2
_ccdc_geom_bond_type
C66   C68   A    
Cr6   O3    S    
C101  C102  S    
C41   H53   S    
C22   H23   S    
C8    H28   S    
C11   C13   S    
C82   C99   S    
C4    H46   S    
C35   C36   A    
C14   C17   S    
C77   C78   A    
Cr3   O16   S    
C87   C88   A    
H50   O25   S    
C68   H16   S    
C59   C81   S    
C16   O21   S    
C47   C49   A    
C52   H5    S    
C27   C33   S    
C25   C28   S    
C47   H7    S    
Cr6   O2    S    
C101  H37   S    
C5    H44   S    
C22   C32   S    
C26   C67   S    
Cr3   O26   S    
C48   H26   S    
C28   C29   S    
C84   C86   A    
C21   H34   S    
C29   C32   S    
C42   C98   S    
C38   C39   A    
C43   O12   A    
C35   C53   A    
C43   O23   A    
C100  H39   S    
C58   C60   A    
C56   C65   A    
C83   C93   A    
C30   C100  S    
C97   O7    A    
C23   C96   S    
C7    O15   A    
Cr1   O18   S    
C41   C42   A    
C96   O28   A    
C69   C71   A    
C70   C81   S    
C94   O29   A    
C58   H11   S    
C13   H1    S    
C26   H27   S    
C59   C67   S    
C90   H21   S    
C44   C53   A    
C75   C85   A    
C12   C16   S    
C100  H38   S    
C16   C17   S    
C23   C33   T    
Cr5   O30   S    
C50   C52   A    
C48   C70   S    
C36   C46   A    
Cr1   O27   S    
C102  H33   S    
C13   C14   S    
C26   C48   S    
C76   C89   A    
C39   H3    S    
Cr2   O19   S    
H41   O24   S    
C95   O31   A    
C37   C70   S    
C7    O14   A    
C27   C30   S    
C74   C93   A    
Cr4   O29   S    
C74   H19   S    
C11   H12   S    
C43   C53   S    
Cr2   O13   S    
C99   O5    A    
C45   C47   A    
C54   C56   A    
C74   C75   A    
C39   C40   A    
C61   H9    S    
C14   C20   S    
C36   C40   A    
C3    C70   S    
C67   C79   S    
C76   C77   A    
C38   C41   A    
Cr2   O14   S    
C10   C20   T    
C91   C92   T    
C79   C81   S    
C85   C89   A    
C86   C87   A    
C68   C69   A    
C6    C8    S    
C99   O10   A    
Cr5   O11   S    
C45   C46   A    
C21   C29   S    
C46   C51   A    
C28   H51   S    
C24   C34   T    
C5    H42   S    
C32   H45   S    
C81   H13   S    
C64   C66   A    
C69   C72   A    
C29   C34   S    
Cr3   O27   S    
C6    C14   S    
C62   C97   S    
C37   C79   S    
C54   C73   A    
C83   C84   A    
C10   C19   S    
C8    C12   S    
C55   C73   S    
Cr6   O11   S    
C25   H52   S    
C50   C51   A    
C62   C72   A    
C19   O1    A    
C55   O26   A    
C84   C85   A    
C60   H14   S    
C2    C15   T    
C35   H2    S    
C19   O16   A    
C77   H20   S    
Cr1   O4    S    
C78   O24   S    
C98   O9    A    
C80   C82   A    
C88   C90   A    
C102  H32   S    
C22   C27   S    
C6    C11   S    
C72   H15   S    
C49   C50   A    
C13   C16   S    
C102  H35   S    
Cr4   O28   S    
C3    C4    S    
Cr5   O31   S    
H31   O21   S    
C44   C45   A    
C87   H22   S    
C48   C59   S    
Cr5   O7    S    
C21   C25   S    
C42   C52   A    
C1    O13   A    
C37   C92   S    
C2    C59   S    
C55   O17   A    
C76   C80   A    
Cr3   O15   S    
C4    C5    S    
C82   C90   A    
Cr2   O12   S    
C11   C12   S    
C79   O20   S    
C26   C37   S    
C57   C61   A    
C38   C51   A    
C25   C27   S    
C97   O6    A    
C63   C73   A    
Cr1   O1    S    
C8    C17   S    
C5    H43   S    
C66   H17   S    
C31   O18   A    
C64   C65   A    
C54   H10   S    
C31   C93   S    
C95   O2    A    
Cr4   O5    S    
C30   C32   S    
H40   O22   S    
C40   H4    S    
C67   H54   S    
C86   H24   S    
C57   C58   A    
C1    O4    A    
Cr6   O10   S    
Cr2   O27   S    
C6    O25   S    
C7    C15   S    
C28   C30   S    
C100  C101  S    
C101  H36   S    
Cr4   O11   S    
C49   H6    S    
Cr1   O17   S    
C80   O22   S    
C61   C62   A    
H30   O20   S    
C75   C78   A    
C94   O30   A    
C83   H25   S    
C63   H18   S    
Cr3   O23   S    
C91   C95   S    
C63   C64   A    
C98   O8    A    
C56   C60   A    
C9    C18   T    
C65   C71   A    
C4    H47   S    
C3    H48   S    
C88   C89   A    
C44   H8    S    
C1    C24   S    
C57   C71   A    
Cr6   O9    S    
C12   C18   S    
C3    H49   S    
C96   O3    A    
C17   H29   S    
C21   C22   S    
C9    C94   S    
C31   O19   A    
Cr4   O6    S    
Cr5   O8    S    
