data_mof_unit_35043.cif
_audit_creation_date              2012-12-10T18:05:54-0500
_audit_creation_method            fapswitch 2.2
_symmetry_space_group_name_H-M    P1
_symmetry_Int_Tables_number       1
_space_group_crystal_system       triclinic
_cell_length_a                    12.588665
_cell_length_b                    13.138215
_cell_length_c                    14.996338
_cell_angle_alpha                 90.534664
_cell_angle_beta                  102.621382
_cell_angle_gamma                 82.328506
_cell_volume                      2398.18036831

loop_
_atom_site_label
_atom_site_type_symbol
_atom_type_description
_atom_site_fract_x
_atom_site_fract_y
_atom_site_fract_z
_atom_type_partial_charge
C1    C     C_R   0.438756 0.691180 0.485875 0.853862
C2    C     C_R   0.600040 0.496528 0.111312 0.118472
C3    C     C_R   0.300716 0.503174 0.009439 -0.218170
C4    C     C_R   0.300923 0.504607 0.916829 -0.218907
C5    C     C_R   0.400141 0.503234 0.888786 0.117496
C6    C     C_R   0.500205 0.500588 0.953662 0.060968
C7    C     C_R   0.600477 0.499314 0.925788 0.119309
C8    C     C_R   0.699476 0.496536 0.990657 -0.219258
C9    C     C_R   0.699268 0.495100 0.083277 -0.219986
C10   C     C_R   0.401110 0.504107 0.796767 -0.257333
C11   C     C_R   0.500675 0.502095 0.769213 -0.075719
C12   C     C_R   0.500396 0.500753 0.673096 0.894189
C13   C     C_R   0.599942 0.500312 0.833333 -0.260423
C14   C     C_R   0.702295 0.064204 0.436095 -0.198450
C15   C     C_R   0.596757 0.200148 0.501600 -0.048879
C16   C     C_R   0.299667 0.838175 0.498567 -0.192012
C17   C     C_R   0.271054 0.942953 0.506830 -0.147236
C18   C     C_R   0.344763 0.010238 0.498040 -0.190979
C19   C     C_R   0.447023 0.973466 0.476190 0.085132
C20   C     C_R   0.467539 0.869505 0.453751 0.082915
C21   C     C_R   0.529668 0.036306 0.475848 0.077380
C22   C     C_R   0.622346 0.000142 0.439185 0.173460
C23   C     C_R   0.561114 0.308755 0.509336 0.865583
C24   C     C_R   0.632707 0.901405 0.404796 -0.250439
C25   C     C_R   0.556280 0.836689 0.411927 -0.197193
C26   C     C_R   0.523462 0.133813 0.512675 -0.255981
C27   C     C_R   0.688461 0.164980 0.465757 -0.204222
C28   C     C_R   0.399424 0.800740 0.475118 -0.111919
C29   C     C_R   0.087691 0.346274 0.373676 -0.312824
C30   C     C_R   0.799761 0.630280 0.607946 0.019620
C31   C     C_R   0.904456 0.658914 0.629905 -0.253055
C32   C     C_R   0.985911 0.609682 0.588986 -0.204169
C33   C     C_R   0.962713 0.530892 0.525649 0.017698
C34   C     C_R   0.499622 0.499255 0.326917 0.874242
C35   C     C_R   0.854651 0.504379 0.505928 0.239929
C36   C     C_R   0.041813 0.477633 0.481206 -0.013681
C37   C     C_R   0.011207 0.399526 0.418214 0.199631
C38   C     C_R   0.904735 0.374930 0.400474 -0.307810
C39   C     C_R   0.827934 0.426435 0.444001 -0.226670
C40   C     C_R   0.150837 0.498210 0.496598 -0.055938
C41   C     C_R   0.193983 0.370370 0.392000 0.005106
C42   C     C_R   0.599031 0.495781 0.203322 -0.266008
C43   C     C_R   0.499440 0.497825 0.230847 -0.070470
C44   C     C_R   0.400207 0.499534 0.166723 -0.258446
C45   C     C_R   0.399706 0.500441 0.074294 0.117889
C46   C     C_R   0.499987 0.499144 0.046428 0.061570
H1    H     H_    0.675937 0.493584 0.253343 0.167418
H2    H     H_    0.700924 0.873519 0.373808 0.151065
H3    H     H_    0.772803 0.037718 0.407469 0.135614
H4    H     H_    0.459201 0.161980 0.547470 0.150197
H5    H     H_    0.245433 0.786271 0.513383 0.151309
H6    H     H_    0.318443 0.090645 0.506385 0.135366
H7    H     H_    0.193500 0.971812 0.523987 0.142591
H8    H     H_    0.566702 0.761073 0.383287 0.174303
H9    H     H_    0.254592 0.329793 0.358610 0.137541
H10   H     H_    0.880600 0.315272 0.352799 0.153168
H11   H     H_    0.065554 0.286539 0.325529 0.144585
H12   H     H_    0.323330 0.501389 0.188563 0.162310
H13   H     H_    0.181939 0.555504 0.543249 0.121828
H14   H     H_    0.735958 0.668472 0.639244 0.141879
H15   H     H_    0.065606 0.634958 0.608212 0.132936
H16   H     H_    0.922405 0.719235 0.678334 0.150582
H17   H     H_    0.223423 0.504275 0.030341 0.145926
H18   H     H_    0.223777 0.506675 0.867225 0.147458
H19   H     H_    0.324176 0.506430 0.746726 0.159337
H20   H     H_    0.676805 0.498488 0.811481 0.162324
H21   H     H_    0.776410 0.493010 0.132897 0.149616
H22   H     H_    0.745871 0.216262 0.456496 0.149616
N1    N     N_R   0.222190 0.444670 0.452360 -0.102295
N2    N     N_R   0.776970 0.554790 0.547140 -0.132450
O1    O     O_R   0.366740 0.627160 0.477250 -0.616557
O2    O     O_R   0.544830 0.662520 0.507680 -0.617778
O3    O     O_R   0.410940 0.482340 0.616930 -0.624845
O4    O     O_R   0.589030 0.517700 0.647360 -0.623639
O5    O     O_R   0.455170 0.337480 0.492320 -0.614548
O6    O     O_R   0.633260 0.372840 0.522750 -0.635501
O7    O     O_R   0.410970 0.482300 0.352640 -0.620547
O8    O     O_R   0.589060 0.517660 0.383070 -0.648946
Zn1   Zn    Zn3+2 0.381090 0.476390 0.479680 0.938051
Zn2   Zn    Zn3+2 0.618910 0.523610 0.520320 0.926356
H23   H     H_    0.748038 0.403373 0.427866 0.211371
H24   H     H_    0.776770 0.495428 0.969757 0.146083

loop_
_geom_bond_atom_site_label_1
_geom_bond_atom_site_label_2
_ccdc_geom_bond_type
C16   C28   A    
C21   C26   A    
C12   O4    A    
C19   C20   A    
C16   H5    S    
C23   O6    A    
O1    Zn1   S    
C18   H6    S    
C7    C8    A    
C45   C46   A    
C2    C46   A    
C1    O1    A    
C8    H24   S    
C5    C6    A    
C36   C37   A    
C19   C21   A    
C32   H15   S    
C26   H4    S    
C34   O7    A    
C30   C31   A    
O8    Zn2   S    
C14   H3    S    
C20   C25   A    
C33   C36   A    
C18   C19   A    
C41   H9    S    
C27   H22   S    
C35   N2    A    
C44   H12   S    
C8    C9    A    
C30   H14   S    
C1    C28   S    
C14   C27   A    
C15   C23   S    
C40   H13   S    
O4    Zn2   S    
C12   O3    A    
C31   H16   S    
C30   N2    A    
C13   H20   S    
O7    Zn1   S    
C1    O2    A    
C40   N1    A    
N2    Zn2   S    
C24   H2    S    
C36   C40   A    
C24   C25   A    
C39   H23   S    
C16   C17   A    
C15   C26   A    
C20   C28   A    
C3    C45   A    
C35   C39   A    
C43   C44   A    
C9    H21   S    
C37   C38   A    
C15   C27   A    
C31   C32   A    
C17   C18   A    
O3    Zn1   S    
C25   H8    S    
C29   H11   S    
C22   C24   A    
N1    Zn1   S    
C42   C43   A    
C3    C4    A    
C17   H7    S    
C44   C45   A    
C41   N1    A    
C10   H19   S    
C6    C46   A    
C29   C41   A    
C34   C43   S    
O6    Zn2   S    
C23   O5    A    
C4    C5    A    
C11   C12   S    
C6    C7    A    
C3    H17   S    
C4    H18   S    
C32   C33   A    
C14   C22   A    
C5    C10   A    
O2    Zn2   S    
C34   O8    A    
C11   C13   A    
C38   C39   A    
C2    C42   A    
C33   C35   A    
C42   H1    S    
C10   C11   A    
C7    C13   A    
C38   H10   S    
C29   C37   A    
C21   C22   A    
C2    C9    A    
O5    Zn1   S    
