data_mof_unit_20254.cif
_audit_creation_date              2012-12-10T17:02:01-0500
_audit_creation_method            fapswitch 2.2
_symmetry_space_group_name_H-M    P1
_symmetry_Int_Tables_number       1
_space_group_crystal_system       triclinic
_cell_length_a                    10.905075
_cell_length_b                    11.028132
_cell_length_c                    9.882009
_cell_angle_alpha                 110.846608
_cell_angle_beta                  100.250822
_cell_angle_gamma                 90.851025
_cell_volume                      1088.95240365

loop_
_atom_site_label
_atom_site_type_symbol
_atom_type_description
_atom_site_fract_x
_atom_site_fract_y
_atom_site_fract_z
_atom_type_partial_charge
C1    C     C_R   0.494941 0.254203 0.441032 0.788050
C2    C     C_R   0.084554 0.569814 0.632339 -0.100766
C3    C     C_R   0.127651 0.505142 0.499848 -0.205001
C4    C     C_R   0.041725 0.425315 0.373146 0.404397
C5    C     C_R   0.914288 0.426079 0.373337 0.550759
C6    C     C_R   0.872586 0.481052 0.506341 -0.246061
C7    C     C_2   0.497309 0.114952 0.408515 0.265998
C8    C     C_2   0.544358 0.070246 0.514825 0.570829
C9    C     C_2   0.524187 0.886470 0.594347 0.312022
C10   C     C_2   0.531884 0.931128 0.486222 -0.309752
C11   C     C_2   0.507651 0.513397 0.082988 0.660393
C12   C     C_R   0.262132 0.503629 0.500004 0.820662
C13   C     C_2   0.499961 0.480575 0.916568 0.732937
C14   C     C_R   0.511136 0.746110 0.559439 0.701433
C15   C     C_R   0.737742 0.492145 0.500657 0.879254
C16   C     C_R   0.160333 0.664132 0.758456 -0.284919
C17   C     C_R   0.125129 0.701427 0.895964 0.342240
C18   C     C_R   0.017527 0.640339 0.909107 0.452440
C19   C     C_R   0.937859 0.554853 0.783316 0.504353
C20   C     C_R   0.962277 0.534907 0.640867 -0.178732
Cu1   Cu    Cu3+1 0.521920 0.521810 0.644910 1.095489
Cu2   Cu    Cu3+1 0.478080 0.478190 0.355090 1.076082
H1    H     H_    0.246666 0.709044 0.751837 0.190568
H2    H     H_    0.522723 0.864018 0.372902 0.196529
N1    N     N_2   0.445130 0.445430 0.137370 -0.065399
N2    N     N_2   0.554930 0.554500 0.862630 -0.042595
O1    O     O_R   0.511700 0.332330 0.577400 -0.491139
O2    O     O_R   0.474680 0.295500 0.332650 -0.543362
O3    O     O_R   0.338160 0.518420 0.622400 -0.575730
O4    O     O_R   0.301140 0.481590 0.377650 -0.581850
O5    O     O_R   0.525320 0.704500 0.667350 -0.556003
O6    O     O_R   0.488300 0.667670 0.422600 -0.579376
O7    O     O_R   0.698860 0.518410 0.622350 -0.554927
O8    O     O_R   0.661840 0.481580 0.377600 -0.484728
O9    O     O_3   0.081047 0.346259 0.247972 -0.562815
C21   C     C_3   0.077117 0.217486 0.246385 -0.230603
H3    H     H_    0.983173 0.182388 0.253748 0.200548
H4    H     H_    0.149435 0.209502 0.337033 0.140034
H5    H     H_    0.097477 0.151049 0.140093 0.192748
F1    F     F_    0.448043 0.031606 0.269043 -0.680510
F2    F     F_    0.434225 0.368584 0.819816 -0.630246
F3    F     F_    0.582082 0.619750 0.179488 -0.664717
O10   O     O_3   0.575021 0.680894 0.951952 -0.544185
C22   C     C_3   0.701309 0.718921 0.966221 0.090392
H6    H     H_    0.723217 0.714330 0.859289 0.147212
H7    H     H_    0.761918 0.658375 0.014024 0.225909
H8    H     H_    0.721451 0.821449 0.043811 0.155840
O11   O     O_3   0.405025 0.323686 0.042441 -0.495672
C23   C     C_3   0.282096 0.298691 0.054677 0.000465
H9    H     H_    0.282963 0.269462 0.150528 0.201899
H10   H     H_    0.236782 0.215457 0.954678 0.130465
H11   H     H_    0.225358 0.383162 0.061414 0.160224
O12   O     O_3   0.196645 0.796308 0.018239 -0.541898
C24   C     C_3   0.284426 0.735481 0.089798 -0.099613
H12   H     H_    0.357963 0.700725 0.024301 0.159099
H13   H     H_    0.240640 0.653823 0.111183 0.140454
H14   H     H_    0.329325 0.808024 0.198512 0.218119
F4    F     F_    0.992355 0.661571 0.044888 -0.639771
F5    F     F_    0.850602 0.477500 0.803793 -0.593411
F6    F     F_    0.832381 0.363448 0.244393 -0.589851
F7    F     F_    0.600947 0.153263 0.652054 -0.558257
O13   O     O_3   0.539516 0.970620 0.740169 -0.493464
C25   C     C_3   0.420762 0.988738 0.778252 -0.071545
H15   H     H_    0.373339 0.895801 0.770033 0.105529
H16   H     H_    0.360798 0.033890 0.708801 0.143024
H17   H     H_    0.433142 0.056099 0.894826 0.240502

loop_
_geom_bond_atom_site_label_1
_geom_bond_atom_site_label_2
_ccdc_geom_bond_type
Cu1   O3    S    
C1    O2    A    
C9    C14   S    
C25   H16   S    
O12   C24   S    
O13   C25   S    
C12   O3    A    
C6    C20   A    
C9    C10   D    
C8    F7    S    
C15   O8    A    
O9    C21   S    
C22   H8    S    
C14   O5    A    
C7    F1    S    
C23   H11   S    
C10   H2    S    
C19   C20   A    
C13   F2    S    
C2    C3    A    
Cu1   O1    S    
C25   H17   S    
C7    C8    D    
Cu2   O2    S    
Cu1   Cu2   S    
Cu1   O5    S    
N1    O11   S    
C16   C17   A    
Cu2   O6    S    
C21   H4    S    
O11   C23   S    
Cu1   N2    S    
C22   H7    S    
N2    O10   S    
C17   C18   A    
C16   H1    S    
O10   C22   S    
C5    C6    A    
Cu2   O8    S    
C23   H9    S    
C24   H13   S    
C13   N2    D    
C4    O9    S    
Cu1   O7    S    
C11   N1    D    
C2    C20   A    
C25   H15   S    
C17   O12   S    
C11   C13   S    
C2    C16   A    
C22   H6    S    
Cu2   N1    S    
C11   F3    S    
C8    C10   S    
C18   C19   A    
C14   O6    A    
C1    O1    A    
C24   H12   S    
C21   H3    S    
C3    C12   S    
Cu2   O4    S    
C5    F6    S    
C19   F5    S    
C6    C15   S    
C1    C7    S    
C12   O4    A    
C18   F4    S    
C21   H5    S    
C3    C4    A    
C9    O13   S    
C15   O7    A    
C4    C5    A    
C23   H10   S    
C24   H14   S    
