data_mof_unit_26830.cif
_audit_creation_date              2012-12-10T19:33:10-0500
_audit_creation_method            fapswitch 2.2
_symmetry_space_group_name_H-M    P1
_symmetry_Int_Tables_number       1
_space_group_crystal_system       triclinic
_cell_length_a                    8.733195
_cell_length_b                    15.790899
_cell_length_c                    17.007187
_cell_angle_alpha                 95.894521
_cell_angle_beta                  91.837195
_cell_angle_gamma                 84.528775
_cell_volume                      2321.75940901

loop_
_atom_site_label
_atom_site_type_symbol
_atom_type_description
_atom_site_fract_x
_atom_site_fract_y
_atom_site_fract_z
_atom_type_partial_charge
C1    C     C_R   0.507252 0.489262 0.348084 0.891863
C2    C     C_R   0.502359 0.509863 0.652068 0.909908
C3    C     C_R   0.401878 0.758118 0.474724 -0.109989
C4    C     C_R   0.597345 0.240181 0.524322 -0.045906
C5    C     C_R   0.405183 0.847317 0.471217 0.348632
C6    C     C_R   0.589431 0.152017 0.527956 0.335219
C7    C     C_R   0.536618 0.886417 0.502799 0.301397
C8    C     C_R   0.460263 0.112775 0.492758 0.265975
C9    C     C_R   0.654933 0.835462 0.537692 -0.411117
C10   C     C_R   0.342444 0.165388 0.459394 -0.384171
C11   C     C_R   0.643631 0.748099 0.541219 0.038691
C12   C     C_R   0.354871 0.253186 0.458602 0.010029
C13   C     C_R   0.205405 0.521868 0.500617 0.877312
C14   C     C_R   0.794571 0.478122 0.498957 0.871135
C15   C     C_2   0.040562 0.533932 0.500816 -0.361708
C16   C     C_2   0.959364 0.466073 0.498183 -0.370111
C17   C     C_R   0.537014 0.481578 0.261913 -0.380353
C18   C     C_R   0.518823 0.513214 0.739269 -0.372544
C19   C     C_R   0.583384 0.552106 0.226173 0.270597
C20   C     C_R   0.573599 0.438734 0.775139 0.282105
C21   C     C_R   0.634153 0.540043 0.148311 0.323415
C22   C     C_R   0.619879 0.445202 0.854766 0.276114
C23   C     C_R   0.607988 0.464381 0.099933 0.007536
C24   C     C_R   0.578661 0.521280 0.904080 0.038128
C25   C     C_R   0.562746 0.393836 0.134614 0.341953
C26   C     C_R   0.509518 0.593026 0.869866 0.266487
C27   C     C_R   0.538644 0.400946 0.216290 0.266979
C28   C     C_R   0.490192 0.591425 0.787174 0.252871
Cu1   Cu    Cu3+1 0.492520 0.415770 0.496210 0.943037
Cu2   Cu    Cu3+1 0.507480 0.584230 0.503790 0.946387
N1    N     N_2   0.623524 0.458195 0.016887 -0.161707
N2    N     N_2   0.588239 0.527069 0.988142 -0.146876
N3    N     N_R   0.518730 0.710760 0.509500 -0.177764
N4    N     N_R   0.481270 0.289240 0.490500 -0.196791
N5    N     N_2   0.558591 0.974909 0.499079 -0.199323
N6    N     N_2   0.438313 0.023821 0.493318 -0.178165
O1    O     O_R   0.493000 0.421040 0.382520 -0.547647
O2    O     O_R   0.507000 0.578960 0.617480 -0.556052
O3    O     O_R   0.505640 0.563310 0.388930 -0.558882
O4    O     O_R   0.494360 0.436690 0.611070 -0.567475
O5    O     O_R   0.269980 0.445280 0.497530 -0.591086
O6    O     O_R   0.730020 0.554720 0.502470 -0.584437
O7    O     O_R   0.282610 0.587550 0.503940 -0.599345
O8    O     O_R   0.717390 0.412450 0.496060 -0.605334
H1    H     H_    0.985877 0.598940 0.503294 0.166721
H2    H     H_    0.014053 0.401074 0.495608 0.166608
O9    O     O_3   0.595534 0.359387 0.731978 -0.580768
C29   C     C_3   0.455610 0.319877 0.726768 0.134439
H3    H     H_    0.464898 0.269297 0.676368 0.156821
H4    H     H_    0.354037 0.364830 0.713183 0.123898
C30   C     C_3   0.427116 0.278400 0.802016 -0.368805
H5    H     H_    0.534720 0.242659 0.821727 0.260899
H6    H     H_    0.390517 0.329202 0.849388 0.200270
C31   C     C_3   0.300913 0.217617 0.788663 -0.983794
H7    H     H_    0.192369 0.252176 0.768413 0.257577
H8    H     H_    0.279936 0.191017 0.844899 0.259105
H9    H     H_    0.335994 0.163821 0.743712 0.259970
O10   O     O_3   0.609711 0.628172 0.270529 -0.574268
C32   C     C_3   0.477034 0.686964 0.269291 0.120404
H10   H     H_    0.484959 0.733012 0.322620 0.176268
H11   H     H_    0.368661 0.656389 0.273875 0.114011
C33   C     C_3   0.470620 0.737663 0.196889 -0.331906
H12   H     H_    0.582968 0.763901 0.191179 0.251026
H13   H     H_    0.447105 0.695071 0.142607 0.237616
C34   C     C_3   0.343725 0.811321 0.204412 -0.953073
H14   H     H_    0.229484 0.786020 0.205379 0.257887
H15   H     H_    0.345759 0.849522 0.153304 0.262992
H16   H     H_    0.361243 0.854160 0.259322 0.289019
O11   O     O_3   0.696649 0.374018 0.883814 -0.560110
C35   C     C_3   0.856221 0.382583 0.884511 0.147652
H17   H     H_    0.886629 0.433676 0.930881 0.129914
H18   H     H_    0.894054 0.398503 0.826142 0.092759
C36   C     C_3   0.945106 0.298133 0.901469 -0.391271
H19   H     H_    0.925767 0.248745 0.851757 0.218619
H20   H     H_    0.069851 0.306702 0.905038 0.182438
C37   C     C_3   0.897018 0.267553 0.978589 -0.717571
H21   H     H_    0.908382 0.317852 0.028579 0.244631
H22   H     H_    0.971707 0.209366 0.991140 0.205319
H23   H     H_    0.776124 0.251060 0.973500 0.283862
O12   O     O_3   0.714255 0.602256 0.120713 -0.566378
C38   C     C_3   0.873372 0.574051 0.119429 0.096543
H24   H     H_    0.927312 0.608306 0.075367 0.159768
H25   H     H_    0.895486 0.504659 0.099461 0.117878
C39   C     C_3   0.951018 0.594544 0.200593 -0.328571
H26   H     H_    0.941063 0.664876 0.216339 0.230220
H27   H     H_    0.893611 0.564546 0.246459 0.241083
C40   C     C_3   0.120171 0.560327 0.201439 -0.987472
H28   H     H_    0.132355 0.490217 0.184869 0.272594
H29   H     H_    0.168633 0.572235 0.262212 0.254368
H30   H     H_    0.185683 0.592490 0.160131 0.253855
O13   O     O_3   0.565234 0.312626 0.094114 -0.596547
C41   C     C_3   0.453516 0.306042 0.032018 0.130063
H31   H     H_    0.455543 0.236939 0.011145 0.118717
H32   H     H_    0.487530 0.335116 0.979688 0.193090
C42   C     C_3   0.287239 0.336724 0.056477 -0.385045
H33   H     H_    0.210046 0.288745 0.030697 0.191413
H34   H     H_    0.275579 0.341181 0.121648 0.245068
C43   C     C_3   0.232577 0.422436 0.025909 -0.919924
H35   H     H_    0.296058 0.474371 0.056264 0.265563
H36   H     H_    0.108484 0.437515 0.037220 0.240388
H37   H     H_    0.248668 0.419744 0.961168 0.238421
O14   O     O_3   0.465363 0.667129 0.917405 -0.582910
C44   C     C_3   0.314079 0.663432 0.942918 0.107620
H38   H     H_    0.314733 0.618023 0.988882 0.148522
H39   H     H_    0.235177 0.643048 0.893043 0.135565
C45   C     C_3   0.252913 0.752509 0.978436 -0.328212
H40   H     H_    0.338599 0.778092 0.021977 0.236118
H41   H     H_    0.236349 0.795897 0.930741 0.217524
C46   C     C_3   0.100717 0.750869 0.019563 -0.943914
H42   H     H_    0.013674 0.723919 0.977541 0.259225
H43   H     H_    0.057277 0.816940 0.042260 0.265510
H44   H     H_    0.117739 0.711772 0.070319 0.255217
O15   O     O_3   0.511263 0.327943 0.250198 -0.561684
C47   C     C_3   0.654240 0.282903 0.268057 0.128927
H45   H     H_    0.710290 0.317049 0.320130 0.144852
H46   H     H_    0.734661 0.276027 0.217655 0.141531
C48   C     C_3   0.626486 0.193197 0.287083 -0.315131
H47   H     H_    0.536600 0.197627 0.332161 0.239836
H48   H     H_    0.584613 0.156207 0.232797 0.223445
C49   C     C_3   0.772780 0.145853 0.318333 -0.918938
H49   H     H_    0.864341 0.139427 0.273689 0.252388
H50   H     H_    0.748336 0.080971 0.331168 0.271662
H51   H     H_    0.814034 0.180778 0.373851 0.259085
O16   O     O_3   0.420696 0.662790 0.754627 -0.576297
C50   C     C_3   0.525852 0.725754 0.755934 0.132553
H52   H     H_    0.622829 0.703039 0.715826 0.125814
H53   H     H_    0.573880 0.742020 0.816380 0.174293
C51   C     C_3   0.441971 0.806981 0.727685 -0.314105
H54   H     H_    0.406102 0.794328 0.664625 0.225522
H55   H     H_    0.336811 0.825612 0.762898 0.220759
C52   C     C_3   0.543556 0.881032 0.736723 -0.967010
H56   H     H_    0.569051 0.899386 0.800260 0.262723
H57   H     H_    0.482836 0.937156 0.710998 0.259846
H58   H     H_    0.653551 0.862848 0.705748 0.254953
H59   H     H_    0.695082 0.269945 0.551439 0.168129
H60   H     H_    0.308968 0.725453 0.446206 0.141539
O17   O     O_3   0.710375 0.106561 0.564337 -0.609846
C53   C     C_3   0.666369 0.084858 0.638753 0.080786
H61   H     H_    0.679183 0.014105 0.637255 0.182431
H62   H     H_    0.544833 0.106779 0.654538 0.110382
C54   C     C_3   0.773874 0.120886 0.703854 -0.355942
H63   H     H_    0.895430 0.105404 0.685892 0.232287
H64   H     H_    0.750309 0.191551 0.712780 0.241806
C55   C     C_3   0.752080 0.083016 0.781438 -0.935590
H65   H     H_    0.630035 0.094032 0.799254 0.263279
H66   H     H_    0.825035 0.113114 0.828910 0.260354
H67   H     H_    0.786445 0.013144 0.774716 0.260750
O18   O     O_3   0.295120 0.894052 0.428024 -0.602838
C56   C     C_3   0.142417 0.877524 0.442803 0.060965
H68   H     H_    0.075072 0.940146 0.457650 0.182612
H69   H     H_    0.131414 0.840377 0.494398 0.113715
C57   C     C_3   0.070800 0.833603 0.367800 -0.384365
H70   H     H_    0.068132 0.876537 0.319822 0.235025
H71   H     H_    0.141588 0.773465 0.348060 0.209053
C58   C     C_3   0.907314 0.812777 0.381405 -0.873427
H72   H     H_    0.907943 0.767413 0.427214 0.256952
H73   H     H_    0.857840 0.782651 0.325642 0.262352
H74   H     H_    0.833615 0.872139 0.400412 0.269366
H75   H     H_    0.756932 0.863524 0.561841 0.162522
H76   H     H_    0.240824 0.138212 0.433606 0.183406
H77   H     H_    0.736446 0.709965 0.568120 0.130344
H78   H     H_    0.262834 0.292361 0.432264 0.155421

loop_
_geom_bond_atom_site_label_1
_geom_bond_atom_site_label_2
_ccdc_geom_bond_type
C40   H28   S    
C2    C18   S    
C36   H19   S    
C42   H33   S    
C39   C40   S    
C52   H58   S    
C51   H54   S    
C48   H48   S    
C13   O5    A    
C38   H24   S    
C42   C43   S    
C56   C57   S    
Cu1   Cu2   S    
C37   H22   S    
C19   C21   A    
C24   C26   A    
C54   H64   S    
C58   H73   S    
C45   H40   S    
C3    N3    A    
C15   C16   D    
C11   H77   S    
Cu2   O2    S    
C3    H60   S    
C8    N6    S    
C33   H13   S    
C46   H43   S    
C54   H63   S    
C39   H26   S    
C29   C30   S    
N5    N6    D    
C34   H15   S    
C50   C51   S    
C37   H23   S    
C35   H17   S    
C22   O11   S    
C18   C20   A    
Cu2   N3    S    
C49   H51   S    
C1    O1    A    
C14   O6    A    
C29   H4    S    
C32   H10   S    
C5    O18   S    
C58   H74   S    
C36   H20   S    
O11   C35   S    
C55   H67   S    
C38   H25   S    
C49   H50   S    
C47   H45   S    
C58   H72   S    
C31   H8    S    
C19   O10   S    
C4    N4    A    
C32   H11   S    
C25   O13   S    
C30   H5    S    
C17   C27   A    
C11   N3    A    
C18   C28   A    
O18   C56   S    
C55   H66   S    
C46   H42   S    
C46   H44   S    
C16   H2    S    
O13   C41   S    
C5    C7    A    
C55   H65   S    
C6    C8    A    
C3    C5    A    
O10   C32   S    
Cu1   N4    S    
C41   C42   S    
C30   H6    S    
C23   N1    S    
C24   N2    S    
C33   H12   S    
C2    O2    A    
O9    C29   S    
C57   C58   S    
C34   H16   S    
C35   C36   S    
C41   H32   S    
C44   H39   S    
C42   H34   S    
C37   H21   S    
C9    C11   A    
C10   C12   A    
C4    H59   S    
C27   O15   S    
C4    C6    A    
C29   H3    S    
C20   C22   A    
C43   H35   S    
C43   H36   S    
C21   C23   A    
C13   C15   S    
C50   H52   S    
C36   C37   S    
C22   C24   A    
Cu2   O7    S    
C48   C49   S    
C15   H1    S    
C12   N4    A    
C52   H56   S    
C51   C52   S    
C10   H76   S    
C13   O7    A    
C38   C39   S    
C49   H49   S    
C14   O8    A    
O15   C47   S    
C57   H71   S    
C7    C9    A    
C31   H7    S    
C54   C55   S    
C32   C33   S    
C33   C34   S    
Cu1   O5    S    
C7    N5    S    
N1    N2    D    
C39   H27   S    
O12   C38   S    
C52   H57   S    
C53   C54   S    
C51   H55   S    
C47   H46   S    
C28   O16   S    
C53   H62   S    
C25   C27   A    
C43   H37   S    
O17   C53   S    
C26   C28   A    
C30   C31   S    
C6    O17   S    
C56   H69   S    
Cu1   O8    S    
C48   H47   S    
C26   O14   S    
C45   H41   S    
C21   O12   S    
C41   H31   S    
C17   C19   A    
Cu2   O3    S    
C44   C45   S    
C14   C16   S    
C23   C25   A    
O14   C44   S    
C47   C48   S    
C53   H61   S    
C1    O3    A    
C12   H78   S    
C2    O4    A    
C1    C17   S    
C8    C10   A    
C34   H14   S    
C40   H30   S    
Cu1   O1    S    
C44   H38   S    
C50   H53   S    
C40   H29   S    
C9    H75   S    
Cu2   O6    S    
C35   H18   S    
C57   H70   S    
Cu1   O4    S    
C56   H68   S    
C45   C46   S    
C20   O9    S    
O16   C50   S    
C31   H9    S    
