data_mof_unit_51064.cif
_audit_creation_date              2012-12-10T16:59:54-0500
_audit_creation_method            fapswitch 2.2
_symmetry_space_group_name_H-M    P1
_symmetry_Int_Tables_number       1
_space_group_crystal_system       triclinic
_cell_length_a                    15.127136
_cell_length_b                    15.208838
_cell_length_c                    9.998304
_cell_angle_alpha                 90.728612
_cell_angle_beta                  90.301763
_cell_angle_gamma                 90.333361
_cell_volume                      2300.01368541

loop_
_atom_site_label
_atom_site_type_symbol
_atom_type_description
_atom_site_fract_x
_atom_site_fract_y
_atom_site_fract_z
_atom_type_partial_charge
C1    C     C_R   0.383745 0.878381 0.498732 0.936963
C2    C     C_2   0.752731 0.178820 0.397627 0.101262
C3    C     C_2   0.210429 0.274023 0.381210 0.088416
C4    C     C_2   0.252734 0.678817 0.397628 0.101255
C5    C     C_2   0.691526 0.821645 0.492492 -0.424114
C6    C     C_2   0.693065 0.176974 0.497676 -0.367308
C7    C     C_2   0.191526 0.321646 0.492493 -0.424118
C8    C     C_2   0.193067 0.676973 0.497676 -0.367295
C9    C     C_2   0.293095 0.226353 0.385712 0.019914
C10   C     C_2   0.301246 0.761063 0.383491 -0.006142
C11   C     C_2   0.793095 0.726353 0.385711 0.019912
C12   C     C_R   0.381136 0.118687 0.499365 0.954694
C13   C     C_2   0.801240 0.261067 0.383490 -0.006136
C14   C     C_2   0.306338 0.174902 0.492550 -0.443604
C15   C     C_2   0.336935 0.796342 0.495589 -0.453153
C16   C     C_2   0.806338 0.674902 0.492550 -0.443609
C17   C     C_2   0.836932 0.296343 0.495588 -0.453149
C18   C     C_2   0.571556 0.008943 0.927212 -0.006792
C19   C     C_2   0.071554 0.508954 0.927213 -0.006793
C20   C     C_2   0.571599 0.997733 0.076177 -0.196404
C21   C     C_2   0.071599 0.497741 0.076177 -0.196399
C22   C     C_3   0.647391 0.764930 0.260984 -0.327020
C23   C     C_R   0.883744 0.378382 0.498732 0.936960
C24   C     C_3   0.666737 0.689133 0.162961 -0.398922
C25   C     C_3   0.587768 0.670400 0.071098 -0.931798
C26   C     C_3   0.765937 0.105625 0.293869 -0.357643
C27   C     C_3   0.862571 0.075726 0.285614 -0.393303
C28   C     C_3   0.879584 0.028800 0.152266 -0.881831
C29   C     C_3   0.147390 0.264928 0.260987 -0.327018
C30   C     C_3   0.166732 0.189127 0.162969 -0.398917
C31   C     C_3   0.087765 0.170400 0.071099 -0.931783
C32   C     C_3   0.265938 0.605623 0.293867 -0.357644
C33   C     C_3   0.362571 0.575720 0.285612 -0.393295
C34   C     C_R   0.881136 0.618687 0.499365 0.954692
C35   C     C_3   0.379583 0.528800 0.152260 -0.881828
C36   C     C_R   0.366420 0.254452 0.296448 0.168407
C37   C     C_R   0.388058 0.206537 0.179885 -0.108835
C38   C     C_R   0.460275 0.231462 0.102250 -0.143950
C39   C     C_R   0.512054 0.303740 0.140850 -0.108364
C40   C     C_R   0.491844 0.350968 0.257457 -0.145491
C41   C     C_R   0.419009 0.326905 0.334512 -0.171819
C42   C     C_R   0.291145 0.810006 0.256371 0.200662
C43   C     C_R   0.344884 0.791644 0.145371 -0.125358
C44   C     C_R   0.335783 0.839986 0.028194 -0.171999
C45   C     C_R   0.622595 0.114785 0.500142 0.940400
C46   C     C_R   0.273333 0.907102 0.020967 -0.151593
C47   C     C_R   0.220354 0.926410 0.131391 -0.178831
C48   C     C_R   0.229261 0.878202 0.248784 -0.135089
C49   C     C_R   0.866419 0.754451 0.296444 0.168410
C50   C     C_R   0.888054 0.706533 0.179882 -0.108835
C51   C     C_R   0.960269 0.731458 0.102241 -0.143952
C52   C     C_R   0.012048 0.803737 0.140834 -0.108368
C53   C     C_R   0.991840 0.850967 0.257442 -0.145494
C54   C     C_R   0.919008 0.826905 0.334502 -0.171820
C55   C     C_R   0.791133 0.310014 0.256374 0.200672
C56   C     C_R   0.618601 0.880776 0.498723 0.923472
C57   C     C_R   0.844847 0.291638 0.145353 -0.125424
C58   C     C_R   0.835737 0.339981 0.028179 -0.171991
C59   C     C_R   0.773301 0.407111 0.020973 -0.151586
C60   C     C_R   0.720347 0.426432 0.131416 -0.178849
C61   C     C_R   0.729263 0.378223 0.248807 -0.135067
C62   C     C_R   0.657604 0.031075 0.868134 0.213886
C63   C     C_R   0.714633 0.964388 0.824268 -0.125238
C64   C     C_R   0.797812 0.985845 0.773220 -0.168407
C65   C     C_R   0.825314 0.073691 0.769247 -0.124808
C66   C     C_R   0.770083 0.140055 0.817777 -0.166198
C67   C     C_R   0.122595 0.614785 0.500142 0.940397
C68   C     C_R   0.686665 0.118906 0.868003 -0.138492
C69   C     C_R   0.157598 0.531110 0.868137 0.213875
C70   C     C_R   0.214638 0.464439 0.824242 -0.125215
C71   C     C_R   0.297810 0.485919 0.773189 -0.168401
C72   C     C_R   0.325295 0.573771 0.769240 -0.124810
C73   C     C_R   0.270053 0.640119 0.817799 -0.166197
C74   C     C_R   0.186641 0.618947 0.868029 -0.138506
C75   C     C_R   0.118601 0.380776 0.498723 0.923467
C76   C     C_2   0.710429 0.774024 0.381209 0.088415
H1    H     H_    0.735384 0.821941 0.579136 0.141280
H2    H     H_    0.943983 0.479494 0.896765 0.152046
H3    H     H_    0.634766 0.991540 0.126922 0.156302
H4    H     H_    0.134767 0.491554 0.126921 0.156301
H5    H     H_    0.442316 0.012932 0.101145 0.171090
H6    H     H_    0.942315 0.512926 0.101145 0.171090
H7    H     H_    0.530173 0.649041 0.130649 0.266316
H8    H     H_    0.569959 0.730228 0.014499 0.268403
H9    H     H_    0.604511 0.617085 0.998839 0.251626
H10   H     H_    0.722452 0.708227 0.098040 0.224209
H11   H     H_    0.683156 0.628437 0.218316 0.231464
H12   H     H_    0.688822 0.229670 0.571835 0.131954
H13   H     H_    0.579468 0.754461 0.300291 0.210703
H14   H     H_    0.648840 0.826732 0.202926 0.212257
H15   H     H_    0.837543 0.968864 0.142767 0.273684
H16   H     H_    0.865060 0.073213 0.067754 0.270781
H17   H     H_    0.950013 0.009725 0.145669 0.251691
H18   H     H_    0.909212 0.131856 0.296366 0.219834
H19   H     H_    0.876863 0.030160 0.368958 0.220024
H20   H     H_    0.727726 0.045359 0.316279 0.211338
H21   H     H_    0.742746 0.130074 0.195457 0.205924
H22   H     H_    0.030163 0.149053 0.130647 0.266317
H23   H     H_    0.235385 0.321943 0.579135 0.141273
H24   H     H_    0.069967 0.230228 0.014492 0.268405
H25   H     H_    0.104503 0.117078 0.998849 0.251622
H26   H     H_    0.222451 0.208214 0.098052 0.224207
H27   H     H_    0.183143 0.128430 0.218327 0.231466
H28   H     H_    0.079467 0.254461 0.300295 0.210705
H29   H     H_    0.148840 0.326728 0.202924 0.212259
H30   H     H_    0.337538 0.468867 0.142751 0.273678
H31   H     H_    0.365065 0.573219 0.067753 0.270784
H32   H     H_    0.450011 0.509720 0.145664 0.251691
H33   H     H_    0.409214 0.631847 0.296372 0.219831
H34   H     H_    0.188824 0.729669 0.571835 0.131960
H35   H     H_    0.376859 0.530150 0.368951 0.220020
H36   H     H_    0.227723 0.545358 0.316274 0.211336
H37   H     H_    0.242748 0.630075 0.195456 0.205928
H38   H     H_    0.351485 0.147756 0.151942 0.114017
H39   H     H_    0.476819 0.193952 0.013201 0.125292
H40   H     H_    0.567994 0.322678 0.080608 0.137162
H41   H     H_    0.532084 0.406801 0.287809 0.124853
H42   H     H_    0.404294 0.363888 0.424911 0.119679
H43   H     H_    0.394772 0.741399 0.149463 0.127255
H44   H     H_    0.377661 0.825789 0.943272 0.130647
H45   H     H_    0.255942 0.166765 0.568723 0.148006
H46   H     H_    0.266395 0.944478 0.930150 0.129589
H47   H     H_    0.171971 0.978313 0.125780 0.133326
H48   H     H_    0.188580 0.894258 0.334323 0.109135
H49   H     H_    0.851481 0.647752 0.151942 0.114020
H50   H     H_    0.976811 0.693947 0.013191 0.125292
H51   H     H_    0.067985 0.822676 0.080588 0.137148
H52   H     H_    0.032080 0.906801 0.287789 0.124850
H53   H     H_    0.904295 0.863889 0.424900 0.119685
H54   H     H_    0.894722 0.241382 0.149425 0.127271
H55   H     H_    0.877595 0.325774 0.943241 0.130648
H56   H     H_    0.336718 0.759835 0.588428 0.152502
H57   H     H_    0.766356 0.444487 0.930158 0.129592
H58   H     H_    0.671973 0.478344 0.125821 0.133335
H59   H     H_    0.688599 0.394290 0.334360 0.109125
H60   H     H_    0.694694 0.896010 0.829594 0.127721
H61   H     H_    0.841144 0.934351 0.737552 0.125579
H62   H     H_    0.889704 0.090272 0.729832 0.126919
H63   H     H_    0.791747 0.207889 0.816114 0.131917
H64   H     H_    0.644590 0.170831 0.905979 0.118126
H65   H     H_    0.194713 0.396056 0.829550 0.127723
H66   H     H_    0.341150 0.434438 0.737497 0.125571
H67   H     H_    0.755943 0.666766 0.568724 0.148005
H68   H     H_    0.389679 0.590370 0.729819 0.126919
H69   H     H_    0.291703 0.707958 0.816152 0.131940
H70   H     H_    0.144557 0.670860 0.906025 0.118121
H71   H     H_    0.836718 0.259835 0.588425 0.152499
H72   H     H_    0.443978 0.979509 0.896765 0.152037
N1    N     N_2   0.501330 0.000000 0.852150 -0.218834
N2    N     N_2   0.001330 0.500000 0.852150 -0.218832
N3    N     N_2   0.501360 0.000000 0.147810 -0.189787
N4    N     N_2   0.001360 0.500000 0.147810 -0.189789
O1    O     O_R   0.409520 0.909540 0.613040 -0.628423
O2    O     O_R   0.590440 0.909540 0.613100 -0.614283
O3    O     O_R   0.090440 0.590460 0.613100 -0.602081
O4    O     O_R   0.090440 0.409540 0.613100 -0.614292
O5    O     O_R   0.590480 0.090460 0.386960 -0.612062
O6    O     O_R   0.590480 0.909540 0.386960 -0.633330
O7    O     O_R   0.090480 0.590460 0.386960 -0.612066
O8    O     O_R   0.090480 0.409540 0.386960 -0.633326
O9    O     O_R   0.409520 0.090460 0.613040 -0.619898
O10   O     O_R   0.909520 0.409540 0.613040 -0.628422
O11   O     O_R   0.909520 0.590460 0.613040 -0.619897
O12   O     O_R   0.409560 0.909540 0.386900 -0.593650
O13   O     O_R   0.409560 0.090460 0.386900 -0.601361
O14   O     O_R   0.909560 0.409540 0.386900 -0.593650
O15   O     O_R   0.909560 0.590460 0.386900 -0.601361
O16   O     O_R   0.590440 0.090460 0.613100 -0.602089
Zn1   Zn    Zn3+2 0.499970 0.000000 0.650990 0.928028
Zn2   Zn    Zn3+2 0.999970 0.500000 0.650990 0.928029
Zn3   Zn    Zn3+2 0.500030 0.000000 0.349010 0.937474
Zn4   Zn    Zn3+2 0.000030 0.500000 0.349010 0.937475

loop_
_geom_bond_atom_site_label_1
_geom_bond_atom_site_label_2
_ccdc_geom_bond_type
C75   O8    A    
O13   Zn3   S    
C66   C68   A    
O14   Zn4   S    
C6    C45   S    
C10   C42   S    
C73   C74   A    
C5    C56   S    
C27   H19   S    
C22   C76   S    
C4    C8    D    
C6    H12   S    
N2    Zn2   S    
C53   C54   A    
H2    N2    S    
C26   C27   S    
C17   C23   S    
C7    H23   S    
N1    Zn1   S    
C31   H25   S    
C36   C37   A    
C17   H71   S    
C37   C38   A    
C3    C7    D    
C11   C76   S    
O5    Zn3   S    
C30   C31   S    
N4    Zn4   S    
O6    Zn3   S    
C31   H22   S    
C44   H44   S    
C49   C54   A    
C19   N2    D    
N3    Zn3   S    
C67   O3    A    
C21   N4    D    
C3    C29   S    
O11   Zn2   S    
C56   O6    A    
C35   H32   S    
C16   C34   S    
C12   O9    A    
C75   O4    A    
C15   H56   S    
C1    O12   A    
C30   H27   S    
C9    C36   S    
C70   C71   A    
C1    C15   S    
C41   H42   S    
C22   H14   S    
C18   N1    D    
C23   O10   A    
O9    Zn1   S    
C40   H41   S    
C59   C60   A    
C14   H45   S    
C29   H29   S    
C36   C41   A    
C2    C6    D    
C45   O16   A    
C52   H51   S    
C44   C46   A    
C64   H61   S    
C26   H20   S    
O7    Zn4   S    
C66   H63   S    
C51   C52   A    
C35   H31   S    
C57   H54   S    
C16   H67   S    
C45   O5    A    
H72   N1    S    
C56   O2    A    
C34   O11   A    
C12   O13   A    
C18   C62   S    
C7    C75   S    
C37   H38   S    
C58   C59   A    
H5    N3    S    
C59   H57   S    
C29   H28   S    
C73   H69   S    
C28   H17   S    
C9    C14   D    
C29   C30   S    
C11   C49   S    
C53   H52   S    
C8    H34   S    
C25   H8    S    
C23   O14   A    
C11   C16   D    
C47   H47   S    
C47   C48   A    
O10   Zn2   S    
C58   H55   S    
C30   H26   S    
C62   C63   A    
C25   H9    S    
C50   C51   A    
O8    Zn4   S    
C69   C74   A    
C28   H16   S    
C50   H49   S    
C42   C48   A    
C31   H24   S    
C24   C25   S    
C1    O1    A    
C3    C9    S    
C2    C13   S    
C4    C32   S    
C71   H66   S    
C33   H35   S    
C65   H62   S    
C40   C41   A    
C12   C14   S    
C49   C50   A    
C55   C57   A    
C43   C44   A    
C32   H37   S    
C22   C24   S    
C19   C69   S    
C33   H33   S    
C42   C43   A    
C5    H1    S    
C34   O15   A    
C60   H58   S    
C39   C40   A    
C52   C53   A    
C61   H59   S    
C72   H68   S    
C54   H53   S    
C46   C47   A    
O16   Zn1   S    
C70   H65   S    
C32   H36   S    
C20   H3    S    
C19   C21   S    
C51   H50   S    
C74   H70   S    
C46   H46   S    
C72   C73   A    
C27   H18   S    
C2    C26   S    
C48   H48   S    
O15   Zn4   S    
C62   C68   A    
C20   N3    D    
C13   C17   D    
C10   C15   D    
C63   H60   S    
C5    C76   D    
C71   C72   A    
C35   H30   S    
C64   C65   A    
C38   H39   S    
O3    Zn2   S    
C57   C58   A    
C38   C39   A    
C24   H10   S    
C55   C61   A    
C21   H4    S    
O4    Zn2   S    
C33   C35   S    
C22   H13   S    
C28   H15   S    
C18   C20   S    
C65   C66   A    
C32   C33   S    
C24   H11   S    
C69   C70   A    
C68   H64   S    
C26   H21   S    
C63   C64   A    
O2    Zn1   S    
C8    C67   S    
C39   H40   S    
O1    Zn1   S    
C27   C28   S    
C25   H7    S    
C60   C61   A    
O12   Zn3   S    
C67   O7    A    
C4    C10   S    
H6    N4    S    
C43   H43   S    
C13   C55   S    
