data_mof_unit_68610.cif
_audit_creation_date              2012-12-11T14:19:36-0500
_audit_creation_method            fapswitch 2.2
_symmetry_space_group_name_H-M    P1
_symmetry_Int_Tables_number       1
_space_group_crystal_system       triclinic
_cell_length_a                    8.19262
_cell_length_b                    12.57623
_cell_length_c                    15.033794
_cell_angle_alpha                 95.184751
_cell_angle_beta                  99.147187
_cell_angle_gamma                 97.430499
_cell_volume                      1506.66036263

loop_
_atom_site_label
_atom_site_type_symbol
_atom_type_description
_atom_site_fract_x
_atom_site_fract_y
_atom_site_fract_z
_atom_type_partial_charge
Ba1   Ba    Ba6+2 0.153570 0.551840 0.456200 1.646457
Ba2   Ba    Ba6+2 0.656590 0.448150 0.543720 1.642629
C1    C     C_3   0.325014 0.811611 0.111635 -0.321736
C2    C     C_R   0.727421 0.815699 0.467085 -0.276353
C3    C     C_R   0.693057 0.996224 0.432513 -0.091055
C4    C     C_3   0.883939 0.837748 0.247295 0.331132
C5    C     C_R   0.627771 0.887274 0.429283 -0.000850
C6    C     C_R   0.888405 0.851375 0.514852 0.050528
C7    C     C_R   0.954136 0.963879 0.523450 -0.066028
C8    C     C_R   0.855398 0.037333 0.480358 -0.062311
C9    C     C_R   0.921298 0.149718 0.488126 0.061122
C10   C     C_R   0.181018 0.114181 0.576023 -0.011096
C11   C     C_R   0.115974 0.005002 0.572053 -0.071157
C12   C     C_3   0.368991 0.782214 0.207637 0.327310
C13   C     C_R   0.233530 0.459773 0.766635 -0.301981
C14   C     C_R   0.135423 0.421013 0.827321 0.028384
C15   C     C_R   0.199812 0.433106 0.920382 -0.095317
C16   C     C_3   0.826449 0.929867 0.197400 -0.378030
C17   C     C_R   0.362775 0.489599 0.954520 0.002202
C18   C     C_R   0.453040 0.535631 0.891047 -0.116820
C19   C     C_R   0.389115 0.520111 0.798646 0.033416
C20   C     C_R   0.602886 0.555586 0.086098 -0.132301
C21   C     C_R   0.669831 0.571236 0.178247 0.011078
C22   C     C_R   0.414455 0.480089 0.212479 0.064461
C23   C     C_3   0.625334 0.780506 0.685388 0.286556
C24   C     C_R   0.344874 0.464930 0.120085 -0.120836
C25   C     C_R   0.436343 0.504452 0.054456 0.001356
C26   C     C_R   0.573853 0.537057 0.241444 -0.291808
C27   C     C_3   0.722271 0.308840 0.269333 0.306976
C28   C     C_3   0.676022 0.275205 0.167639 -0.391284
C29   C     C_3   0.078607 0.685927 0.729534 0.291597
C30   C     C_3   0.121184 0.716075 0.831736 -0.311624
C31   C     C_3   0.229084 0.225401 0.347955 0.280424
C32   C     C_3   0.216816 0.103746 0.329488 -0.337926
C33   C     C_3   0.557371 0.882222 0.658787 -0.354998
C34   C     C_3   0.909378 0.157661 0.746247 0.357845
C35   C     C_3   0.895720 0.046470 0.779648 0.402938
C36   C     C_3   0.444128 0.223961 0.795894 0.353047
C37   C     C_3   0.509330 0.205533 0.893220 -0.298032
C38   C     C_R   0.081454 0.185685 0.537385 -0.294402
H1    H     H_    0.286721 0.706622 0.213302 0.095704
H2    H     H_    0.106916 0.246025 0.359877 0.008738
H3    H     H_    0.325464 0.252847 0.409279 0.070990
H4    H     H_    0.191375 0.822393 0.097016 0.173946
H5    H     H_    0.128357 0.074349 0.265818 0.122038
H6    H     H_    0.172036 0.064198 0.385745 0.074506
H7    H     H_    0.341382 0.081890 0.322337 0.141573
H8    H     H_    0.501270 0.768207 0.218973 -0.059554
H9    H     H_    0.347357 0.746176 0.062230 0.068081
H10   H     H_    0.755178 0.802934 0.722455 0.056305
H11   H     H_    0.627136 0.727955 0.622027 0.013518
H12   H     H_    0.565568 0.211045 0.153020 0.129435
H13   H     H_    0.529244 0.929623 0.718921 0.164022
H14   H     H_    0.648556 0.932607 0.627396 0.048211
H15   H     H_    0.441500 0.860539 0.608590 0.147356
H16   H     H_    0.403268 0.887879 0.103560 0.122525
H17   H     H_    0.709985 0.899953 0.148252 0.121388
H18   H     H_    0.819474 0.152433 0.681782 0.007636
H19   H     H_    0.037664 0.180425 0.732687 -0.073343
H20   H     H_    0.903860 0.985297 0.723241 -0.084807
H21   H     H_    0.773774 0.028083 0.802260 0.033215
H22   H     H_    0.308596 0.228002 0.789212 0.015641
H23   H     H_    0.645708 0.344893 0.131554 0.063609
H24   H     H_    0.510088 0.302674 0.783799 0.068839
H25   H     H_    0.471341 0.266450 0.941004 0.065212
H26   H     H_    0.647398 0.213565 0.905970 0.151509
H27   H     H_    0.993939 0.869848 0.300522 0.080593
H28   H     H_    0.459083 0.123866 0.907199 0.181399
H29   H     H_    0.613970 0.047574 0.398608 0.102321
H30   H     H_    0.194765 0.953370 0.605884 0.117350
H31   H     H_    0.132907 0.270023 0.541634 0.068581
H32   H     H_    0.676085 0.731281 0.462348 0.072146
H33   H     H_    0.686338 0.581800 0.041395 0.081813
H34   H     H_    0.782535 0.244098 0.141791 0.139230
H35   H     H_    0.118856 0.399779 0.963868 0.095385
H36   H     H_    0.221143 0.419969 0.101670 0.087584
H37   H     H_    0.571127 0.587140 0.910797 0.073503
H38   H     H_    0.627463 0.548235 0.312814 0.071986
H39   H     H_    0.780147 0.804427 0.280819 -0.054092
H40   H     H_    0.183775 0.450108 0.694778 0.066115
H41   H     H_    0.801842 0.994787 0.246514 0.085556
H42   H     H_    0.923460 0.963157 0.159523 0.156811
H43   H     H_    0.613281 0.335497 0.294699 0.012665
H44   H     H_    0.828042 0.376081 0.282025 0.062750
H45   H     H_    0.184551 0.654286 0.704868 0.013335
H46   H     H_    0.197359 0.142979 0.987677 0.348118
H47   H     H_    0.967395 0.622890 0.714479 0.060529
H48   H     H_    0.238674 0.774221 0.849381 0.169645
H49   H     H_    0.137444 0.643494 0.866738 0.028917
H50   H     H_    0.018189 0.753184 0.856057 0.166485
O1    O     O_2   0.168170 0.764170 0.543850 -0.462808
O2    O     O_2   0.796109 0.428545 0.823123 -0.495565
O3    O     O_3   0.867812 0.232160 0.811239 -0.582044
O4    O     O_3   0.898670 0.629780 0.545890 -0.499968
O5    O     O_3   0.409490 0.443300 0.392340 -0.492999
O6    O     O_2   0.674250 0.555830 0.719690 -0.472664
O7    O     O_3   0.527997 0.732553 0.744156 -0.631217
O8    O     O_2   0.518506 0.113949 0.566533 -0.489500
O9    O     O_3   0.473256 0.139385 0.735097 -0.594448
O10   O     O_3   0.365980 0.695510 0.380810 -0.484844
O11   O     O_2   0.288731 0.885551 0.435959 -0.490297
O12   O     O_3   0.270571 0.271111 0.271601 -0.630792
O13   O     O_3   0.047436 0.778476 0.688860 -0.616795
O14   O     O_3   0.344090 0.866546 0.269745 -0.605300
O15   O     O_2   0.136040 0.444100 0.280280 -0.464822
O16   O     O_3   0.934510 0.640480 0.335500 -0.484090
O17   O     O_2   0.009006 0.566631 0.176458 -0.491917
O18   O     O_2   0.993429 0.958148 0.931289 -0.315298
O19   O     O_2   0.201112 0.996783 0.833440 -0.320219
O20   O     O_3   0.124370 0.158088 0.932538 -0.542217
O21   O     O_3   0.930236 0.761574 0.185041 -0.589821
O22   O     O_2   0.642110 0.235770 0.456130 -0.470717
O23   O     O_3   0.911620 0.370210 0.454030 -0.496561
O24   O     O_3   0.444310 0.304480 0.619110 -0.487779
O25   O     O_3   0.766834 0.219621 0.311188 -0.642830
O26   O     O_3   0.400800 0.556680 0.607590 -0.467263
O27   O     O_3   0.875770 0.359510 0.664420 -0.487384
P1    P     P_3+3 0.998660 0.747790 0.570900 0.977847
P2    P     P_3+3 0.306970 0.411860 0.294270 0.985010
P3    P     P_3+3 0.886864 0.632389 0.217798 0.959907
P4    P     P_3+3 0.811620 0.252200 0.429030 0.968827
P5    P     P_3+3 0.918380 0.362282 0.782349 0.975071
P6    P     P_3+3 0.407878 0.835177 0.379960 0.946760
P7    P     P_3+3 0.498123 0.591986 0.720217 0.958279
P8    P     P_3+3 0.402460 0.165743 0.623862 0.949547
S1    S     S_3+6 0.058649 0.037052 0.871371 -0.099627

loop_
_geom_bond_atom_site_label_1
_geom_bond_atom_site_label_2
_ccdc_geom_bond_type
C29   H45   S    
C38   H31   S    
C33   H13   S    
O4    P1    S    
C37   H28   S    
C17   C18   A    
C2    C6    A    
C34   H19   S    
C1    H9    S    
C6    P1    S    
O9    P8    S    
O14   P6    S    
Ba2   O22   S    
C24   C25   A    
O11   P6    D    
C18   H37   S    
O25   P4    S    
C31   H2    S    
C34   C35   S    
H46   O20   S    
C22   C24   A    
C27   H43   S    
O7    P7    S    
C34   H18   S    
C36   C37   S    
C28   H34   S    
Ba2   O23   S    
C11   H30   S    
C13   C14   A    
C30   H48   S    
C16   H41   S    
Ba1   Ba2   S    
Ba1   P2    S    
C14   P5    S    
C23   H10   S    
C7    C11   A    
C16   H42   S    
Ba2   O26   S    
C34   O3    S    
O8    P8    D    
C30   H50   S    
C13   H40   S    
Ba1   O4    S    
C24   H36   S    
C32   H6    S    
Ba1   O26   S    
C17   C25   S    
C7    C8    A    
Ba1   O16   S    
C27   O25   S    
Ba1   O1    S    
C28   H23   S    
C33   H14   S    
C37   H25   S    
C9    P4    S    
Ba1   O23   S    
C2    C5    A    
Ba1   O10   S    
Ba2   O27   S    
C36   H24   S    
C4    C16   S    
C1    H4    S    
C29   H47   S    
O6    P7    D    
C33   H15   S    
C31   O12   S    
C31   H3    S    
Ba2   O4    S    
O3    P5    S    
C27   H44   S    
C21   P3    S    
C3    C5    A    
O24   P8    S    
C6    C7    A    
C12   H8    S    
C10   P8    S    
O5    P2    S    
C3    H29   S    
O21   P3    S    
C29   O13   S    
C10   C38   A    
O27   P5    S    
C23   H11   S    
C27   C28   S    
O2    P5    D    
C1    H16   S    
C16   H17   S    
C12   O14   S    
C30   H49   S    
C13   C19   A    
Ba1   O5    S    
C31   C32   S    
O1    P1    D    
C32   H5    S    
C21   C26   A    
C18   C19   A    
C1    C12   S    
C23   C33   S    
C12   H1    S    
C23   O7    S    
C4    H27   S    
O20   S1    S    
C20   C25   A    
C37   H26   S    
O13   P1    S    
O17   P3    D    
C2    H32   S    
C26   H38   S    
C35   S1    S    
Ba2   P4    S    
C28   H12   S    
Ba2   O5    S    
C22   P2    S    
O26   P7    S    
O16   P3    S    
C29   C30   S    
C22   C26   A    
C5    P6    S    
C36   O9    S    
C35   H21   S    
O10   P6    S    
C19   P7    S    
Ba2   O6    S    
O22   P4    D    
Ba2   O24   S    
C4    H39   S    
C14   C15   A    
C15   C17   A    
C4    O21   S    
Ba1   P1    S    
C9    C38   A    
C35   H20   S    
C8    C9    A    
O19   S1    D    
C3    C8    A    
O23   P4    S    
C10   C11   A    
C15   H35   S    
C20   C21   A    
O15   P2    D    
C32   H7    S    
C20   H33   S    
O18   S1    D    
O12   P2    S    
Ba1   O15   S    
C36   H22   S    
