data_mof_unit_50982.cif
_audit_creation_date              2012-12-10T16:51:00-0500
_audit_creation_method            fapswitch 2.2
_symmetry_space_group_name_H-M    P1
_symmetry_Int_Tables_number       1
_space_group_crystal_system       triclinic
_cell_length_a                    7.889594
_cell_length_b                    8.571874
_cell_length_c                    10.372289
_cell_angle_alpha                 90.838489
_cell_angle_beta                  87.299539
_cell_angle_gamma                 93.025056
_cell_volume                      699.656211084

loop_
_atom_site_label
_atom_site_type_symbol
_atom_type_description
_atom_site_fract_x
_atom_site_fract_y
_atom_site_fract_z
_atom_type_partial_charge
C1    C     C_R   0.544868 0.794023 0.496906 0.904147
C2    C     C_R   0.981129 0.625466 0.065440 -0.101571
C3    C     C_R   0.096723 0.754439 0.072403 -0.115756
C4    C     C_R   0.990085 0.621781 0.930873 -0.107831
C5    C     C_R   0.243577 0.724675 0.137396 -0.218877
C6    C     C_R   0.840077 0.627007 0.864220 -0.221251
C7    C     C_R   0.378064 0.654799 0.070331 0.082104
C8    C     C_R   0.681269 0.606076 0.929875 0.091586
C9    C     C_R   0.386331 0.659420 0.934573 0.094176
C10   C     C_R   0.674353 0.609811 0.065191 0.094117
C11   C     C_R   0.515601 0.598326 0.132485 -0.244964
C12   C     C_R   0.455145 0.206037 0.503253 0.993633
C13   C     C_R   0.527278 0.599999 0.866875 -0.247445
C14   C     C_2   0.568337 0.957458 0.495006 -0.368706
C15   C     C_2   0.431650 0.042507 0.505209 -0.400428
C16   C     C_R   0.509155 0.532775 0.736773 0.884822
C17   C     C_R   0.502784 0.531615 0.262812 0.885267
C18   C     C_R   0.260825 0.735106 0.871477 -0.204655
C19   C     C_R   0.824781 0.639776 0.129481 -0.202695
C20   C     C_R   0.102979 0.754732 0.934924 -0.106833
H1    H     H_    0.049191 0.518246 0.890838 0.176857
H2    H     H_    0.302089 0.992613 0.515095 0.175768
H3    H     H_    0.009628 0.373919 0.411453 0.192867
H4    H     H_    0.992507 0.631513 0.582469 0.173902
H5    H     H_    0.042358 0.857867 0.116424 0.144648
H6    H     H_    0.279850 0.770535 0.771732 0.162164
H7    H     H_    0.823890 0.683250 0.228199 0.177597
H8    H     H_    0.048996 0.856769 0.894569 0.146981
H9    H     H_    0.026732 0.518752 0.105054 0.167320
H10   H     H_    0.248090 0.752254 0.239457 0.168432
H11   H     H_    0.849419 0.656023 0.763676 0.157659
H12   H     H_    0.697906 0.007292 0.485131 0.179866
N1    N     N_2   0.950330 0.457950 0.466250 -0.183087
N2    N     N_2   0.049670 0.542050 0.533750 -0.185000
O1    O     O_R   0.389250 0.738570 0.508280 -0.635619
O2    O     O_R   0.610750 0.261430 0.491720 -0.600230
O3    O     O_R   0.678390 0.711630 0.486650 -0.654831
O4    O     O_R   0.321610 0.288370 0.513350 -0.619135
O5    O     O_R   0.355430 0.513480 0.694040 -0.612934
O6    O     O_R   0.644570 0.486520 0.305960 -0.616703
O7    O     O_R   0.644570 0.486540 0.672410 -0.614578
O8    O     O_R   0.355430 0.513460 0.327590 -0.621930
Zn1   Zn    Zn3+2 0.306940 0.517990 0.514440 0.913123
Zn2   Zn    Zn3+2 0.693060 0.482010 0.485560 0.918023

loop_
_geom_bond_atom_site_label_1
_geom_bond_atom_site_label_2
_ccdc_geom_bond_type
C2    C4    A    
C5    C7    A    
C8    C13   A    
C12   O2    A    
O1    Zn1   S    
C18   H6    S    
C12   C15   S    
C1    O3    A    
C10   C19   A    
O3    Zn2   S    
C2    C3    A    
C3    C20   A    
C7    C11   A    
C4    H1    S    
C2    H9    S    
C6    C8    A    
C4    C6    A    
N1    N2    D    
C18   C20   A    
C12   O4    A    
C14   C15   D    
O7    Zn2   S    
O4    Zn1   S    
O2    Zn2   S    
C10   C11   A    
C16   O5    A    
C4    C20   A    
C9    C18   A    
O6    Zn2   S    
C3    H5    S    
C19   H7    S    
C1    O1    A    
C8    C10   A    
C5    H10   S    
O8    Zn1   S    
C13   C16   S    
C7    C9    A    
C9    C13   A    
C17   O8    A    
C11   C17   S    
C6    H11   S    
C1    C14   S    
C20   H8    S    
H3    N1    S    
C2    C19   A    
O5    Zn1   S    
N1    Zn2   S    
C16   O7    A    
C15   H2    S    
H4    N2    S    
N2    Zn1   S    
C14   H12   S    
C3    C5    A    
C17   O6    A    
