data_mof_unit_26897.cif
_audit_creation_date              2012-12-11T14:33:57-0500
_audit_creation_method            fapswitch 2.2
_symmetry_space_group_name_H-M    P1
_symmetry_Int_Tables_number       1
_space_group_crystal_system       triclinic
_cell_length_a                    13.888124
_cell_length_b                    14.061772
_cell_length_c                    27.318245
_cell_angle_alpha                 90.116328
_cell_angle_beta                  90.22118
_cell_angle_gamma                 119.507323
_cell_volume                      4642.95133701

loop_
_atom_site_label
_atom_site_type_symbol
_atom_type_description
_atom_site_fract_x
_atom_site_fract_y
_atom_site_fract_z
_atom_type_partial_charge
C1    C     C_R   0.234660 0.786781 0.568882 0.536190
C2    C     C_R   0.213594 0.448555 0.569186 0.537976
C3    C     C_R   0.552764 0.765096 0.568902 0.539780
C4    C     C_3   0.684962 0.735200 0.787933 0.251737
C5    C     C_3   0.263567 0.922721 0.789860 0.243622
C6    C     C_3   0.043421 0.311492 0.784946 0.259588
C7    C     C_3   0.672820 0.731185 0.730541 -0.164287
C8    C     C_3   0.278186 0.896682 0.735381 -0.162696
C9    C     C_3   0.066426 0.348952 0.729984 -0.190148
C10   C     C_1   0.702356 0.854314 0.860984 -0.024359
C11   C     C_1   0.116253 0.882234 0.852988 0.003223
C12   C     C_1   0.115314 0.242314 0.853841 0.006496
C13   C     C_1   0.628469 0.811005 0.659030 -0.076148
C14   C     C_1   0.181939 0.816133 0.657479 -0.075286
C15   C     C_1   0.185406 0.374345 0.658903 -0.074453
C16   C     C_1   0.601181 0.795084 0.616634 -0.012588
C17   C     C_1   0.202141 0.804381 0.615932 -0.012291
C18   C     C_1   0.197627 0.402953 0.616943 -0.012648
C19   C     C_R   0.065855 0.151666 0.095943 0.575239
C20   C     C_R   0.776730 0.884228 0.087350 0.551946
C21   C     C_R   0.116159 0.894798 0.088739 0.560889
C22   C     C_R   0.070281 0.162518 0.943037 0.533425
C23   C     C_R   0.779483 0.886721 0.950994 0.541121
C24   C     C_R   0.090522 0.929450 0.943514 0.532192
C25   C     C_R   0.627824 0.895039 0.359433 0.084580
C26   C     C_R   0.088224 0.732203 0.364820 0.088440
C27   C     C_R   0.260529 0.342457 0.367874 0.104227
C28   C     C_R   0.640664 0.906466 0.308053 0.023559
C29   C     C_R   0.071276 0.745504 0.314855 0.023785
C30   C     C_R   0.242154 0.303095 0.318933 0.041905
C31   C     C_R   0.670663 0.927578 0.205875 0.027762
C32   C     C_R   0.056172 0.763926 0.212711 0.028296
C33   C     C_R   0.205315 0.233428 0.220016 0.018310
C34   C     C_R   0.231137 0.788159 0.432244 0.559673
C35   C     C_R   0.211296 0.442904 0.432034 0.550247
C36   C     C_R   0.551730 0.764580 0.430474 0.569067
C37   C     C_R   0.671047 0.011593 0.233321 -0.139817
C38   C     C_R   0.974000 0.673441 0.237439 -0.133188
C39   C     C_R   0.307365 0.265034 0.242368 -0.113408
C40   C     C_R   0.660706 0.003090 0.284103 -0.128358
C41   C     C_R   0.981782 0.663987 0.287959 -0.138325
C42   C     C_R   0.325223 0.297969 0.291308 -0.048400
C43   C     C_R   0.702752 0.943417 0.156774 -0.140478
C44   C     C_R   0.050046 0.774176 0.161981 -0.130961
C45   C     C_R   0.187203 0.202130 0.170603 -0.125258
C46   C     C_R   0.710093 0.860648 0.131356 0.000053
C47   C     C_R   0.132997 0.866143 0.138123 -0.000650
C48   C     C_R   0.086140 0.176854 0.148113 0.000204
C49   C     C_R   0.590659 0.707260 0.351977 -0.144598
C50   C     C_R   0.249697 0.914143 0.366225 -0.146033
C51   C     C_R   0.079746 0.331869 0.367377 -0.149429
C52   C     C_R   0.605746 0.717755 0.301825 0.010529
C53   C     C_R   0.235781 0.927561 0.316852 0.013991
C54   C     C_R   0.056816 0.284678 0.321052 0.004164
C55   C     C_R   0.629926 0.817358 0.279599 -0.001817
C56   C     C_R   0.150014 0.840502 0.290450 -0.000854
C57   C     C_R   0.139734 0.274042 0.295908 -0.010629
C58   C     C_R   0.594431 0.628996 0.273437 0.282794
C59   C     C_R   0.312592 0.022979 0.292662 0.270999
C60   C     C_R   0.955215 0.255810 0.297836 0.280840
C61   C     C_R   0.609857 0.640903 0.222957 -0.115876
C62   C     C_R   0.310392 0.026744 0.241664 -0.113859
C63   C     C_R   0.937018 0.216376 0.250054 -0.095661
C64   C     C_R   0.638874 0.740849 0.200950 -0.031191
C65   C     C_R   0.227703 0.939463 0.215142 -0.029833
C66   C     C_R   0.019077 0.208700 0.224367 -0.028769
C67   C     C_3   0.544231 0.808737 0.738686 -0.196164
C68   C     C_3   0.098352 0.719618 0.735419 -0.214430
C69   C     C_3   0.270005 0.421518 0.742391 -0.198020
C70   C     C_R   0.645448 0.828300 0.228790 0.051351
C71   C     C_R   0.144369 0.847972 0.239450 0.050416
C72   C     C_R   0.121009 0.237375 0.246986 0.045502
C73   C     C_R   0.668505 0.756841 0.152047 -0.125291
C74   C     C_R   0.224103 0.945358 0.164663 -0.130117
C75   C     C_R   0.001745 0.177113 0.175535 -0.128970
C76   C     C_R   0.598128 0.793121 0.380916 0.020675
C77   C     C_R   0.184882 0.813048 0.388649 0.017740
C78   C     C_R   0.183248 0.368451 0.389477 -0.004977
C79   C     C_3   0.748683 0.933729 0.725542 -0.248716
C80   C     C_3   0.100678 0.894961 0.713344 -0.246073
C81   C     C_3   0.146794 0.225046 0.715869 -0.245172
C82   C     C_3   0.769660 0.941163 0.781536 -0.262775
C83   C     C_3   0.078088 0.907336 0.767597 -0.282744
C84   C     C_3   0.129875 0.190795 0.770106 -0.275116
C85   C     C_1   0.731681 0.869670 0.903141 -0.023833
C86   C     C_1   0.103088 0.901959 0.894481 -0.010626
C87   C     C_1   0.097435 0.206419 0.894750 -0.007826
C88   C     C_3   0.648704 0.821528 0.712123 0.025946
C89   C     C_3   0.164608 0.831251 0.709150 0.029447
C90   C     C_3   0.168119 0.343238 0.710606 0.029421
C91   C     C_3   0.566371 0.831069 0.794582 -0.013810
C92   C     C_3   0.080309 0.737837 0.790403 -0.002094
C93   C     C_3   0.253894 0.381821 0.796661 -0.025253
C94   C     C_3   0.679268 0.838103 0.807963 0.174253
C95   C     C_3   0.135736 0.862787 0.801910 0.174323
C96   C     C_3   0.134440 0.282538 0.803094 0.173064
Cr1   Cr    Cr6+3 0.164410 0.584450 0.499910 1.039958
Cr2   Cr    Cr6+3 0.415550 0.579960 0.499910 1.028390
Cr3   Cr    Cr6+3 0.420040 0.835590 0.499910 1.034218
Cr4   Cr    Cr6+3 0.155170 0.075460 0.019960 1.020366
Cr5   Cr    Cr6+3 0.924540 0.079710 0.019960 1.014410
Cr6   Cr    Cr6+3 0.920290 0.844830 0.019960 1.016408
H1    H     H_    0.572730 0.911769 0.802668 0.105561
H2    H     H_    0.989468 0.702072 0.796013 0.121302
H3    H     H_    0.315170 0.354115 0.804414 0.116993
H4    H     H_    0.473946 0.724879 0.731979 0.126230
H5    H     H_    0.142204 0.671772 0.731622 0.109742
H6    H     H_    0.282429 0.505920 0.740294 0.128734
H7    H     H_    0.730827 0.022362 0.139868 0.104129
H8    H     H_    0.979087 0.713599 0.141530 0.116123
H9    H     H_    0.252254 0.200339 0.149506 0.117392
H10   H     H_    0.683229 0.085514 0.215628 0.090211
H11   H     H_    0.904686 0.609140 0.217611 0.097857
H12   H     H_    0.374440 0.266418 0.221725 0.099014
H13   H     H_    0.669080 0.072933 0.304196 0.137045
H14   H     H_    0.918382 0.591709 0.305507 0.097102
H15   H     H_    0.406480 0.323653 0.306187 0.181253
H16   H     H_    0.669578 0.691273 0.131471 0.126249
H17   H     H_    0.288171 0.017121 0.146491 0.123705
H18   H     H_    0.923414 0.156330 0.158190 0.112328
H19   H     H_    0.601387 0.572495 0.201267 0.108547
H20   H     H_    0.371987 0.098675 0.222880 0.093955
H21   H     H_    0.860493 0.196849 0.232072 0.114230
H22   H     H_    0.519630 0.866886 0.723206 0.095707
H23   H     H_    0.016433 0.670779 0.717169 0.102292
H24   H     H_    0.346075 0.424720 0.727554 0.095980
H25   H     H_    0.566673 0.628698 0.368266 0.200454
H26   H     H_    0.319496 0.978511 0.385782 0.177200
H27   H     H_    0.018357 0.345823 0.385319 0.176401
H28   H     H_    0.824032 0.945594 0.706045 0.119475
H29   H     H_    0.149390 0.977266 0.696602 0.119764
H30   H     H_    0.072079 0.167816 0.694378 0.118627
H31   H     H_    0.732442 0.000347 0.713869 0.118060
H32   H     H_    0.020681 0.851230 0.693086 0.124333
H33   H     H_    0.218034 0.218757 0.701051 0.119654
H34   H     H_    0.768584 0.014400 0.796171 0.122771
H35   H     H_    0.987715 0.864119 0.773802 0.140374
H36   H     H_    0.196600 0.173638 0.781586 0.105695
H37   H     H_    0.853418 0.952333 0.789084 0.142034
H38   H     H_    0.106711 0.993211 0.776181 0.117120
H39   H     H_    0.050093 0.114065 0.774569 0.112471
H40   H     H_    0.606257 0.649724 0.717866 0.089130
H41   H     H_    0.321794 0.848160 0.733936 0.111224
H42   H     H_    0.080790 0.433686 0.725710 0.093127
H43   H     H_    0.750015 0.742801 0.712867 0.119482
H44   H     H_    0.331406 0.973205 0.714894 0.096647
H45   H     H_    0.993243 0.297325 0.706444 0.103590
O1    O     O_R   0.137150 0.468200 0.553200 -0.511246
O2    O     O_R   0.531800 0.668950 0.553200 -0.511264
O3    O     O_R   0.331050 0.862850 0.553200 -0.512056
O4    O     O_R   0.179100 0.982980 0.967000 -0.499181
O5    O     O_R   0.017020 0.196120 0.967000 -0.469454
O6    O     O_R   0.803880 0.820900 0.967000 -0.510012
O7    O     O_R   0.173970 0.688730 0.549930 -0.500698
O8    O     O_R   0.311270 0.485240 0.549930 -0.505528
O9    O     O_R   0.514760 0.826030 0.549930 -0.496970
O10   O     O_R   0.140110 0.470540 0.446010 -0.523345
O11   O     O_R   0.529460 0.669570 0.446010 -0.528801
O12   O     O_R   0.330430 0.859890 0.446010 -0.533297
O13   O     O_R   0.176710 0.690910 0.450560 -0.454705
O14   O     O_R   0.309090 0.485800 0.450560 -0.475596
O15   O     O_R   0.514200 0.823290 0.450560 -0.458178
O16   O     O_3   0.333333 0.666667 0.499990 -0.281158
O17   O     O_R   0.176750 0.985260 0.074180 -0.529515
O18   O     O_R   0.014740 0.191490 0.074180 -0.494350
O19   O     O_R   0.808510 0.823250 0.074180 -0.515251
O20   O     O_R   0.146100 0.172630 0.068980 -0.480436
O21   O     O_R   0.827370 0.973470 0.068980 -0.522367
O22   O     O_R   0.026530 0.853900 0.068980 -0.487043
O23   O     O_3   0.000000 0.000000 0.020040 -0.291817
O24   O     O_R   0.148270 0.170520 0.969620 -0.494077
O25   O     O_R   0.829480 0.977750 0.969620 -0.519461
O26   O     O_R   0.022250 0.851730 0.969620 -0.477891
N1    N     N_3   0.474497 0.748147 0.823299 -0.643748
H46   H     H_    0.400358 0.740348 0.809848 0.237708
H47   H     H_    0.481913 0.776451 0.859297 0.248403
N2    N     N_3   0.118569 0.682102 0.824137 -0.603361
H48   H     H_    0.055891 0.600938 0.827277 0.219756
H49   H     H_    0.188148 0.681110 0.810342 0.256130
N3    N     N_3   0.276672 0.470909 0.830931 -0.635551
H50   H     H_    0.279177 0.444919 0.866504 0.254006
H51   H     H_    0.356039 0.534910 0.824369 0.252469
N4    N     N_3   0.792679 0.745421 0.800900 -0.671009
H52   H     H_    0.799733 0.681951 0.784358 0.203349
H53   H     H_    0.796556 0.735322 0.838645 0.253224
N5    N     N_3   0.312617 0.041876 0.796969 -0.644527
H54   H     H_    0.291428 0.076153 0.767857 0.206326
H55   H     H_    0.398904 0.078570 0.795916 0.219789
N6    N     N_3   0.932842 0.214369 0.789063 -0.620993
H56   H     H_    0.921700 0.158885 0.761211 0.199397
H57   H     H_    0.871944 0.236079 0.782501 0.214507
N7    N     N_3   0.643216 0.984652 0.390008 -0.608345
H58   H     H_    0.722300 0.050755 0.384045 0.249669
H59   H     H_    0.584105 0.006847 0.380561 0.225335
N8    N     N_3   0.011822 0.635846 0.390846 -0.601500
H60   H     H_    0.933740 0.629720 0.389921 0.215990
H61   H     H_    0.007961 0.567552 0.373724 0.220232
N9    N     N_3   0.356253 0.357511 0.395260 -0.587771
H62   H     H_    0.380555 0.302075 0.383251 0.224204
H63   H     H_    0.330315 0.329338 0.430799 0.227296
O27   O     O_3   0.559361 0.527881 0.294502 -0.574724
C97   C     C_3   0.647445 0.504627 0.296926 -0.030369
H64   H     H_    0.716822 0.552820 0.271176 0.115338
H65   H     H_    0.613892 0.417321 0.286987 0.138859
C98   C     C_3   0.692479 0.521806 0.349050 -0.393357
H66   H     H_    0.623553 0.479744 0.375397 0.175149
H67   H     H_    0.748968 0.487702 0.352865 0.080841
H68   H     H_    0.738965 0.610417 0.357851 0.146816
O28   O     O_3   0.385904 0.114026 0.319332 -0.581476
C99   C     C_3   0.493283 0.128392 0.315030 -0.038297
H69   H     H_    0.529916 0.167391 0.279447 0.123018
H70   H     H_    0.492939 0.049231 0.318006 0.128330
C100  C     C_3   0.564758 0.202407 0.356347 -0.399290
H71   H     H_    0.530054 0.164073 0.392225 0.158715
H72   H     H_    0.650168 0.215786 0.353435 0.133943
H73   H     H_    0.567180 0.282285 0.354465 0.153154
O29   O     O_3   0.871900 0.263295 0.322042 -0.591752
C101  C     C_3   0.878113 0.364530 0.311158 -0.028772
H74   H     H_    0.964628 0.432892 0.306703 0.126145
H75   H     H_    0.843332 0.386631 0.342847 0.140806
C102  C     C_3   0.809072 0.355573 0.265907 -0.403424
H76   H     H_    0.729278 0.277853 0.266330 0.145256
H77   H     H_    0.791930 0.424489 0.265097 0.085468
H78   H     H_    0.854852 0.359797 0.232071 0.135491
N10   N     N_3   0.596718 0.633886 0.809656 -0.592163
H79   H     H_    0.614142 0.570352 0.803878 0.210076
H80   H     H_    0.522442 0.609707 0.791075 0.233663
N11   N     N_3   0.320874 0.883433 0.822544 -0.617536
H81   H     H_    0.404243 0.920255 0.812729 0.201012
H82   H     H_    0.319696 0.909032 0.858398 0.266248
N12   N     N_3   0.045903 0.398787 0.815806 -0.558142
H83   H     H_    0.975758 0.406001 0.808642 0.203076
H84   H     H_    0.112319 0.474235 0.805973 0.242853

loop_
_geom_bond_atom_site_label_1
_geom_bond_atom_site_label_2
_ccdc_geom_bond_type
Cr6   O23   S    
C15   C18   T    
C10   C85   T    
C2    O8    A    
C82   C94   S    
Cr3   O12   S    
C2    C18   S    
C33   C45   A    
O27   C97   S    
C48   C75   A    
C43   H7    S    
C83   H35   S    
C27   C78   A    
C67   H22   S    
Cr2   O14   S    
C6    C9    S    
N11   H82   S    
Cr2   O16   S    
C51   H27   S    
C54   C60   A    
C100  H71   S    
Cr6   O26   S    
C74   H17   S    
C100  H73   S    
C67   C88   S    
C35   O14   A    
C31   C43   A    
C60   C63   A    
N10   H80   S    
C37   C40   A    
C69   C93   S    
C80   C83   S    
C34   C77   S    
C91   C94   S    
C64   C70   A    
C53   C56   A    
C40   H13   S    
C28   C40   A    
C11   C86   T    
C2    O1    A    
N8    H61   S    
C30   C57   A    
C4    N4    S    
C80   H32   S    
C6    N6    S    
Cr5   O25   S    
C61   H19   S    
C84   C96   S    
C80   C89   S    
N6    H57   S    
C67   H4    S    
N1    H46   S    
C83   H38   S    
C37   H10   S    
C36   C76   S    
C33   C72   A    
C93   H3    S    
C69   H6    S    
C31   C70   A    
C66   C72   A    
C23   O25   A    
Cr2   O11   S    
C58   O27   S    
Cr1   O16   S    
C97   C98   S    
C4    N10   S    
C64   C73   A    
C81   H33   S    
N9    H62   S    
C68   H5    S    
C32   C38   A    
C39   C42   A    
C7    H43   S    
C22   O24   A    
C62   C65   A    
C44   C47   A    
C36   O11   A    
C34   O12   A    
C49   C52   A    
C58   C61   A    
C100  H72   S    
C63   C66   A    
C84   H36   S    
Cr6   O19   S    
C80   H29   S    
C6    N12   S    
Cr4   O24   S    
C36   O15   A    
C14   C17   T    
C1    O7    A    
C27   N9    S    
C19   O20   A    
C5    N5    S    
C4    C7    S    
C49   H25   S    
C24   O26   A    
C79   C88   S    
C5    C95   S    
C28   C55   A    
N3    H51   S    
N10   H79   S    
C32   C71   A    
C12   C96   S    
C98   H67   S    
Cr4   O4    S    
C53   C59   A    
C79   H31   S    
Cr3   O3    S    
C22   O5    A    
C3    O2    A    
C26   C77   A    
C97   H64   S    
Cr4   O23   S    
C50   C53   A    
Cr1   O13   S    
C1    O3    A    
C38   C41   A    
N12   H84   S    
C38   H11   S    
C27   C30   A    
C19   C48   S    
C81   H30   S    
C9    H42   S    
C45   C48   A    
N2    H49   S    
O29   C101  S    
C98   H66   S    
C79   H28   S    
C9    H45   S    
C92   C95   S    
C65   C74   A    
C31   C37   A    
C91   N1    S    
C26   N8    S    
C25   C28   A    
Cr1   O10   S    
Cr5   O21   S    
N4    H52   S    
C35   O10   A    
C14   C89   S    
C20   O21   A    
C102  H76   S    
C24   O4    A    
C5    C8    S    
Cr3   O15   S    
C101  H75   S    
C7    C88   S    
C56   C71   A    
C83   C95   S    
Cr3   O9    S    
C82   H37   S    
C67   C91   S    
O28   C99   S    
C32   C44   A    
C49   C76   A    
Cr5   O23   S    
Cr4   O17   S    
C33   C39   A    
C22   C87   S    
C52   C58   A    
Cr5   O18   S    
Cr6   O6    S    
C44   H8    S    
C97   H65   S    
C4    C94   S    
C81   C90   S    
C69   H24   S    
C99   H69   S    
C93   C96   S    
C6    C96   S    
C23   O6    A    
Cr1   O1    S    
Cr3   O16   S    
C50   H26   S    
C41   H14   S    
N5    H55   S    
C69   C90   S    
C50   C77   A    
C62   H20   S    
C81   C84   S    
C20   O19   A    
N3    H50   S    
C101  C102  S    
C98   H68   S    
C11   C95   S    
Cr2   O8    S    
C59   C62   A    
C73   H16   S    
Cr5   O5    S    
C12   C87   T    
C29   C41   A    
C1    C17   S    
C8    H44   S    
C75   H18   S    
C47   C74   A    
C91   H1    S    
C25   N7    S    
Cr1   O7    S    
C9    C90   S    
C79   C82   S    
C63   H21   S    
C52   C55   A    
C42   H15   S    
C29   C56   A    
C102  H78   S    
C99   C100  S    
C93   N3    S    
C39   H12   S    
C35   C78   S    
C99   H70   S    
C5    N11   S    
C51   C54   A    
N7    H58   S    
C25   C76   A    
N4    H53   S    
C51   C78   A    
C102  H77   S    
C65   C71   A    
C45   H9    S    
C61   C64   A    
C15   C90   S    
C101  H74   S    
C84   H39   S    
Cr6   O22   S    
C21   O22   A    
C66   C75   A    
C13   C88   S    
Cr4   O20   S    
C3    O9    A    
C68   C92   S    
C8    H41   S    
C7    H40   S    
C57   C72   A    
C82   H34   S    
N6    H56   S    
C43   C46   A    
N1    H47   S    
C55   C70   A    
C92   N2    S    
C92   H2    S    
N11   H81   S    
N8    H60   S    
C26   C29   A    
N2    H48   S    
C23   C85   S    
C13   C16   T    
N12   H83   S    
C21   O17   A    
C10   C94   S    
C30   C42   A    
N9    H63   S    
C8    C89   S    
C19   O18   A    
C68   C89   S    
N5    H54   S    
C60   O29   S    
C24   C86   S    
C68   H23   S    
Cr2   O2    S    
C46   C73   A    
C20   C46   S    
C3    C16   S    
C59   O28   S    
N7    H59   S    
C21   C47   S    
C54   C57   A    
C34   O13   A    
