data_mof_unit_57971.cif
_audit_creation_date              2012-10-26T17:11:03-0400
_audit_creation_method            fapswitch 2.2
_symmetry_space_group_name_H-M    P1
_symmetry_Int_Tables_number       1
_space_group_crystal_system       triclinic
_cell_length_a                    27.864969
_cell_length_b                    18.679415
_cell_length_c                    16.881412
_cell_angle_alpha                 89.852365
_cell_angle_beta                  63.294296
_cell_angle_gamma                 89.853783
_cell_volume                      7849.44453996

loop_
_atom_site_label
_atom_site_type_symbol
_atom_type_description
_atom_site_fract_x
_atom_site_fract_y
_atom_site_fract_z
_atom_type_partial_charge
C1    C     C_R   0.296433 0.731845 0.328564 0.577774
C2    C     C_R   0.452174 0.130770 0.485164 0.149200
C3    C     C_R   0.925685 0.095975 0.066954 0.586856
C4    C     C_R   0.424648 0.405844 0.067802 0.583427
C5    C     C_R   0.575547 0.593851 0.931840 0.563335
C6    C     C_R   0.574953 0.405084 0.932569 0.581355
C7    C     C_R   0.426112 0.596649 0.066732 0.585089
C8    C     C_R   0.039419 0.501468 0.537174 -0.047858
C9    C     C_R   0.953957 0.500923 0.489946 -0.052633
C10   C     C_R   0.539890 0.000455 0.534674 -0.047404
C11   C     C_R   0.454423 0.001024 0.486913 -0.051136
C12   C     C_R   0.019050 0.567366 0.522630 0.054842
C13   C     C_R   0.442443 0.873381 0.511215 0.149459
C14   C     C_R   0.977222 0.435596 0.497744 0.044310
C15   C     C_R   0.973210 0.566911 0.505942 0.057429
C16   C     C_R   0.015583 0.436008 0.532666 0.046488
C17   C     C_R   0.521004 0.066539 0.516437 0.051047
C18   C     C_R   0.472156 0.935428 0.507938 0.062714
C19   C     C_R   0.476814 0.066965 0.495194 0.050344
C20   C     C_R   0.516605 0.934523 0.528382 0.057644
C21   C     C_R   0.107934 0.435331 0.562377 0.002413
C22   C     C_R   0.886381 0.565371 0.461064 -0.009880
C23   C     C_R   0.889327 0.435113 0.454683 0.004424
C24   C     C_R   0.549430 0.129414 0.516103 0.106187
C25   C     C_R   0.110606 0.565742 0.555004 0.001352
C26   C     C_R   0.609508 0.934945 0.558339 0.003777
C27   C     C_R   0.388054 0.065551 0.453824 -0.007272
C28   C     C_R   0.385374 0.935683 0.463135 0.001654
C29   C     C_R   0.610908 0.065232 0.553542 0.001502
C30   C     C_R   0.162608 0.434443 0.549403 0.019076
C31   C     C_R   0.835526 0.565185 0.459775 0.004092
C32   C     C_R   0.836679 0.434585 0.457709 0.016700
C33   C     C_R   0.163779 0.565349 0.546656 0.004971
C34   C     C_R   0.663093 0.934533 0.549099 0.011264
C35   C     C_R   0.027154 0.375329 0.572201 0.116216
C36   C     C_R   0.336296 0.065642 0.455388 0.008797
C37   C     C_R   0.335005 0.935236 0.460198 0.004039
C38   C     C_R   0.663685 0.065286 0.547153 0.003147
C39   C     C_R   0.188821 0.499682 0.543153 -0.132705
C40   C     C_R   0.811560 0.499809 0.459087 -0.135259
C41   C     C_R   0.688545 0.999826 0.545604 -0.129693
C42   C     C_R   0.311512 0.000405 0.456292 -0.131233
C43   C     C_R   0.086255 0.500730 0.550890 -0.044091
C44   C     C_R   0.909326 0.500275 0.469876 -0.050768
C45   C     C_R   0.586864 0.000075 0.548689 -0.041191
C46   C     C_R   0.945921 0.629890 0.502874 0.152474
C47   C     C_R   0.409015 0.000938 0.468458 -0.046692
C48   C     C_R   0.578523 0.872534 0.572080 0.200937
C49   C     C_R   0.418259 0.128033 0.444486 0.272228
C50   C     C_R   0.412603 0.872795 0.463871 0.222300
C51   C     C_R   0.582584 0.128408 0.557729 0.236285
C52   C     C_R   0.071944 0.376259 0.591791 0.211656
C53   C     C_R   0.914325 0.628685 0.458387 0.266124
C54   C     C_R   0.925353 0.375925 0.430985 0.226905
C55   C     C_R   0.081558 0.629098 0.562407 0.235381
C56   C     C_R   0.966913 0.374394 0.458284 0.116051
C57   C     C_R   0.046093 0.630905 0.524917 0.106008
C58   C     C_R   0.211896 0.749547 0.959318 0.106139
C59   C     C_R   0.773556 0.220821 0.049199 0.092913
C60   C     C_R   0.781856 0.761450 0.045088 0.101377
C61   C     C_R   0.704518 0.270493 0.670693 0.585987
C62   C     C_R   0.219378 0.235433 0.954699 0.093793
C63   C     C_R   0.710703 0.247461 0.959769 0.105735
C64   C     C_R   0.274994 0.723659 0.048571 0.092396
C65   C     C_R   0.281329 0.262118 0.045475 0.102304
C66   C     C_R   0.720008 0.734325 0.954329 0.090674
C67   C     C_R   0.267124 0.764875 0.918399 -0.081743
C68   C     C_R   0.718394 0.204788 0.089787 -0.076890
C69   C     C_R   0.804576 0.725381 0.963780 -0.067401
C70   C     C_R   0.196170 0.268977 0.037674 -0.086749
C71   C     C_R   0.765971 0.262479 0.918991 -0.081630
C72   C     C_R   0.705056 0.728872 0.670485 0.611224
C73   C     C_R   0.219874 0.707367 0.089290 -0.077512
C74   C     C_R   0.304536 0.228550 0.962505 -0.078536
C75   C     C_R   0.697226 0.770127 0.035839 -0.081542
C76   C     C_R   0.298754 0.752094 0.962117 0.119205
C77   C     C_R   0.686746 0.218381 0.045935 0.131188
C78   C     C_R   0.773846 0.710741 0.918838 0.133949
C79   C     C_R   0.226840 0.283080 0.082860 0.133398
C80   C     C_R   0.797481 0.249343 0.962798 0.122521
C81   C     C_R   0.188113 0.720571 0.045543 0.131984
C82   C     C_R   0.273841 0.214328 0.917388 0.136757
C83   C     C_R   0.295147 0.271106 0.329485 0.585876
C84   C     C_R   0.727852 0.784331 0.081070 0.132485
C85   C     C_R   0.139876 0.820185 0.947192 -0.158931
C86   C     C_R   0.848439 0.160171 0.062923 -0.156224
C87   C     C_R   0.856465 0.826370 0.055090 -0.179898
C88   C     C_R   0.144311 0.171952 0.944060 -0.172976
C89   C     C_R   0.639167 0.319098 0.947518 -0.159325
C90   C     C_R   0.349911 0.662860 0.062160 -0.158115
C91   C     C_R   0.356085 0.326965 0.055349 -0.181781
C92   C     C_R   0.644990 0.670841 0.943605 -0.164388
C93   C     C_R   0.119933 0.854198 0.894003 0.021600
C94   C     C_R   0.796129 0.231205 0.328585 0.588241
C95   C     C_R   0.880202 0.146296 0.106019 0.021754
C96   C     C_R   0.878825 0.856490 0.106946 0.025925
C97   C     C_R   0.121573 0.142800 0.892131 -0.000903
C98   C     C_R   0.619677 0.353803 0.894141 0.021273
C99   C     C_R   0.381410 0.648239 0.105589 0.021691
C100  C     C_R   0.378655 0.356784 0.107071 0.025767
C101  C     C_R   0.621835 0.642385 0.891939 -0.000351
C102  C     C_R   0.145273 0.842848 0.802368 0.049165
C103  C     C_R   0.866252 0.176178 0.189465 0.031972
C104  C     C_R   0.854555 0.843723 0.198269 0.045704
C105  C     C_R   0.204595 0.770617 0.670683 0.590364
C106  C     C_R   0.146297 0.156162 0.800430 0.056424
C107  C     C_R   0.645205 0.342688 0.802450 0.049434
C108  C     C_R   0.367473 0.678116 0.189341 0.040285
C109  C     C_R   0.354470 0.343926 0.198365 0.046148
C110  C     C_R   0.646293 0.656168 0.800340 0.061865
C111  C     C_R   0.180807 0.784303 0.767042 -0.002528
C112  C     C_R   0.819495 0.218559 0.231242 -0.003603
C113  C     C_R   0.817965 0.786363 0.233609 -0.000996
C114  C     C_R   0.182976 0.212989 0.766138 0.043630
C115  C     C_R   0.680495 0.283897 0.767111 -0.002831
C116  C     C_R   0.205163 0.228624 0.670418 0.627633
C117  C     C_R   0.320516 0.720267 0.231010 -0.007244
C118  C     C_R   0.317890 0.286566 0.233666 0.001321
C119  C     C_R   0.683067 0.712944 0.766114 0.031959
C120  C     C_R   0.195403 0.743290 0.824356 0.224485
C121  C     C_R   0.793313 0.242599 0.180002 0.234740
C122  C     C_R   0.800854 0.748887 0.177143 0.263597
C123  C     C_R   0.200440 0.249587 0.822623 0.261289
C124  C     C_R   0.694535 0.242215 0.824540 0.222391
C125  C     C_R   0.294690 0.744895 0.179508 0.235326
C126  C     C_R   0.300712 0.249226 0.177216 0.265349
C127  C     C_R   0.795167 0.771051 0.329475 0.583475
C128  C     C_R   0.700899 0.748973 0.822549 0.194768
C129  C     C_R   0.180171 0.768273 0.911241 0.018918
C130  C     C_R   0.805647 0.208534 0.098274 0.004071
C131  C     C_R   0.814679 0.776815 0.091961 0.013923
C132  C     C_R   0.186572 0.220907 0.907496 0.007186
C133  C     C_R   0.679158 0.266785 0.911620 0.019137
C134  C     C_R   0.307218 0.711344 0.097474 0.004672
C135  C     C_R   0.314257 0.277447 0.092249 0.015006
C136  C     C_R   0.687273 0.719731 0.907063 0.012113
C137  C     C_R   0.196686 0.631612 0.527826 0.575387
C138  C     C_R   0.540549 0.870074 0.539126 0.127503
C139  C     C_R   0.803422 0.368491 0.473285 0.574227
C140  C     C_R   0.803110 0.631519 0.473707 0.567438
C141  C     C_R   0.196212 0.368195 0.528895 0.574257
C142  C     C_R   0.696594 0.131639 0.528176 0.568814
C143  C     C_R   0.302952 0.868643 0.474048 0.561096
C144  C     C_R   0.303541 0.131843 0.471768 0.571152
C145  C     C_R   0.696330 0.868183 0.528997 0.570465
C146  C     C_R   0.924705 0.905744 0.067756 0.582911
C147  C     C_R   0.075463 0.093986 0.931910 0.566201
C148  C     C_R   0.075013 0.905181 0.932527 0.581349
Cu1   Cu    Cu3+1 0.209920 0.785290 0.495070 1.124830
Cu2   Cu    Cu3+1 0.504760 0.500000 0.075850 1.025430
Cu3   Cu    Cu3+1 0.995240 0.000000 0.924150 1.018544
Cu4   Cu    Cu3+1 0.004760 0.000000 0.075850 1.025785
Cu5   Cu    Cu3+1 0.790080 0.214710 0.504930 1.074980
Cu6   Cu    Cu3+1 0.790080 0.785290 0.504930 1.110079
Cu7   Cu    Cu3+1 0.209920 0.214710 0.495070 1.095448
Cu8   Cu    Cu3+1 0.709920 0.285290 0.495070 1.128423
Cu9   Cu    Cu3+1 0.290080 0.714710 0.504930 1.037942
Cu10  Cu    Cu3+1 0.290080 0.285290 0.504930 1.117080
Cu11  Cu    Cu3+1 0.709920 0.714710 0.495070 1.095905
Cu12  Cu    Cu3+1 0.495240 0.500000 0.924150 1.013685
H1    H     H_    0.230311 0.499388 0.531733 0.166893
H2    H     H_    0.201434 0.684740 0.155496 0.139761
H3    H     H_    0.346321 0.212264 0.933466 0.145084
H4    H     H_    0.655853 0.788087 0.063631 0.147606
H5    H     H_    0.125743 0.836182 0.015710 0.165071
H6    H     H_    0.857282 0.133915 0.000662 0.163740
H7    H     H_    0.869948 0.843443 0.987003 0.155053
H8    H     H_    0.130780 0.154497 0.012018 0.155164
H9    H     H_    0.624923 0.334833 0.016148 0.164827
H10   H     H_    0.358701 0.636753 0.999835 0.163271
H11   H     H_    0.369467 0.344222 0.987354 0.151417
H12   H     H_    0.771672 0.499698 0.463005 0.171917
H13   H     H_    0.631636 0.653104 0.011418 0.155128
H14   H     H_    0.599138 0.727893 0.562545 0.324711
H15   H     H_    0.506256 0.220599 0.241029 0.368982
H16   H     H_    0.400706 0.722844 0.431888 0.341642
H17   H     H_    0.482886 0.210022 0.679491 0.348923
H18   H     H_    0.093098 0.232025 0.582809 0.329141
H19   H     H_    0.011333 0.717404 0.258570 0.367376
H20   H     H_    0.904595 0.233079 0.439682 0.335197
H21   H     H_    0.983908 0.712708 0.690611 0.349691
H22   H     H_    0.519102 0.765022 0.554482 0.282594
H23   H     H_    0.729552 0.999686 0.536659 0.172899
H24   H     H_    0.570572 0.786252 0.455096 0.230029
H25   H     H_    0.412058 0.203347 0.581129 0.230561
H26   H     H_    0.462246 0.238240 0.489203 0.292691
H27   H     H_    0.428072 0.771862 0.558492 0.266223
H28   H     H_    0.388686 0.834418 0.629594 0.219526
H29   H     H_    0.596280 0.184762 0.405086 0.246955
H30   H     H_    0.551622 0.235373 0.487813 0.270023
H31   H     H_    0.967659 0.320037 0.672611 0.281765
H32   H     H_    0.008855 0.269064 0.584383 0.262495
H33   H     H_    0.900422 0.690617 0.609198 0.209812
H34   H     H_    0.272012 0.000432 0.458652 0.174260
H35   H     H_    0.947068 0.736724 0.523775 0.287392
H36   H     H_    0.028275 0.315217 0.365648 0.287741
H37   H     H_    0.982947 0.267480 0.454067 0.263055
H38   H     H_    0.085203 0.699415 0.423319 0.250313
H39   H     H_    0.037687 0.738181 0.515079 0.268938
H40   H     H_    0.114276 0.732514 0.147581 0.238199
H41   H     H_    0.128041 0.649265 0.104092 0.270754
H42   H     H_    0.856815 0.321965 0.905376 0.262819
H43   H     H_    0.871736 0.239031 0.861045 0.247141
H44   H     H_    0.670165 0.796407 0.206885 0.272858
H45   H     H_    0.285615 0.788335 0.852615 0.123260
H46   H     H_    0.692282 0.873545 0.149733 0.243127
H47   H     H_    0.310246 0.126523 0.846206 0.239004
H48   H     H_    0.331757 0.204624 0.791316 0.268025
H49   H     H_    0.612918 0.230671 0.147885 0.243418
H50   H     H_    0.626383 0.147451 0.104281 0.273142
H51   H     H_    0.357936 0.824843 0.904330 0.267329
H52   H     H_    0.372952 0.741844 0.860228 0.255649
H53   H     H_    0.169124 0.292232 0.209130 0.267253
H54   H     H_    0.190054 0.370579 0.154452 0.239533
H55   H     H_    0.806672 0.619163 0.854031 0.248771
H56   H     H_    0.699827 0.182195 0.156010 0.138497
H57   H     H_    0.832595 0.694218 0.794827 0.238270
H58   H     H_    0.174444 0.913501 0.698032 0.223780
H59   H     H_    0.113964 0.873402 0.718360 0.304670
H60   H     H_    0.886597 0.131060 0.281667 0.273929
H61   H     H_    0.912798 0.215952 0.242874 0.345891
H62   H     H_    0.828399 0.913437 0.303317 0.232358
H63   H     H_    0.888178 0.869415 0.280500 0.296752
H64   H     H_    0.142185 0.055347 0.755788 0.242691
H65   H     H_    0.101042 0.118409 0.741707 0.307078
H66   H     H_    0.674931 0.413496 0.698321 0.224029
H67   H     H_    0.845913 0.707283 0.936126 0.147767
H68   H     H_    0.614349 0.374048 0.718119 0.302949
H69   H     H_    0.386441 0.628734 0.280258 0.262308
H70   H     H_    0.410641 0.715147 0.251878 0.321648
H71   H     H_    0.328460 0.413512 0.303521 0.231245
H72   H     H_    0.388231 0.369383 0.280461 0.297575
H73   H     H_    0.641662 0.555723 0.755178 0.243002
H74   H     H_    0.600503 0.619398 0.742085 0.306865
H75   H     H_    0.238196 0.565160 0.860067 0.388301
H76   H     H_    0.667320 0.341695 0.294296 0.367534
H77   H     H_    0.753031 0.575424 0.138897 0.387585
H78   H     H_    0.154413 0.285383 0.066643 0.143337
H79   H     H_    0.317048 0.366759 0.712065 0.364995
H80   H     H_    0.735639 0.062968 0.860006 0.394754
H81   H     H_    0.168545 0.843891 0.292590 0.367238
H82   H     H_    0.254464 0.075152 0.137597 0.387478
H83   H     H_    0.807161 0.774913 0.710138 0.328049
H84   H     H_    0.784581 0.286060 0.853280 0.124609
N1    N     N_3   0.533252 0.803368 0.504031 -0.567407
N2    N     N_3   0.853401 0.267358 0.920671 -0.580467
N3    N     N_3   0.704507 0.823691 0.162502 -0.611452
N4    N     N_3   0.297590 0.176550 0.834809 -0.607729
N5    N     N_3   0.630591 0.201970 0.088481 -0.587228
N6    N     N_3   0.354638 0.770270 0.919781 -0.576350
N7    N     N_3   0.203049 0.320689 0.165552 -0.611653
N8    N     N_3   0.796767 0.669634 0.838748 -0.643906
N9    N     N_3   0.137399 0.894997 0.746337 -0.603538
N10   N     N_3   0.902307 0.166392 0.227988 -0.542614
N11   N     N_3   0.864604 0.893447 0.254103 -0.589888
N12   N     N_3   0.451473 0.194671 0.532674 -0.611603
N13   N     N_3   0.138335 0.108644 0.740355 -0.587719
N14   N     N_3   0.637738 0.395236 0.746422 -0.603649
N15   N     N_3   0.402636 0.666818 0.229647 -0.549881
N16   N     N_3   0.364627 0.393525 0.254200 -0.591063
N17   N     N_3   0.637864 0.609182 0.740274 -0.585398
N18   N     N_3   0.428114 0.823297 0.582792 -0.588010
N19   N     N_3   0.556616 0.186569 0.454860 -0.573340
N20   N     N_3   0.988769 0.318016 0.603624 -0.597271
N21   N     N_3   0.940289 0.689276 0.560137 -0.615544
N22   N     N_3   0.004114 0.315535 0.434028 -0.597182
N23   N     N_3   0.046338 0.693017 0.474577 -0.565484
N24   N     N_3   0.132024 0.703769 0.088219 -0.587408
O1    O     O_R   0.255040 0.869590 0.478480 -0.508116
O2    O     O_R   0.817950 0.203450 0.375560 -0.513818
O3    O     O_R   0.817950 0.796550 0.375560 -0.496070
O4    O     O_R   0.182050 0.203450 0.624440 -0.455558
O5    O     O_R   0.682050 0.296550 0.624440 -0.490584
O6    O     O_R   0.317950 0.703450 0.375560 -0.544991
O7    O     O_R   0.317950 0.296550 0.375560 -0.494922
O8    O     O_R   0.682050 0.703450 0.624440 -0.443286
O9    O     O_R   0.250530 0.763330 0.367210 -0.431910
O10   O     O_R   0.749470 0.236670 0.632790 -0.455969
O11   O     O_R   0.749470 0.763330 0.632790 -0.502751
O12   O     O_R   0.744960 0.130410 0.521520 -0.503534
O13   O     O_R   0.250530 0.236670 0.367210 -0.448654
O14   O     O_R   0.750530 0.263330 0.367210 -0.436699
O15   O     O_R   0.249470 0.736670 0.632790 -0.456455
O16   O     O_R   0.249470 0.263330 0.632790 -0.455177
O17   O     O_R   0.750530 0.736670 0.367210 -0.449472
O18   O     O_R   0.177260 0.690030 0.513710 -0.474938
O19   O     O_R   0.822740 0.309970 0.486290 -0.514514
O20   O     O_R   0.822740 0.690030 0.486290 -0.483160
O21   O     O_R   0.177260 0.309970 0.513710 -0.525027
O22   O     O_R   0.677260 0.190030 0.513710 -0.477650
O23   O     O_R   0.744960 0.869590 0.521520 -0.503054
O24   O     O_R   0.322740 0.809970 0.486290 -0.530523
O25   O     O_R   0.322740 0.190030 0.486290 -0.478687
O26   O     O_R   0.677260 0.809970 0.513710 -0.527946
O27   O     O_R   0.051640 0.926880 0.885090 -0.470149
O28   O     O_R   0.948360 0.073120 0.114910 -0.465222
O29   O     O_R   0.948360 0.926880 0.114910 -0.473628
O30   O     O_R   0.051640 0.073120 0.885090 -0.508793
O31   O     O_R   0.551640 0.426880 0.885090 -0.470250
O32   O     O_R   0.448360 0.573120 0.114910 -0.465697
O33   O     O_R   0.448360 0.426880 0.114910 -0.474000
O34   O     O_R   0.255040 0.130410 0.478480 -0.505689
O35   O     O_R   0.551640 0.573120 0.885090 -0.509663
O36   O     O_R   0.940620 0.926560 0.986760 -0.521855
O37   O     O_R   0.059380 0.073440 0.013240 -0.509676
O38   O     O_R   0.059380 0.926560 0.013240 -0.528367
O39   O     O_R   0.940620 0.073440 0.986760 -0.516255
O40   O     O_R   0.440620 0.426560 0.986760 -0.522816
O41   O     O_R   0.559380 0.573440 0.013240 -0.508749
O42   O     O_R   0.559380 0.426560 0.013240 -0.528218
O43   O     O_R   0.440620 0.573440 0.986760 -0.516966
O44   O     O_2   0.603669 0.832693 0.703637 -0.225418
O45   O     O_R   0.755040 0.369590 0.478480 -0.509950
O46   O     O_2   0.510737 0.819657 0.729244 -0.225187
O47   O     O_3   0.579415 0.726951 0.628002 -0.503268
O48   O     O_2   0.405066 0.165637 0.300379 -0.247063
O49   O     O_2   0.417222 0.262734 0.387762 -0.307160
O50   O     O_3   0.500032 0.185916 0.289163 -0.507798
O51   O     O_2   0.410948 0.834525 0.311453 -0.269630
O52   O     O_2   0.498084 0.842160 0.312466 -0.218147
O53   O     O_3   0.438568 0.733203 0.390329 -0.514530
O54   O     O_2   0.595088 0.170051 0.700665 -0.208639
O55   O     O_2   0.580718 0.264372 0.612226 -0.306304
O56   O     O_R   0.244960 0.630410 0.521520 -0.502711
O57   O     O_3   0.499605 0.185648 0.713094 -0.485252
O58   O     O_2   0.114696 0.336464 0.702501 -0.228532
O59   O     O_2   0.018010 0.329898 0.759190 -0.235448
O60   O     O_3   0.074721 0.232386 0.648416 -0.510722
O61   O     O_2   0.909883 0.666237 0.306824 -0.245036
O62   O     O_2   0.919380 0.763024 0.397145 -0.300465
O63   O     O_3   0.002116 0.682750 0.307767 -0.506458
O64   O     O_2   0.892141 0.336909 0.308560 -0.257884
O65   O     O_2   0.987455 0.329369 0.266342 -0.249784
O66   O     O_3   0.926342 0.232809 0.374503 -0.538893
O67   O     O_R   0.244960 0.369590 0.521520 -0.510686
O68   O     O_2   0.098321 0.668608 0.702173 -0.208199
O69   O     O_2   0.082162 0.764446 0.617453 -0.308842
O70   O     O_3   0.001583 0.686206 0.721231 -0.482832
O71   O     O_2   0.208672 0.618564 0.736474 -0.208512
O72   O     O_2   0.288137 0.670507 0.741492 -0.308208
O73   O     O_3   0.216354 0.609069 0.883218 -0.496450
O74   O     O_2   0.770851 0.373268 0.256703 -0.216106
O75   O     O_2   0.752450 0.356714 0.129885 -0.273607
O76   O     O_3   0.687979 0.296339 0.278408 -0.551033
O77   O     O_2   0.787481 0.621312 0.259769 -0.220941
O78   O     O_R   0.755040 0.630410 0.478480 -0.501577
O79   O     O_2   0.707374 0.678100 0.261833 -0.287125
O80   O     O_3   0.776071 0.618322 0.116171 -0.516260
O81   O     O_2   0.212798 0.378279 0.743185 -0.214964
O82   O     O_2   0.228562 0.373518 0.874072 -0.278494
O83   O     O_3   0.300882 0.318473 0.728133 -0.534127
O84   O     O_2   0.707337 0.118050 0.735794 -0.210046
O85   O     O_2   0.786834 0.168416 0.742220 -0.299625
O86   O     O_3   0.714168 0.107162 0.883175 -0.495017
O87   O     O_2   0.271790 0.874869 0.257969 -0.223430
O88   O     O_2   0.254610 0.859839 0.129646 -0.272911
O89   O     O_R   0.182050 0.796550 0.624440 -0.485965
O90   O     O_3   0.189212 0.798540 0.276865 -0.548428
O91   O     O_2   0.288762 0.121308 0.258432 -0.220541
O92   O     O_2   0.207910 0.176838 0.261915 -0.287183
O93   O     O_3   0.276838 0.118658 0.115216 -0.515235
O94   O     O_2   0.715473 0.876997 0.739274 -0.196763
O95   O     O_2   0.722585 0.874836 0.877739 -0.244870
O96   O     O_3   0.801611 0.822404 0.738707 -0.488306
S1    S     S_3+6 0.568376 0.813031 0.661022 0.060382
S2    S     S_3+6 0.751458 0.320575 0.210281 0.039956
S3    S     S_3+6 0.766521 0.665105 0.207096 0.055223
S4    S     S_3+6 0.235110 0.333193 0.792863 0.052962
S5    S     S_3+6 0.727183 0.157393 0.792929 0.057657
S6    S     S_3+6 0.252886 0.822891 0.210106 0.038357
S7    S     S_3+6 0.267133 0.164928 0.206573 0.056446
S8    S     S_3+6 0.734616 0.833488 0.794636 0.073807
S9    S     S_3+6 0.433319 0.187700 0.354184 0.038344
S10   S     S_3+6 0.440333 0.820863 0.365988 0.054813
S11   S     S_3+6 0.566148 0.189273 0.646854 0.054762
S12   S     S_3+6 0.070504 0.319035 0.677985 0.047050
S13   S     S_3+6 0.934873 0.687337 0.365876 0.043796
S14   S     S_3+6 0.932448 0.319080 0.341986 0.016014
S15   S     S_3+6 0.067665 0.689211 0.651586 0.051835
S16   S     S_3+6 0.228600 0.658791 0.792895 0.052264

loop_
_geom_bond_atom_site_label_1
_geom_bond_atom_site_label_2
_ccdc_geom_bond_type
C28   C47   A    
C78   N8    S    
C61   O10   A    
C36   C42   A    
C76   N6    S    
C137  O56   A    
H81   O90   S    
Cu11  O17   S    
C7    C99   S    
C124  C133  A    
C107  N14   S    
Cu3   O27   S    
C63   C133  S    
Cu4   O28   S    
C3    O28   A    
O83   S4    S    
C16   C35   A    
C90   C134  A    
C62   C70   A    
H24   N1    S    
O79   S3    D    
H37   N22   S    
C85   C129  A    
H74   N17   S    
C87   H7    S    
C113  C122  A    
C33   C137  S    
C88   H8    S    
C61   C115  S    
C81   N24   S    
H57   N8    S    
C91   C100  A    
H50   N5    S    
C88   C97   A    
C67   H45   S    
C94   O14   A    
C119  C128  A    
C24   C51   A    
Cu10  O16   S    
C70   C79   A    
C100  C109  A    
C8    C16   A    
C53   S13   S    
Cu7   O21   S    
Cu7   Cu10  S    
C102  C111  A    
C73   C81   A    
C109  C118  A    
C5    C101  S    
O49   S9    D    
C62   C132  S    
C32   C139  S    
H22   N1    S    
Cu9   O6    S    
H18   O60   S    
Cu12  O40   S    
C101  C110  A    
C7    O32   A    
C121  S2    S    
C29   C45   A    
Cu5   O10   S    
C35   N20   S    
O91   S7    D    
H32   N20   S    
C1    O9    A    
H16   O53   S    
C147  O30   A    
H17   O57   S    
Cu5   Cu8   S    
Cu4   O29   S    
C65   C135  S    
C66   C136  S    
O59   S12   D    
C63   C71   A    
C84   N3    S    
Cu7   O34   S    
O85   S5    D    
H73   N17   S    
C21   C30   A    
C68   C77   A    
C2    C19   A    
C25   C55   A    
C59   C80   A    
C48   C138  A    
O77   S3    D    
C91   H11   S    
C102  N9    S    
C85   H5    S    
Cu11  O78   S    
C36   C144  S    
C89   H9    S    
H38   N23   S    
H43   N2    S    
C46   N21   S    
Cu10  O67   S    
C46   C53   A    
C105  O15   A    
C82   N4    S    
C9    C15   A    
Cu12  O35   S    
C86   C95   A    
C58   C67   A    
H70   N15   S    
H54   N7    S    
C103  N10   S    
C75   H4    S    
C3    C95   S    
C140  O78   A    
H64   N13   S    
C11   C18   A    
C65   C79   A    
C123  C132  A    
O46   S1    D    
C127  O17   A    
H36   N22   S    
H75   O73   S    
C121  C130  A    
C25   C43   A    
H25   N12   S    
Cu7   O4    S    
Cu10  O7    S    
H79   O83   S    
C99   C108  A    
C30   C141  S    
Cu5   O12   S    
C52   S12   S    
Cu6   O11   S    
C71   H84   S    
C6    O31   A    
H68   N14   S    
C75   C84   A    
C58   C129  S    
Cu6   O23   S    
C37   C42   A    
Cu2   O33   S    
O52   S10   D    
O73   S16   S    
C87   C131  A    
C126  S7    S    
Cu3   O36   S    
C26   C45   A    
C85   C93   A    
C110  N17   S    
H60   N10   S    
C29   C38   A    
Cu5   O19   S    
C64   C73   A    
Cu6   O20   S    
Cu1   O9    S    
C56   N22   S    
H15   O50   S    
Cu2   O42   S    
C127  O3    A    
C97   C147  S    
C83   O7    A    
C95   C103  A    
C128  S8    S    
C89   C133  A    
C120  C129  A    
C38   C41   A    
C123  S4    S    
C142  O12   A    
O51   S10   D    
C86   C130  A    
C65   C74   A    
C120  S16   S    
H30   N19   S    
Cu7   O13   S    
H48   N4    S    
Cu12  O43   S    
C8    C12   A    
C10   C45   A    
Cu8   O22   S    
C1    C117  S    
C5    O35   A    
C1    O6    A    
C4    O40   A    
H20   O66   S    
C114  C123  A    
C5    O41   A    
O61   S13   D    
Cu4   O38   S    
O71   S16   D    
C80   N2    S    
C12   C57   A    
H52   N6    S    
C90   C99   A    
C29   C51   A    
C27   C47   A    
C148  O27   A    
H59   N9    S    
C143  O1    A    
C108  C117  A    
Cu10  O25   S    
C105  O89   A    
C110  C119  A    
C114  C116  S    
O72   S16   D    
C96   C146  S    
Cu9   O15   S    
C89   C98   A    
H31   N20   S    
C48   S1    S    
C54   S14   S    
C112  C121  A    
H77   O80   S    
Cu8   O14   S    
C60   C69   A    
C24   N19   S    
C94   C112  S    
C30   C39   A    
H53   N7    S    
C62   C82   A    
O66   S14   S    
H44   N3    S    
C13   C50   A    
C143  O24   A    
H40   N24   S    
O62   S13   D    
C108  N15   S    
C70   H78   S    
C15   C46   A    
C31   C140  S    
C117  C125  A    
C27   C49   A    
C25   C33   A    
O68   S15   D    
C146  O36   A    
C125  C134  A    
C142  O22   A    
Cu1   O18   S    
C122  C131  A    
C11   C47   A    
Cu5   O2    S    
C86   H6    S    
C8    C43   A    
H66   N14   S    
O87   S6    D    
O75   S2    D    
H62   N11   S    
C11   C19   A    
H76   O76   S    
C104  N11   S    
Cu2   Cu12  S    
O69   S15   D    
Cu11  O8    S    
C6    C98   S    
O74   S2    D    
Cu12  O31   S    
C145  O26   A    
C128  C136  A    
C94   O2    A    
C31   C40   A    
C93   C148  S    
C13   C18   A    
C20   C138  A    
O50   S9    S    
O65   S14   D    
C139  O45   A    
C106  N13   S    
Cu3   Cu4   S    
H14   O47   S    
C13   N18   S    
C26   C48   A    
C105  C111  S    
O63   S13   S    
Cu8   O45   S    
Cu9   O24   S    
C92   C136  A    
C34   C41   A    
C74   C82   A    
H42   N2    S    
C60   C131  S    
H82   O93   S    
C64   C134  S    
C66   C78   A    
C58   C81   A    
C148  O38   A    
O57   S11   S    
C23   C44   A    
C9    C14   A    
C73   H2    S    
O90   S6    S    
C12   C15   A    
C7    O43   A    
C144  O25   A    
Cu1   O89   S    
O60   S12   S    
C139  O19   A    
O48   S9    D    
C140  O20   A    
Cu8   O5    S    
C92   C101  A    
C97   C106  A    
C126  C135  A    
O54   S11   D    
H55   N8    S    
C116  O16   A    
C77   N5    S    
Cu6   O3    S    
O44   S1    D    
C40   H12   S    
C144  O34   A    
C115  C124  A    
C37   C143  S    
C72   O8    A    
C79   N7    S    
O93   S7    S    
C93   C102  A    
C51   S11   S    
O80   S3    S    
C27   C36   A    
H71   N16   S    
H27   N18   S    
C122  S3    S    
O64   S14   D    
C23   C32   A    
C109  N16   S    
Cu1   O1    S    
C138  N1    S    
C6    O42   A    
C66   C75   A    
O47   S1    S    
H51   N6    S    
C68   H56   S    
C55   S15   S    
O95   S8    D    
C98   C107  A    
O81   S4    D    
Cu6   Cu11  S    
C91   C135  A    
H72   N16   S    
C35   C52   A    
C61   O5    A    
C41   H23   S    
C116  O4    A    
Cu1   Cu9   S    
H49   N5    S    
C14   C56   A    
C59   C130  S    
Cu11  O26   S    
H47   N4    S    
C33   C39   A    
C106  C114  A    
C137  O18   A    
C83   C118  S    
C74   H3    S    
C34   C145  S    
C10   C17   A    
H28   N18   S    
H29   N19   S    
C42   H34   S    
C145  O23   A    
C21   C43   A    
C28   C50   A    
C26   C34   A    
C22   C44   A    
C28   C37   A    
C141  O67   A    
H41   N24   S    
C39   H1    S    
O76   S2    S    
C50   S10   S    
C38   C142  S    
C69   C78   A    
Cu3   O30   S    
C69   H67   S    
C71   C80   A    
H19   O63   S    
C22   C53   A    
C54   C56   A    
C17   C24   A    
H80   O86   S    
C22   C31   A    
O88   S6    D    
O58   S12   D    
O86   S5    S    
H39   N23   S    
Cu2   O32   S    
C104  C113  A    
O94   S8    D    
C111  C120  A    
H26   N12   S    
C83   O13   A    
C2    C49   A    
C59   C68   A    
O92   S7    D    
O53   S10   S    
C87   C96   A    
C90   H10   S    
C64   C76   A    
C55   C57   A    
C107  C115  A    
H69   N15   S    
Cu2   O41   S    
H35   N21   S    
C4    C100  S    
C14   C16   A    
O84   S5    D    
C88   C132  A    
O70   S15   S    
C23   C54   A    
C63   C77   A    
C146  O29   A    
H61   N10   S    
C9    C44   A    
C124  S5    S    
C49   S9    S    
H21   O70   S    
C2    N12   S    
C141  O21   A    
C113  C127  S    
C92   H13   S    
Cu9   O56   S    
C147  O37   A    
Cu3   O39   S    
C72   O11   A    
H33   N21   S    
O96   S8    S    
C96   C104  A    
H46   N3    S    
H65   N13   S    
C125  S6    S    
C60   C84   A    
C10   C20   A    
C72   C119  S    
O82   S4    D    
H83   O96   S    
C17   C19   A    
H58   N9    S    
C18   C20   A    
C4    O33   A    
C32   C40   A    
C103  C112  A    
H63   N11   S    
C57   N23   S    
Cu4   O37   S    
C3    O39   A    
C67   C76   A    
C118  C126  A    
O55   S11   D    
C21   C52   A    
