data_mof_unit_28336.cif
_audit_creation_date              2012-12-11T16:26:35-0500
_audit_creation_method            fapswitch 2.2
_symmetry_space_group_name_H-M    P1
_symmetry_Int_Tables_number       1
_space_group_crystal_system       triclinic
_cell_length_a                    6.937249
_cell_length_b                    17.565842
_cell_length_c                    19.436666
_cell_angle_alpha                 108.553213
_cell_angle_beta                  89.602278
_cell_angle_gamma                 90.661905
_cell_volume                      2245.26644635

loop_
_atom_site_label
_atom_site_type_symbol
_atom_type_description
_atom_site_fract_x
_atom_site_fract_y
_atom_site_fract_z
_atom_type_partial_charge
O1    O     O_R   0.494330 0.415720 0.413720 -0.535836
O2    O     O_R   0.819330 0.430070 0.560210 -0.549345
O3    O     O_R   0.994320 0.584280 0.586280 -0.535696
C1    C     C_R   0.649963 0.414051 0.581040 0.705317
O4    O     O_R   0.823730 0.406300 0.412670 -0.537780
O5    O     O_R   0.998760 0.560340 0.437690 -0.538846
C2    C     C_R   0.654809 0.383504 0.385009 0.699214
O6    O     O_R   0.489890 0.439660 0.562310 -0.538235
O7    O     O_3   0.662340 0.550560 0.508380 -0.368802
V1    V     V_3+5 0.935370 0.490620 0.498450 1.411254
O8    O     O_R   0.328750 0.569930 0.439790 -0.547191
C3    C     C_R   0.160793 0.585242 0.418311 0.706446
O9    O     O_R   0.324340 0.593700 0.587330 -0.539734
C4    C     C_R   0.155589 0.616191 0.615273 0.695361
V2    V     V_3+5 0.435940 0.509380 0.501550 1.411619
O10   O     O_3   0.159100 0.449440 0.491620 -0.367961
H1    H     H_    0.406084 0.862860 0.578070 0.114291
C5    C     C_R   0.000068 0.595308 0.747310 -0.188433
C6    C     C_R   0.915427 0.583521 0.808927 0.183789
C7    C     C_R   0.897744 0.648811 0.872259 -0.126098
C8    C     C_R   0.967809 0.724233 0.874999 -0.187053
C9    C     C_R   0.050019 0.737925 0.813115 0.069441
C10   C     C_R   0.064625 0.672312 0.747617 0.045008
C11   C     C_R   0.119561 0.815199 0.816027 -0.176586
C12   C     C_R   0.199313 0.827265 0.752783 0.069256
C13   C     C_R   0.211729 0.761909 0.686929 0.069314
C14   C     C_R   0.145450 0.684281 0.684352 -0.175515
C15   C     C_R   0.262337 0.904426 0.753118 -0.144883
C16   C     C_R   0.337592 0.916614 0.690801 -0.124995
C17   C     C_R   0.349343 0.852930 0.626574 -0.118355
C18   C     C_R   0.286163 0.776568 0.624204 -0.137997
H2    H     H_    0.014399 0.543547 0.699251 0.106430
H3    H     H_    0.831404 0.641294 0.920305 0.120222
H4    H     H_    0.956042 0.771437 0.926471 0.121199
H5    H     H_    0.252078 0.956550 0.801045 0.109564
H6    H     H_    0.385174 0.976027 0.692224 0.117818
H7    H     H_    0.294643 0.729695 0.572379 0.107390
C19   C     C_R   0.308394 0.634819 0.321964 -0.225272
C20   C     C_R   0.153464 0.634838 0.369163 -0.080632
C21   C     C_R   0.990362 0.681569 0.368420 -0.221691
C22   C     C_R   0.982140 0.728357 0.321803 0.089502
C23   C     C_R   0.136727 0.726857 0.273793 0.054141
C24   C     C_R   0.299791 0.679453 0.273555 0.089508
C25   C     C_R   0.822077 0.776711 0.322326 -0.187972
C26   C     C_R   0.813815 0.822325 0.275037 -0.191247
C27   C     C_R   0.965152 0.820240 0.226176 0.089402
C28   C     C_R   0.128192 0.772815 0.225918 0.054095
C29   C     C_R   0.282786 0.771324 0.177913 0.089674
C30   C     C_R   0.442807 0.722937 0.177364 -0.188293
C31   C     C_R   0.451085 0.677335 0.224666 -0.191396
C32   C     C_R   0.956634 0.864948 0.177832 -0.225580
C33   C     C_R   0.111602 0.864969 0.130664 -0.080293
C34   C     C_R   0.274632 0.818175 0.131346 -0.221442
H8    H     H_    0.434366 0.598924 0.321978 0.117737
H9    H     H_    0.870766 0.682349 0.404848 0.127208
H10   H     H_    0.702435 0.778869 0.359023 0.132938
H11   H     H_    0.688175 0.858862 0.276350 0.133933
H12   H     H_    0.830713 0.900887 0.177856 0.117785
H13   H     H_    0.394233 0.817411 0.094924 0.126689
H14   H     H_    0.562433 0.720768 0.140657 0.132409
H15   H     H_    0.576726 0.640798 0.223353 0.133785
C35   C     C_R   0.468073 0.185159 0.867035 -0.232692
C36   C     C_R   0.623952 0.135478 0.869730 -0.085021
C37   C     C_R   0.784370 0.132179 0.824143 -0.216063
C38   C     C_R   0.788094 0.176707 0.775504 0.085583
C39   C     C_R   0.631287 0.226477 0.773411 0.048576
C40   C     C_R   0.471240 0.230968 0.819641 0.092163
C41   C     C_R   0.944937 0.171788 0.728335 -0.186383
C42   C     C_R   0.947735 0.216559 0.680238 -0.187513
C43   C     C_R   0.793708 0.267005 0.678401 0.091327
C44   C     C_R   0.634034 0.271565 0.724765 0.056372
C45   C     C_R   0.476697 0.320910 0.722383 0.093438
C46   C     C_R   0.318663 0.324834 0.768633 -0.198886
C47   C     C_R   0.316214 0.280663 0.817151 -0.186020
C48   C     C_R   0.796729 0.313065 0.631165 -0.240995
C49   C     C_R   0.640978 0.363057 0.628896 -0.092230
C50   C     C_R   0.480300 0.365760 0.674095 -0.225527
H16   H     H_    0.344025 0.188433 0.902073 0.128223
H17   H     H_    0.904421 0.093642 0.825361 0.123990
H18   H     H_    0.066131 0.133606 0.728895 0.132335
H19   H     H_    0.071214 0.212111 0.644766 0.134424
H20   H     H_    0.920692 0.309980 0.596134 0.130420
H21   H     H_    0.360016 0.404236 0.672989 0.125977
H22   H     H_    0.195804 0.361321 0.766450 0.142490
H23   H     H_    0.191807 0.284631 0.852108 0.133815
H24   H     H_    0.848707 0.133728 0.426443 0.115459
C51   C     C_R   0.532474 0.406303 0.250872 -0.140053
C52   C     C_R   0.472568 0.419410 0.187335 -0.125046
C53   C     C_R   0.461410 0.355789 0.122950 -0.116852
C54   C     C_R   0.509940 0.278583 0.121619 -0.135039
C55   C     C_R   0.569314 0.263198 0.185457 0.068749
C56   C     C_R   0.580915 0.328432 0.251484 0.070929
C57   C     C_R   0.620683 0.184764 0.183969 -0.184932
C58   C     C_R   0.683739 0.171642 0.248574 0.070959
C59   C     C_R   0.695335 0.236876 0.314601 0.068565
C60   C     C_R   0.643958 0.315309 0.316092 -0.185078
C61   C     C_R   0.732247 0.093774 0.249180 -0.139977
C62   C     C_R   0.792229 0.080674 0.312709 -0.125079
C63   C     C_R   0.803376 0.144295 0.377095 -0.116607
C64   C     C_R   0.754759 0.221493 0.378435 -0.134816
H25   H     H_    0.541894 0.458033 0.299191 0.101744
H26   H     H_    0.435929 0.479376 0.187971 0.117874
H27   H     H_    0.416139 0.366363 0.073598 0.115438
H28   H     H_    0.501721 0.231475 0.069866 0.101695
H29   H     H_    0.722841 0.042041 0.200862 0.101794
H30   H     H_    0.828933 0.020712 0.312065 0.117929
H31   H     H_    0.762968 0.268598 0.430190 0.101937
O11   O     O_R   0.775200 0.060470 0.937800 -0.538759
O12   O     O_R   0.441110 0.093720 0.087350 -0.537712
O13   O     O_R   0.266330 0.939630 0.062280 -0.538888
C65   C     C_R   0.609975 0.116575 0.115045 0.699540
O14   O     O_R   0.445750 0.069950 0.939820 -0.548754
O15   O     O_R   0.271000 0.915700 0.913700 -0.536279
C66   C     C_R   0.615083 0.085481 0.918525 0.705935
O16   O     O_R   0.770530 0.084400 0.086380 -0.535999
O17   O     O_3   0.602830 0.949510 0.991680 -0.369227
V3    V     V_3+5 0.329710 0.009370 0.001550 1.412387
O18   O     O_R   0.940990 0.906170 0.912570 -0.539759
C67   C     C_R   0.109768 0.883387 0.884966 0.694114
O19   O     O_R   0.936350 0.929940 0.060100 -0.547668
C68   C     C_R   0.104305 0.914644 0.081588 0.706137
V4    V     V_3+5 0.829160 0.990450 0.998310 1.411498
O20   O     O_3   0.105910 0.050480 0.008320 -0.367877
C69   C     C_3   0.840165 0.501637 0.806514 -0.369062
C70   C     C_3   0.935322 0.471553 0.863544 -0.763198
H32   H     H_    0.094609 0.477289 0.861121 0.228761
H33   H     H_    0.884829 0.506360 0.918804 0.222972
H34   H     H_    0.896185 0.407419 0.853475 0.223584
H35   H     H_    0.681690 0.504510 0.815577 0.187274
H36   H     H_    0.867052 0.457084 0.752345 0.185003

loop_
_geom_bond_atom_site_label_1
_geom_bond_atom_site_label_2
_ccdc_geom_bond_type
C41   H18   S    
C51   C52   A    
C22   C23   A    
C57   C58   A    
C46   C47   A    
C59   C60   A    
C1    O6    A    
O14   C66   A    
C61   C62   A    
C34   H13   S    
O12   V3    S    
C26   C27   A    
O19   C68   A    
C12   C15   A    
C2    C60   S    
C16   H6    S    
C26   H11   S    
C13   C14   A    
C35   C36   A    
C30   H14   S    
O17   V4    S    
C35   C40   A    
C8    C9    A    
C15   C16   A    
O12   C65   A    
O13   C68   A    
O5    C3    A    
C17   C18   A    
C50   H21   S    
V2    O10   S    
C62   C63   A    
C56   C60   A    
O17   V3    S    
C5    C6    A    
O18   V4    S    
O11   C66   A    
O18   C67   A    
C45   C50   A    
C51   H25   S    
C36   C66   S    
O8    V2    S    
C39   C44   A    
C15   H5    S    
C41   C42   A    
C11   C67   S    
C70   H34   S    
C43   C44   A    
O1    V2    S    
C10   C14   A    
C4    C14   S    
O7    V1    S    
C46   H22   S    
C61   H29   S    
C52   C53   A    
C38   C41   A    
C39   C40   A    
C13   C18   A    
O16   V4    S    
O15   C67   A    
O9    C4    A    
C53   H27   S    
H1    C17   S    
C42   C43   A    
O13   V3    S    
O19   V4    S    
C29   C34   A    
C6    C69   S    
C32   C33   A    
C19   C20   A    
C49   C50   A    
C20   C21   A    
C32   H12   S    
C59   C64   A    
C8    H4    S    
C58   C61   A    
C12   C13   A    
C27   C32   A    
C18   H7    S    
O2    C1    A    
C48   C49   A    
C16   C17   A    
C55   C57   A    
C33   C68   S    
C25   H10   S    
C28   C29   A    
C19   H8    S    
C21   H9    S    
C69   H36   S    
C24   C31   A    
C40   C47   A    
C11   C12   A    
H24   C63   S    
C54   H28   S    
O3    C4    A    
C57   C65   S    
O15   V3    S    
C7    H3    S    
C21   C22   A    
C38   C39   A    
O6    V2    S    
O9    V2    S    
C70   H32   S    
C37   H17   S    
C9    C11   A    
C5    H2    S    
C23   C24   A    
O2    V1    S    
C55   C56   A    
C33   C34   A    
O4    C2    A    
C27   C28   A    
C29   C30   A    
C64   H31   S    
O1    C2    A    
C35   H16   S    
C25   C26   A    
O11   V4    S    
C45   C46   A    
O5    V1    S    
C52   H26   S    
O8    C3    A    
C48   H20   S    
V4    O20   S    
C62   H30   S    
C63   C64   A    
C37   C38   A    
C6    C7    A    
V3    O20   S    
O4    V1    S    
O3    V1    S    
V1    O10   S    
C54   C55   A    
O14   V3    S    
C3    C20   S    
C5    C10   A    
C22   C25   A    
C69   H35   S    
C23   C28   A    
C47   H23   S    
O7    V2    S    
C58   C59   A    
C1    C49   S    
C42   H19   S    
C36   C37   A    
C19   C24   A    
C44   C45   A    
C7    C8    A    
C30   C31   A    
C43   C48   A    
C70   H33   S    
C31   H15   S    
C9    C10   A    
C65   O16   A    
C53   C54   A    
C51   C56   A    
C69   C70   S    
