data_mof_unit_65163.cif
_audit_creation_date              2012-10-26T20:15:45-0400
_audit_creation_method            fapswitch 2.2
_symmetry_space_group_name_H-M    P1
_symmetry_Int_Tables_number       1
_space_group_crystal_system       triclinic
_cell_length_a                    15.996802
_cell_length_b                    14.765759
_cell_length_c                    27.842927
_cell_angle_alpha                 90.000566
_cell_angle_beta                  89.985812
_cell_angle_gamma                 89.999956
_cell_volume                      6576.63622903

loop_
_atom_site_label
_atom_site_type_symbol
_atom_type_description
_atom_site_fract_x
_atom_site_fract_y
_atom_site_fract_z
_atom_type_partial_charge
Br1   Br    Br    0.499952 0.113457 0.603588 -0.411039
Br2   Br    Br    0.500067 0.886543 0.396413 -0.411539
Br3   Br    Br    0.500039 0.113453 0.396413 -0.411665
Br4   Br    Br    0.499942 0.886547 0.603588 -0.411167
C1    C     C_R   0.340834 0.500000 0.500013 0.552012
C2    C     C_R   0.431535 0.464536 0.872581 0.026207
C3    C     C_R   0.500017 0.499998 0.354330 -0.003321
C4    C     C_R   0.499982 0.500002 0.645670 -0.003476
C5    C     C_R   0.429468 0.465841 0.974527 0.019833
C6    C     C_R   0.571705 0.531157 0.025554 0.019870
C7    C     C_R   0.570521 0.534172 0.974504 0.019833
C8    C     C_R   0.428293 0.468851 0.025578 0.019870
C9    C     C_R   0.499993 0.500007 0.949293 0.036249
C10   C     C_R   0.500001 0.500002 0.050789 0.036299
C11   C     C_R   0.362503 0.429168 0.947544 -0.133939
C12   C     C_R   0.659166 0.500000 0.499987 0.552011
C13   C     C_R   0.642605 0.557776 0.052536 -0.133881
C14   C     C_R   0.363597 0.428853 0.897682 -0.103758
C15   C     C_R   0.642071 0.556665 0.102399 -0.103816
C16   C     C_R   0.500013 0.499999 0.407213 0.547446
C17   C     C_R   0.499987 0.500000 0.592787 0.547394
C18   C     C_R   0.357397 0.442230 0.052583 -0.133881
C19   C     C_R   0.637482 0.570846 0.947499 -0.133939
C20   C     C_R   0.956377 0.582166 0.501266 -0.092202
C21   C     C_R   0.043623 0.417834 0.498731 -0.092197
C22   C     C_R   0.043621 0.582166 0.501273 -0.092630
C23   C     C_R   0.500005 0.499999 0.101888 -0.025552
C24   C     C_R   0.956379 0.417834 0.498724 -0.092625
C25   C     C_R   0.912788 0.500000 0.499992 0.038790
C26   C     C_R   0.087212 0.500000 0.500006 0.038794
C27   C     C_1   0.823334 0.500000 0.499987 -0.037530
C28   C     C_1   0.176665 0.500000 0.500011 -0.037528
C29   C     C_1   0.251713 0.500000 0.500013 -0.000629
C30   C     C_1   0.748287 0.500000 0.499986 -0.000629
C31   C     C_R   0.499977 0.951861 0.543625 0.163251
C32   C     C_R   0.500020 0.048138 0.456376 0.163317
C33   C     C_R   0.500025 0.951860 0.456376 0.163347
C34   C     C_R   0.499989 0.500008 0.898192 -0.025592
C35   C     C_R   0.499978 0.048140 0.543625 0.163281
C36   C     C_R   0.500001 0.902879 0.500000 -0.042702
C37   C     C_R   0.499999 0.097120 0.500000 -0.042702
C38   C     C_1   0.500000 0.802622 0.500000 0.244636
C39   C     C_1   0.499999 0.197378 0.500000 0.244636
C40   C     C_R   0.430099 0.472075 0.177947 0.404057
C41   C     C_R   0.567269 0.534686 0.822134 0.403801
C42   C     C_R   0.569924 0.527916 0.177923 0.404055
C43   C     C_R   0.432698 0.465330 0.822156 0.403799
C44   C     C_R   0.498116 0.417949 0.278751 -0.046155
C45   C     C_R   0.428873 0.471358 0.127523 0.026113
C46   C     C_R   0.497775 0.582041 0.721246 -0.046117
C47   C     C_R   0.498168 0.417849 0.328831 -0.126997
C48   C     C_R   0.497838 0.582137 0.671168 -0.127288
C49   C     C_R   0.501868 0.582147 0.328830 -0.126944
C50   C     C_R   0.502123 0.417869 0.671168 -0.127235
C51   C     C_R   0.501920 0.582043 0.278751 -0.046131
C52   C     C_R   0.502183 0.417968 0.721247 -0.046094
C53   C     C_R   0.500017 0.499996 0.253545 0.232076
C54   C     C_R   0.499979 0.500006 0.746481 0.230861
C55   C     C_R   0.568438 0.535481 0.872558 0.026210
C56   C     C_R   0.357939 0.443335 0.102446 -0.103816
C57   C     C_R   0.636381 0.571164 0.897637 -0.103758
C58   C     C_R   0.571142 0.528638 0.127499 0.026112
Cu1   Cu    Cu3+1 0.500000 0.589220 0.500000 1.057195
Cu2   Cu    Cu3+1 0.500000 0.410780 0.500000 1.057195
H1    H     H_    0.503301 0.646451 0.347523 0.173040
H2    H     H_    0.496862 0.354278 0.259466 0.151993
H3    H     H_    0.310602 0.400135 0.878836 0.173048
H4    H     H_    0.697981 0.577926 0.121245 0.172862
H5    H     H_    0.308330 0.398581 0.963714 0.116899
H6    H     H_    0.700566 0.578677 0.036365 0.116708
H7    H     H_    0.299433 0.421332 0.036431 0.116708
H8    H     H_    0.691658 0.601432 0.963650 0.116899
H9    H     H_    0.077016 0.645983 0.502262 0.130606
H10   H     H_    0.922984 0.354017 0.497735 0.130614
H11   H     H_    0.922981 0.645983 0.502251 0.131031
H12   H     H_    0.503898 0.353575 0.652474 0.173062
H13   H     H_    0.077019 0.354017 0.497747 0.131029
H14   H     H_    0.503173 0.645713 0.259464 0.152003
H15   H     H_    0.504187 0.354295 0.740510 0.153344
H16   H     H_    0.302033 0.422073 0.121311 0.172859
H17   H     H_    0.689373 0.599882 0.878773 0.173043
H18   H     H_    0.496065 0.646430 0.652473 0.173039
H19   H     H_    0.496735 0.353545 0.347525 0.173015
H20   H     H_    0.495771 0.645716 0.740509 0.153334
N1    N     N_R   0.500014 0.499995 0.202026 -0.398950
N2    N     N_R   0.499982 0.500008 0.798029 -0.398695
N3    N     N_1   0.500000 0.276710 0.500000 -0.163061
N4    N     N_1   0.500000 0.723290 0.500000 -0.163061
O1    O     O_R   0.380310 0.575320 0.500010 -0.488490
O2    O     O_2   0.633162 0.567560 0.797365 -0.482430
O3    O     O_2   0.366802 0.432456 0.797409 -0.482409
O4    O     O_2   0.638237 0.554271 0.202700 -0.482025
O5    O     O_R   0.619690 0.424680 0.499990 -0.488491
O6    O     O_R   0.619690 0.575320 0.499990 -0.487493
O7    O     O_R   0.380310 0.424680 0.500010 -0.487493
O8    O     O_R   0.500010 0.575330 0.430260 -0.492627
O9    O     O_R   0.499990 0.424670 0.569740 -0.492613
O10   O     O_R   0.499990 0.575330 0.569740 -0.492662
O11   O     O_R   0.500010 0.424670 0.430260 -0.492675
O12   O     O_2   0.361791 0.445718 0.202745 -0.482042

loop_
_geom_bond_atom_site_label_1
_geom_bond_atom_site_label_2
_ccdc_geom_bond_type
C40   C45   A    
C11   C14   A    
Cu1   N4    S    
C7    C9    A    
C24   H10   S    
C46   H20   S    
C44   C53   A    
C35   C37   A    
C21   C24   A    
Cu2   O11   S    
Cu1   O6    S    
C24   C25   A    
C12   O5    A    
C52   H15   S    
C42   C58   A    
C21   H13   S    
C32   C33   A    
C20   C22   A    
Cu2   O5    S    
Cu1   O10   S    
C18   C56   A    
C42   O4    S    
C15   C58   A    
C8    C18   A    
C22   H9    S    
C5    C9    A    
C20   C25   A    
C12   C30   S    
C44   C47   A    
C56   H16   S    
C52   C54   A    
C1    C29   S    
C46   C48   A    
C2    C34   A    
C10   C23   A    
C49   H1    S    
C4    C48   A    
Cu2   N3    S    
C42   N1    A    
C36   C38   S    
C16   O8    A    
Br4   C31   S    
C13   H6    S    
C37   C39   S    
C32   C37   A    
C2    C14   A    
C54   N2    S    
C1    O7    A    
C49   C51   A    
C11   H5    S    
C50   C52   A    
C55   C57   A    
C2    C43   A    
C46   C54   A    
C43   N2    A    
C6    C10   A    
C4    C50   A    
C51   H14   S    
C14   H3    S    
Cu1   O8    S    
C34   C55   A    
C31   C35   A    
C23   C58   A    
C17   O9    A    
Cu1   O1    S    
C4    C17   S    
C27   C30   T    
C15   H4    S    
C48   H18   S    
C41   O2    S    
C45   C56   A    
C9    C34   A    
C50   H12   S    
Cu2   O9    S    
C8    C10   A    
C22   C26   A    
C51   C53   A    
C38   N4    T    
C3    C49   A    
C40   N1    A    
C47   H19   S    
C18   H7    S    
C21   C26   A    
C41   C55   A    
C43   O3    S    
C19   H8    S    
Cu2   O7    S    
C20   H11   S    
C33   C36   A    
C12   O6    A    
C39   N3    T    
C28   C29   T    
C31   C36   A    
C5    C11   A    
C3    C47   A    
C25   C27   S    
C57   H17   S    
C26   C28   S    
C17   O10   A    
C40   O12   S    
Br2   C33   S    
C16   O11   A    
Br3   C32   S    
C7    C19   A    
C13   C15   A    
C53   N1    S    
C41   N2    A    
C5    C8    A    
C6    C7    A    
Br1   C35   S    
Cu1   Cu2   S    
C19   C57   A    
C3    C16   S    
C6    C13   A    
C44   H2    S    
C1    O1    A    
C23   C45   A    
