data_mof_unit_5102.cif
_audit_creation_date              2012-12-11T15:57:07-0500
_audit_creation_method            fapswitch 2.2
_symmetry_space_group_name_H-M    P1
_symmetry_Int_Tables_number       1
_space_group_crystal_system       triclinic
_cell_length_a                    17.420141
_cell_length_b                    24.458687
_cell_length_c                    15.03822
_cell_angle_alpha                 90.227275
_cell_angle_beta                  125.881857
_cell_angle_gamma                 90.001859
_cell_volume                      5191.380298

loop_
_atom_site_label
_atom_site_type_symbol
_atom_type_description
_atom_site_fract_x
_atom_site_fract_y
_atom_site_fract_z
_atom_type_partial_charge
C1    C     C_R   0.359498 0.153820 0.908769 -0.052867
C2    C     C_R   0.358978 0.845889 0.908778 -0.040669
C3    C     C_R   0.859498 0.653820 0.908769 -0.052867
C4    C     C_R   0.858978 0.345889 0.908778 -0.040668
C5    C     C_R   0.691902 0.120697 0.088577 0.544173
C6    C     C_R   0.691296 0.878523 0.088071 0.531136
C7    C     C_R   0.191902 0.620697 0.088577 0.544174
C8    C     C_R   0.191296 0.378523 0.088071 0.531136
C9    C     C_R   0.596808 0.876753 0.905917 -0.042699
C10   C     C_R   0.597950 0.122192 0.906628 -0.057373
C11   C     C_R   0.096808 0.376753 0.905917 -0.042699
C12   C     C_R   0.097950 0.622192 0.906628 -0.057373
C13   C     C_R   0.430441 0.999165 0.631072 0.104452
C14   C     C_R   0.930441 0.499165 0.631072 0.104452
C15   C     C_R   0.791363 0.000296 0.375379 -0.068730
C16   C     C_R   0.291363 0.500296 0.375379 -0.068730
C17   C     C_R   0.689217 0.134452 0.995959 -0.007940
C18   C     C_R   0.688064 0.864309 0.994888 -0.006099
C19   C     C_R   0.189217 0.634452 0.995959 -0.007940
C20   C     C_R   0.188064 0.364308 0.994888 -0.006099
C21   C     C_3   0.998334 0.954662 0.612714 0.417324
C22   C     C_3   0.998746 0.042964 0.618504 0.411644
C23   C     C_3   0.498334 0.454662 0.612714 0.417324
C24   C     C_3   0.498747 0.542964 0.618504 0.411644
C25   C     C_3   0.927181 0.998173 0.595836 0.401298
C26   C     C_3   0.427181 0.498173 0.595836 0.401298
C27   C     C_3   0.887908 0.000229 0.473981 -0.158257
C28   C     C_3   0.387908 0.500229 0.473981 -0.158257
C29   C     C_3   0.957885 0.955273 0.490163 -0.362556
C30   C     C_3   0.958229 0.046388 0.496023 -0.341724
C31   C     C_3   0.457885 0.455273 0.490163 -0.362556
C32   C     C_3   0.458229 0.546388 0.496023 -0.341724
C33   C     C_3   0.027234 0.001379 0.514130 0.513501
C34   C     C_3   0.527234 0.501379 0.514130 0.513501
C35   C     C_R   0.453353 0.845042 0.089862 0.433983
C36   C     C_R   0.454743 0.155583 0.089737 0.453257
C37   C     C_R   0.953353 0.345042 0.089862 0.433984
C38   C     C_R   0.954743 0.655583 0.089737 0.453256
C39   C     C_3   0.069690 0.999396 0.636371 -0.054318
C40   C     C_3   0.569690 0.499396 0.636371 -0.054318
C41   C     C_3   0.401115 0.732815 0.106466 -0.411863
C42   C     C_3   0.404602 0.270127 0.102687 -0.397851
C43   C     C_3   0.901115 0.232815 0.106466 -0.411863
C44   C     C_3   0.904602 0.770127 0.102687 -0.397851
C45   C     C_3   0.841733 0.187682 0.108076 -0.484499
C46   C     C_3   0.844975 0.815510 0.103593 -0.505976
C47   C     C_3   0.341733 0.687682 0.108076 -0.484500
C48   C     C_3   0.344975 0.315510 0.103593 -0.505976
C49   C     C_3   0.816541 0.223397 0.900727 0.236626
C50   C     C_3   0.811214 0.773165 0.895813 0.220406
C51   C     C_3   0.316541 0.723397 0.900727 0.236626
C52   C     C_3   0.311214 0.273165 0.895813 0.220405
C53   C     C_3   0.249764 0.783737 0.981877 0.222096
C54   C     C_3   0.255050 0.215078 0.990849 0.212261
C55   C     C_3   0.749764 0.283737 0.981877 0.222097
C56   C     C_3   0.755050 0.715078 0.990849 0.212261
C57   C     C_3   0.342111 0.764003 0.995855 -0.156224
C58   C     C_3   0.343235 0.235617 0.996093 -0.153861
C59   C     C_3   0.842111 0.264003 0.995855 -0.156224
C60   C     C_3   0.843235 0.735617 0.996093 -0.153862
C61   C     C_3   0.746526 0.179083 0.992032 -0.143643
C62   C     C_3   0.745335 0.819617 0.990641 -0.137943
C63   C     C_3   0.246526 0.679083 0.992032 -0.143643
C64   C     C_3   0.245335 0.319617 0.990641 -0.137943
C65   C     C_3   0.774196 0.168817 0.909372 0.719207
C66   C     C_3   0.764403 0.826760 0.899690 0.712322
C67   C     C_3   0.274196 0.668817 0.909372 0.719208
C68   C     C_3   0.264404 0.326760 0.899690 0.712323
C69   C     C_3   0.688865 0.233756 0.966267 0.237884
C70   C     C_3   0.693230 0.764236 0.976849 0.231464
C71   C     C_3   0.188865 0.733756 0.966267 0.237885
C72   C     C_3   0.193230 0.264236 0.976849 0.231464
C73   C     C_3   0.531443 0.005226 0.567510 0.325408
C74   C     C_3   0.379883 0.945025 0.459602 0.169538
C75   C     C_3   0.031443 0.505226 0.567510 0.325408
C76   C     C_3   0.879883 0.445025 0.459602 0.169538
C77   C     C_R   0.472278 0.044943 0.239905 0.504260
C78   C     C_R   0.475397 0.954290 0.242640 0.434374
C79   C     C_R   0.972278 0.544943 0.239905 0.504260
C80   C     C_R   0.975397 0.454290 0.242640 0.434374
C81   C     C_3   0.534286 0.992918 0.469903 0.176697
C82   C     C_3   0.367024 0.952068 0.349453 0.202696
C83   C     C_3   0.034286 0.492918 0.469903 0.176697
C84   C     C_3   0.867024 0.452068 0.349453 0.202696
C85   C     C_3   0.369181 0.047540 0.455351 -0.554857
C86   C     C_3   0.869181 0.547540 0.455351 -0.554857
C87   C     C_3   0.427694 0.998117 0.531255 -0.086255
C88   C     C_3   0.927694 0.498117 0.531255 -0.086255
C89   C     C_3   0.432068 0.000019 0.359949 -0.040706
C90   C     C_3   0.932068 0.500019 0.359949 -0.040705
C91   C     C_3   0.388453 0.054007 0.368126 -0.239745
C92   C     C_3   0.888453 0.554007 0.368126 -0.239745
C93   C     C_R   0.228362 0.953770 0.738742 0.470424
C94   C     C_R   0.228141 0.045684 0.739241 0.475281
C95   C     C_R   0.728363 0.453770 0.738742 0.470424
C96   C     C_R   0.728141 0.545683 0.739241 0.475281
C97   C     C_R   0.394746 0.186855 0.998414 0.049353
C98   C     C_R   0.393337 0.813204 0.998511 0.019935
C99   C     C_R   0.894746 0.686855 0.998414 0.049353
C100  C     C_R   0.893337 0.313204 0.998511 0.019934
C101  C     C_R   0.442060 0.999538 0.267763 -0.088365
C102  C     C_R   0.942060 0.499538 0.267763 -0.088365
C103  C     C_R   0.172285 0.999557 0.712299 -0.068418
C104  C     C_R   0.672284 0.499557 0.712299 -0.068418
C105  C     C_R   0.449784 0.044968 0.695154 -0.076569
C106  C     C_R   0.444938 0.954286 0.693925 0.031820
C107  C     C_R   0.949784 0.544968 0.695154 -0.076569
C108  C     C_R   0.944938 0.454286 0.693925 0.031820
C109  C     C_R   0.748955 0.955283 0.311159 0.480188
C110  C     C_R   0.749077 0.045110 0.311312 0.481998
C111  C     C_R   0.248955 0.455283 0.311159 0.480188
C112  C     C_R   0.249077 0.545110 0.311312 0.481998
H1    H     H_    0.326037 0.168362 0.826442 0.195632
H2    H     H_    0.324199 0.830886 0.826238 0.193858
H3    H     H_    0.826037 0.668362 0.826442 0.195632
H4    H     H_    0.824199 0.330886 0.826238 0.193858
H5    H     H_    0.942623 0.919057 0.437375 0.230508
H6    H     H_    0.943395 0.084288 0.448123 0.236447
H7    H     H_    0.442623 0.419057 0.437375 0.230508
H8    H     H_    0.443395 0.584288 0.448123 0.236447
H9    H     H_    0.466946 0.715428 0.122353 0.248025
H10   H     H_    0.467983 0.287748 0.112748 0.249553
H11   H     H_    0.966946 0.215428 0.122353 0.248025
H12   H     H_    0.967983 0.787748 0.112748 0.249553
H13   H     H_    0.422237 0.760543 0.176080 0.240224
H14   H     H_    0.430625 0.244454 0.176017 0.237342
H15   H     H_    0.922237 0.260543 0.176080 0.240224
H16   H     H_    0.930625 0.744454 0.176017 0.237342
H17   H     H_    0.327269 0.700747 0.167853 0.249208
H18   H     H_    0.337126 0.304441 0.169415 0.245328
H19   H     H_    0.827269 0.200747 0.167853 0.249208
H20   H     H_    0.837126 0.804441 0.169415 0.245328
H21   H     H_    0.885076 0.149972 0.139691 0.248975
H22   H     H_    0.884937 0.854598 0.127047 0.250340
H23   H     H_    0.385076 0.649972 0.139691 0.248975
H24   H     H_    0.384937 0.354598 0.127047 0.250340
H25   H     H_    0.272507 0.803967 0.060410 0.135638
H26   H     H_    0.283030 0.196503 0.072101 0.148381
H27   H     H_    0.772506 0.303968 0.060410 0.135638
H28   H     H_    0.783030 0.696503 0.072101 0.148382
H29   H     H_    0.173283 0.738039 0.028073 0.156698
H30   H     H_    0.185386 0.261770 0.045182 0.152501
H31   H     H_    0.673283 0.238039 0.028073 0.156698
H32   H     H_    0.685386 0.761770 0.045182 0.152501
H33   H     H_    0.760829 0.243206 0.822450 0.124156
H34   H     H_    0.756617 0.750029 0.821243 0.133174
H35   H     H_    0.260829 0.743206 0.822450 0.124156
H36   H     H_    0.256617 0.250029 0.821243 0.133174
H37   H     H_    0.551921 0.048735 0.592859 0.169079
H38   H     H_    0.309773 0.938873 0.444306 0.174780
H39   H     H_    0.051921 0.548735 0.592859 0.169079
H40   H     H_    0.809773 0.438873 0.444306 0.174780
H41   H     H_    0.556844 0.949851 0.474535 0.219339
H42   H     H_    0.384576 0.912821 0.330995 0.179727
H43   H     H_    0.056844 0.449851 0.474535 0.219339
H44   H     H_    0.884576 0.412821 0.330995 0.179727
H45   H     H_    0.387779 0.086870 0.500483 0.208951
H46   H     H_    0.292240 0.040793 0.415080 0.260336
H47   H     H_    0.887779 0.586870 0.500483 0.208951
H48   H     H_    0.792240 0.540793 0.415080 0.260336
H49   H     H_    0.439489 0.088337 0.396475 0.241872
H50   H     H_    0.322474 0.065534 0.287752 0.247855
H51   H     H_    0.939488 0.588337 0.396475 0.241872
H52   H     H_    0.822474 0.565535 0.287752 0.247855
H53   H     H_    0.438834 0.087229 0.670420 0.124777
H54   H     H_    0.424120 0.912618 0.667551 0.168475
H55   H     H_    0.938834 0.587229 0.670420 0.124777
H56   H     H_    0.924120 0.412618 0.667551 0.168475
H57   H     H_    0.562518 0.868429 0.820516 0.214373
H58   H     H_    0.564928 0.130811 0.821627 0.197563
H59   H     H_    0.062518 0.368430 0.820516 0.214373
H60   H     H_    0.064928 0.630811 0.821627 0.197563
N1    N     N_R   0.392450 0.103580 0.942190 -0.085084
N2    N     N_R   0.392450 0.896420 0.942190 -0.090302
N3    N     N_R   0.892450 0.603580 0.942190 -0.085084
N4    N     N_R   0.892450 0.396420 0.942190 -0.090302
N5    N     N_R   0.450490 0.896000 0.057360 -0.102934
N6    N     N_R   0.450490 0.104000 0.057360 -0.096087
N7    N     N_R   0.950490 0.396000 0.057360 -0.102934
N8    N     N_R   0.950490 0.604000 0.057360 -0.096087
N9    N     N_R   0.525490 0.028390 0.207550 -0.126272
N10   N     N_R   0.525490 0.971610 0.207550 -0.091411
N11   N     N_R   0.025490 0.528390 0.207550 -0.126272
N12   N     N_R   0.025490 0.471610 0.207550 -0.091411
N13   N     N_R   0.317450 0.971190 0.792000 -0.136831
N14   N     N_R   0.317450 0.028810 0.792000 -0.132393
N15   N     N_R   0.817450 0.471190 0.792000 -0.136831
N16   N     N_R   0.817450 0.528810 0.792000 -0.132393
N17   N     N_R   0.473900 0.028390 0.792280 -0.056924
N18   N     N_R   0.473900 0.971610 0.792280 -0.070606
N19   N     N_R   0.973900 0.528390 0.792280 -0.056924
N20   N     N_R   0.973900 0.471610 0.792280 -0.070606
N21   N     N_R   0.682310 0.971180 0.208170 -0.140148
N22   N     N_R   0.682310 0.028820 0.208170 -0.143655
N23   N     N_R   0.182310 0.471180 0.208170 -0.140148
N24   N     N_R   0.182310 0.528820 0.208170 -0.143655
N25   N     N_R   0.606470 0.103570 0.057210 -0.071164
N26   N     N_R   0.606470 0.896430 0.057210 -0.071796
N27   N     N_R   0.106470 0.603570 0.057210 -0.071164
N28   N     N_R   0.106470 0.396430 0.057210 -0.071796
N29   N     N_R   0.549740 0.896000 0.943240 -0.106520
N30   N     N_R   0.549740 0.104000 0.943240 -0.099954
N31   N     N_R   0.049740 0.396000 0.943240 -0.106520
N32   N     N_R   0.049740 0.604000 0.943240 -0.099955
Ni1   Ni    Ni4+2 0.433780 0.065390 0.868430 0.243973
Ni2   Ni    Ni4+2 0.433780 0.934610 0.868430 0.243933
Ni3   Ni    Ni4+2 0.933780 0.565390 0.868430 0.243973
Ni4   Ni    Ni4+2 0.933780 0.434610 0.868430 0.243933
Ni5   Ni    Ni4+2 0.565800 0.934190 0.131570 0.347228
Ni6   Ni    Ni4+2 0.565800 0.065810 0.131570 0.317782
Ni7   Ni    Ni4+2 0.065800 0.434190 0.131570 0.347228
Ni8   Ni    Ni4+2 0.065800 0.565810 0.131570 0.317782
O1    O     O_3   0.019981 0.907804 0.676221 -0.603561
H61   H     H_    0.960958 0.885752 0.636612 0.383011
O2    O     O_3   0.021312 0.087671 0.688107 -0.605817
H62   H     H_    0.962424 0.109529 0.651988 0.386295
O3    O     O_3   0.519981 0.407804 0.676221 -0.603561
H63   H     H_    0.460958 0.385752 0.636612 0.383011
O4    O     O_3   0.521312 0.587671 0.688107 -0.605817
H64   H     H_    0.462424 0.609529 0.651988 0.386295
O5    O     O_3   0.081378 0.002958 0.473024 -0.674847
H65   H     H_    0.034834 0.004138 0.392117 0.333686
O6    O     O_3   0.581378 0.502958 0.473024 -0.674847
H66   H     H_    0.534834 0.504138 0.392117 0.333686
O7    O     O_3   0.892246 0.214440 0.892656 -0.607996
H67   H     H_    0.950201 0.206521 0.966594 0.368718
O8    O     O_3   0.883648 0.783264 0.882469 -0.614349
H68   H     H_    0.940924 0.796161 0.953070 0.371537
O9    O     O_3   0.392246 0.714440 0.892656 -0.607997
H69   H     H_    0.450201 0.706521 0.966594 0.368718
O10   O     O_3   0.383648 0.283264 0.882469 -0.614349
H70   H     H_    0.440924 0.296161 0.953070 0.371537
Cl1   Cl    Cl    0.856958 0.112998 0.956874 -0.453923
Cl2   Cl    Cl    0.837572 0.886155 0.930696 -0.420675
Cl3   Cl    Cl    0.356958 0.612998 0.956874 -0.453923
Cl4   Cl    Cl    0.337572 0.386155 0.930696 -0.420675
O11   O     O_3   0.196916 0.823828 0.900630 -0.632253
H71   H     H_    0.183086 0.810722 0.830336 0.355377
O12   O     O_3   0.201662 0.173042 0.913741 -0.636208
H72   H     H_    0.183868 0.184479 0.840973 0.356394
O13   O     O_3   0.696916 0.323828 0.900630 -0.632253
H73   H     H_    0.683085 0.310722 0.830336 0.355378
O14   O     O_3   0.701662 0.673042 0.913741 -0.636208
H74   H     H_    0.683868 0.684479 0.840973 0.356394
Cl5   Cl    Cl    0.559427 0.819485 0.206768 -0.513088
Cl6   Cl    Cl    0.564188 0.183295 0.198109 -0.586723
Cl7   Cl    Cl    0.059427 0.319485 0.206768 -0.513089
Cl8   Cl    Cl    0.064188 0.683295 0.198109 -0.586723
O15   O     O_3   0.599778 0.233628 0.863482 -0.662852
H75   H     H_    0.609649 0.233132 0.805193 0.349973
O16   O     O_3   0.600138 0.761272 0.880043 -0.653372
H76   H     H_    0.602948 0.758207 0.816563 0.363650
O17   O     O_3   0.099778 0.733628 0.863482 -0.662852
H77   H     H_    0.109649 0.733132 0.805193 0.349973
O18   O     O_3   0.100138 0.261272 0.880043 -0.653372
H78   H     H_    0.102948 0.258207 0.816563 0.363650
Cl9   Cl    Cl    0.680198 0.147598 0.772464 -0.578929
Cl10  Cl    Cl    0.663617 0.838641 0.761485 -0.474500
Cl11  Cl    Cl    0.180198 0.647598 0.772464 -0.578929
Cl12  Cl    Cl    0.163617 0.338641 0.761485 -0.474500
Cl13  Cl    Cl    0.621637 0.967177 0.685258 -0.367930
Cl14  Cl    Cl    0.446088 0.882836 0.521876 -0.513931
Cl15  Cl    Cl    0.121637 0.467177 0.685258 -0.367930
Cl16  Cl    Cl    0.946088 0.382836 0.521876 -0.513931
Cl17  Cl    Cl    0.626084 0.034593 0.484062 -0.466543
Cl18  Cl    Cl    0.244614 0.961209 0.237045 -0.559628
Cl19  Cl    Cl    0.126084 0.534593 0.484062 -0.466543
Cl20  Cl    Cl    0.744614 0.461209 0.237045 -0.559628
O19   O     O_3   0.467184 0.098013 0.264942 -0.754352
H79   H     H_    0.531192 0.113410 0.299389 0.399291
O20   O     O_3   0.479524 0.901492 0.274191 -0.672673
H80   H     H_    0.414702 0.886821 0.220884 0.303980
O21   O     O_3   0.967184 0.598013 0.264942 -0.754352
H81   H     H_    0.031193 0.613410 0.299389 0.399291
O22   O     O_3   0.979524 0.401492 0.274191 -0.672673
H82   H     H_    0.914702 0.386821 0.220884 0.303980
Cl21  Cl    Cl    0.188382 0.890120 0.672138 -0.587247
Cl22  Cl    Cl    0.186935 0.109508 0.675080 -0.587767
Cl23  Cl    Cl    0.688382 0.390120 0.672138 -0.587247
Cl24  Cl    Cl    0.686935 0.609508 0.675080 -0.587766
Cl25  Cl    Cl    0.746896 0.892997 0.367530 -0.425226
Cl26  Cl    Cl    0.746636 0.107572 0.367739 -0.443263
Cl27  Cl    Cl    0.246896 0.392997 0.367530 -0.425226
Cl28  Cl    Cl    0.246636 0.607572 0.367739 -0.443263
O23   O     O_3   0.769711 0.120867 0.195347 -0.726927
H83   H     H_    0.819381 0.100296 0.196803 0.297241
O24   O     O_3   0.769047 0.878234 0.194856 -0.733911
H84   H     H_    0.819676 0.897831 0.196650 0.297702
O25   O     O_3   0.269711 0.620867 0.195347 -0.726928
H85   H     H_    0.319381 0.600296 0.196803 0.297242
O26   O     O_3   0.269047 0.378234 0.194856 -0.733911
H86   H     H_    0.319676 0.397831 0.196650 0.297702
Cl29  Cl    Cl    0.860401 0.995444 0.650709 -0.307319
Cl30  Cl    Cl    0.360401 0.495444 0.650709 -0.307319

loop_
_geom_bond_atom_site_label_1
_geom_bond_atom_site_label_2
_ccdc_geom_bond_type
C11   H59   S    
C55   C59   S    
C15   C109  A    
C77   C101  A    
O6    H66   S    
N3    Ni3   S    
C42   C58   S    
C12   H60   S    
C72   H30   S    
C66   Cl2   S    
C53   H25   S    
C106  H54   S    
C56   H28   S    
C86   C88   S    
O20   H80   S    
C29   C33   S    
C55   H27   S    
C62   C70   S    
N26   Ni5   S    
C17   C61   S    
C9    H57   S    
N18   Ni2   S    
N4    N7    A    
O26   H86   S    
C19   C63   S    
C77   N9    A    
N29   Ni2   S    
C79   C102  A    
C36   C97   A    
C51   C57   S    
C93   Cl21  S    
C69   O15   S    
C25   Cl29  S    
C78   C101  A    
C1    H1    S    
C73   C81   S    
C44   C46   S    
C75   Cl15  S    
C11   C20   A    
C35   Cl5   S    
N19   N20   A    
C96   Cl24  S    
C41   H13   S    
C28   C32   S    
C43   H15   S    
C68   Cl12  S    
N9    N10   A    
C21   C29   S    
C23   C31   S    
C65   Cl9   S    
O2    H62   S    
C24   C32   S    
O9    H69   S    
C46   H22   S    
C109  Cl25  S    
C90   C92   S    
O8    H68   S    
C78   O20   S    
C10   N30   A    
N2    N5    A    
C52   C58   S    
C14   C107  A    
C46   C62   S    
C7    C19   A    
C96   C104  A    
N27   N32   A    
C10   H58   S    
C85   H46   S    
C72   O18   S    
C53   C71   S    
C89   C101  S    
N19   Ni3   S    
C13   C106  A    
C45   H21   S    
C37   Cl7   S    
N4    Ni4   S    
C6    O24   S    
N11   Ni8   S    
C14   C88   S    
C84   H44   S    
C42   H14   S    
N23   N24   A    
N24   Ni8   S    
C61   C65   S    
N21   N22   A    
N2    Ni2   S    
O14   H74   S    
C16   C111  A    
C23   O3    S    
N16   Ni3   S    
C27   C29   S    
C2    H2    S    
C93   C103  A    
C1    N1    A    
O15   H75   S    
C82   C89   S    
C47   H17   S    
C64   C68   S    
C24   C26   S    
C46   H20   S    
O17   H77   S    
C94   Cl22  S    
C81   H41   S    
N6    Ni6   S    
O13   H73   S    
C112  Cl28  S    
N8    Ni8   S    
C90   C102  S    
C112  N24   A    
C75   H39   S    
C22   C25   S    
C91   H50   S    
C109  N21   A    
C74   C87   S    
C89   C91   S    
C86   H47   S    
C43   C59   S    
C71   H29   S    
C108  H56   S    
C52   H36   S    
C22   O2    S    
C81   Cl17  S    
C59   C100  S    
C84   C90   S    
C73   Cl13  S    
O7    H67   S    
N28   Ni7   S    
C62   C66   S    
C36   N6    A    
C53   O11   S    
C18   C62   S    
C5    N25   A    
C30   H6    S    
O3    H63   S    
C80   C102  A    
N9    Ni6   S    
C78   N10   A    
O5    H65   S    
N22   Ni6   S    
C38   Cl8   S    
C13   C87   S    
O25   H85   S    
C41   C47   S    
C31   C34   S    
N25   N30   A    
C42   C48   S    
C43   C45   S    
C55   C69   S    
C92   H51   S    
C21   O1    S    
C8    N28   A    
C106  N18   A    
C49   O7    S    
C43   H11   S    
C34   O6    S    
N12   Ni7   S    
C21   C25   S    
C22   C30   S    
C47   H23   S    
C111  Cl27  S    
N13   Ni2   S    
C48   H24   S    
C94   N14   A    
C66   Cl10  S    
C52   O10   S    
N3    N8    A    
C110  Cl26  S    
N31   Ni4   S    
C49   C59   S    
C50   C60   S    
C51   C67   S    
N1    N6    A    
C22   C39   S    
C79   N11   A    
C77   O19   S    
C80   N12   A    
C3    C99   A    
C9    C18   A    
C107  N19   A    
C108  N20   A    
C37   C100  A    
C67   Cl11  S    
C111  N23   A    
C8    O26   S    
C33   O5    S    
C35   N5    A    
C51   O9    S    
O12   H72   S    
C76   C84   S    
C95   N15   A    
O16   H76   S    
O1    H61   S    
C65   Cl1   S    
C54   O12   S    
C47   C63   S    
C48   C64   S    
C5    C17   A    
C76   H40   S    
C23   C40   S    
C84   Cl20  S    
N27   Ni8   S    
C23   C26   S    
C71   O17   S    
N25   Ni6   S    
C73   C87   S    
N17   Ni1   S    
N30   Ni1   S    
C35   C98   A    
C30   C33   S    
C81   C89   S    
C50   H34   S    
C14   C108  A    
C79   O21   S    
O19   H79   S    
C15   C110  A    
C48   H18   S    
C50   O8    S    
C85   H45   S    
C74   C82   S    
C107  H55   S    
C37   N7    A    
C38   N8    A    
C13   C105  A    
O4    H64   S    
C53   C57   S    
C44   H12   S    
C80   O22   S    
C56   C60   S    
O23   H83   S    
C105  N17   A    
O24   H84   S    
N32   Ni3   S    
C49   H33   S    
C82   Cl18  S    
C8    C20   A    
C31   H7    S    
C9    N29   A    
C74   Cl14  S    
C3    N3    A    
C94   C103  A    
C45   H19   S    
C16   C112  A    
C55   O13   S    
C73   H37   S    
C4    H4    S    
C28   C31   S    
C38   C99   A    
C39   C103  S    
C69   H31   S    
C70   H32   S    
C41   C57   S    
N15   N16   A    
C3    H3    S    
C7    O25   S    
C75   C83   S    
N13   N14   A    
C44   C60   S    
C57   C98   S    
C12   C19   A    
C45   C61   S    
C105  H53   S    
N17   N18   A    
C24   O4    S    
C83   H43   S    
C4    N4    A    
C91   H49   S    
N1    Ni1   S    
C86   H48   S    
C32   C34   S    
C93   N13   A    
C16   C28   S    
C36   Cl6   S    
C96   N16   A    
N11   N12   A    
C60   C99   S    
C85   C91   S    
C67   Cl3   S    
C33   C39   S    
C49   C65   S    
C34   C40   S    
C10   C17   A    
C41   H9    S    
N7    Ni7   S    
N5    Ni5   S    
C68   Cl4   S    
C15   C27   S    
N15   Ni4   S    
C110  N22   A    
C76   C88   S    
C5    O23   S    
C52   C68   S    
C92   H52   S    
O22   H82   S    
C12   N32   A    
C27   C30   S    
N20   Ni4   S    
C58   C97   S    
C32   H8    S    
C85   C87   S    
C6    C18   A    
C63   C67   S    
C95   Cl23  S    
C1    C97   A    
C6    N26   A    
C11   N31   A    
C29   H5    S    
N10   Ni5   S    
C20   C64   S    
N23   Ni7   S    
C40   C104  S    
N21   Ni5   S    
C21   C39   S    
C51   H35   S    
N26   N29   A    
O21   H81   S    
C50   C66   S    
C56   O14   S    
C56   C70   S    
C4    C100  A    
O18   H78   S    
C95   C104  A    
C42   H10   S    
C54   C58   S    
C61   C69   S    
C83   C90   S    
C44   H16   S    
N14   Ni1   S    
C26   Cl30  S    
C63   C71   S    
C76   Cl16  S    
C25   C27   S    
C26   C28   S    
C83   Cl19  S    
C86   C92   S    
C2    N2    A    
C54   H26   S    
N28   N31   A    
C24   C40   S    
C64   C72   S    
C7    N27   A    
C82   H42   S    
C75   C88   S    
C54   C72   S    
C2    C98   A    
O10   H70   S    
C74   H38   S    
O11   H71   S    
C70   O16   S    
