data_mof_unit_40467.cif
_audit_creation_date              2012-12-11T18:06:56-0500
_audit_creation_method            fapswitch 2.2
_symmetry_space_group_name_H-M    P1
_symmetry_Int_Tables_number       1
_space_group_crystal_system       triclinic
_cell_length_a                    8.210179
_cell_length_b                    12.690539
_cell_length_c                    26.953147
_cell_angle_alpha                 96.689893
_cell_angle_beta                  92.677578
_cell_angle_gamma                 81.414426
_cell_volume                      2756.68514947

loop_
_atom_site_label
_atom_site_type_symbol
_atom_type_description
_atom_site_fract_x
_atom_site_fract_y
_atom_site_fract_z
_atom_type_partial_charge
Ba1   Ba    Ba6+2 0.859560 0.448380 0.523550 1.641368
Ba2   Ba    Ba6+2 0.330270 0.551530 0.476440 1.655530
C1    C     C_3   0.638430 0.080383 0.662431 -0.377905
C2    C     C_3   0.659014 0.182019 0.640044 0.333967
C3    C     C_3   0.481312 0.720005 0.628387 0.297516
C4    C     C_3   0.443291 0.763794 0.682239 -0.369252
C5    C     C_3   0.941176 0.860502 0.344309 0.290073
C6    C     C_3   0.969974 0.892846 0.293286 -0.295272
C7    C     C_3   0.470537 0.829151 0.343155 0.392420
C8    C     C_3   0.459386 0.904082 0.302642 -0.382612
C9    C     C_R   0.010463 0.422882 0.177164 0.593890
C10   C     C_R   0.956589 0.614711 0.183772 0.597093
C11   C     C_2   0.769343 0.582423 0.273132 -0.089970
C12   C     C_3   0.166761 0.214862 0.660633 0.290804
C13   C     C_3   0.740718 0.611067 0.328403 -0.065644
C14   C     C_1   0.986098 0.481499 0.343368 0.039861
C15   C     C_2   0.027578 0.471928 0.295592 -0.081009
C16   C     C_2   0.913302 0.524123 0.257319 0.218782
C17   C     C_R   0.043534 0.515293 0.104049 -0.083517
C18   C     C_R   0.054135 0.419387 0.126523 -0.026823
C19   C     C_R   0.107401 0.321968 0.097795 -0.059238
C20   C     C_R   0.995668 0.613347 0.133111 -0.066739
C21   C     C_2   0.851025 0.541081 0.361033 -0.264927
C22   C     C_2   0.351927 0.475401 0.641489 -0.281148
C23   C     C_3   0.134646 0.190031 0.712790 -0.330968
C24   C     C_R   0.191909 0.413148 0.974410 0.019710
C25   C     C_R   0.078219 0.604063 0.976769 0.018478
C26   C     C_R   0.152834 0.507320 0.950000 0.053863
C27   C     C_R   0.277874 0.321012 0.947300 -0.102227
C28   C     C_R   0.318638 0.320818 0.897545 -0.059898
C29   C     C_R   0.272346 0.411638 0.872158 -0.031726
C30   C     C_R   0.186773 0.504566 0.898173 -0.078984
C31   C     C_R   0.134445 0.594716 0.872423 -0.032244
C32   C     C_R   0.171214 0.591696 0.821388 0.589733
C33   C     C_R   0.310131 0.411463 0.821355 0.579395
C34   C     C_3   0.214464 0.222818 0.417725 0.289894
C35   C     C_2   0.459107 0.479347 0.729645 -0.071017
C36   C     C_3   0.500618 0.485728 0.675763 -0.053195
C37   C     C_1   0.207382 0.523185 0.657132 0.040912
C38   C     C_2   0.167776 0.525563 0.704672 -0.107392
C39   C     C_2   0.300031 0.500315 0.744008 0.203496
C40   C     C_R   0.143108 0.414196 0.024746 0.026686
C41   C     C_R   0.082414 0.513266 0.052661 0.031481
C42   C     C_R   0.062599 0.610386 0.029822 -0.001714
C43   C     C_R   0.152108 0.319338 0.048259 -0.099136
C44   C     C_R   0.994863 0.708890 0.111761 -0.034183
C45   C     C_3   0.229576 0.101968 0.405443 -0.357951
C46   C     C_R   0.013662 0.689083 0.948814 -0.114826
C47   C     C_R   0.043420 0.685343 0.898061 -0.061629
C48   C     C_R   0.032219 0.709181 0.061740 0.120315
C49   C     C_R   0.756755 0.820092 0.478683 -0.274114
C50   C     C_R   0.432962 0.189165 0.520474 -0.290702
C51   C     C_R   0.410335 0.009943 0.537155 -0.098303
C52   C     C_R   0.347295 0.117981 0.540231 -0.005122
C53   C     C_R   0.575689 0.152337 0.493804 0.063366
C54   C     C_R   0.638741 0.041145 0.488196 -0.055197
C55   C     C_R   0.555192 0.969644 0.510955 -0.061444
C56   C     C_3   0.981417 0.777163 0.580952 0.276481
C57   C     C_R   0.616995 0.859267 0.506039 0.053426
C58   C     C_R   0.844596 0.889409 0.458661 -0.034395
C59   C     C_R   0.783635 0.998939 0.461695 -0.092196
C60   C     C_3   0.979814 0.897382 0.592036 -0.337223
C61   C     C_3   0.695804 0.313528 0.375922 0.296044
C62   C     C_3   0.710898 0.285241 0.319762 -0.360790
H1    H     H_    0.768075 0.164783 0.615865 0.085324
H2    H     H_    0.309964 0.076036 0.373071 0.109801
H3    H     H_    0.284043 0.061184 0.437712 0.083090
H4    H     H_    0.105943 0.078389 0.396082 0.134970
H5    H     H_    0.855072 0.760207 0.572200 0.002768
H6    H     H_    0.059989 0.748311 0.548341 0.075829
H7    H     H_    0.910889 0.927596 0.626383 0.122893
H8    H     H_    0.920167 0.939055 0.560642 0.085259
H9    H     H_    0.107991 0.915300 0.597858 0.134371
H10   H     H_    0.812103 0.338994 0.391701 0.007820
H11   H     H_    0.593375 0.380470 0.382892 0.087145
H12   H     H_    0.619675 0.015863 0.632098 0.086075
H13   H     H_    0.818287 0.222034 0.311715 0.128639
H14   H     H_    0.728016 0.357104 0.301925 0.075430
H15   H     H_    0.597104 0.255608 0.303544 0.132882
H16   H     H_    0.546403 0.205628 0.617263 -0.039762
H17   H     H_    0.530047 0.095202 0.686724 0.136099
H18   H     H_    0.367676 0.694234 0.610137 0.030669
H19   H     H_    0.580879 0.650335 0.627935 0.033627
H20   H     H_    0.348967 0.836469 0.683041 0.139776
H21   H     H_    0.394556 0.703249 0.701603 0.077953
H22   H     H_    0.556947 0.785099 0.702427 0.124905
H23   H     H_    0.749911 0.054025 0.685274 0.130041
H24   H     H_    0.163460 0.256510 0.740671 0.125059
H25   H     H_    0.906697 0.778656 0.339368 0.024051
H26   H     H_    0.838760 0.919078 0.361072 -0.030085
H27   H     H_    0.071259 0.836091 0.274871 0.171877
H28   H     H_    0.855729 0.891937 0.269607 0.109748
H29   H     H_    0.003648 0.975081 0.297366 0.096528
H30   H     H_    0.602277 0.813811 0.355500 -0.130324
H31   H     H_    0.400690 0.870247 0.375906 0.082216
H32   H     H_    0.524744 0.862302 0.269126 0.126203
H33   H     H_    0.518159 0.975765 0.316390 0.073761
H34   H     H_    0.096925 0.294589 0.655340 0.093988
H35   H     H_    0.328529 0.930220 0.292171 0.128790
H36   H     H_    0.146609 0.428733 0.284212 0.115962
H37   H     H_    0.115625 0.246669 0.113663 0.122466
H38   H     H_    0.558405 0.465188 0.757191 0.101829
H39   H     H_    0.385806 0.248238 0.878793 0.121685
H40   H     H_    0.319773 0.248340 0.964117 0.070420
H41   H     H_    0.188868 0.240941 0.028681 0.070126
H42   H     H_    0.683426 0.621327 0.246728 0.098589
H43   H     H_    0.970508 0.785374 0.134615 0.132975
H44   H     H_    0.933612 0.758076 0.965091 0.077134
H45   H     H_    0.300114 0.217915 0.657720 -0.020980
H46   H     H_    0.993690 0.754036 0.878853 0.121644
H47   H     H_    0.040442 0.546773 0.715428 0.127119
H48   H     H_    0.830631 0.555275 0.400901 0.076016
H49   H     H_    0.362808 0.428166 0.605181 0.069596
H50   H     H_    0.341301 0.958507 0.554127 0.104748
H51   H     H_    0.852833 0.049293 0.444083 0.102223
H52   H     H_    0.804436 0.735453 0.476160 0.057398
H53   H     H_    0.382851 0.273413 0.523410 0.068865
H54   H     H_    0.002922 0.181336 0.715687 0.146113
H55   H     H_    0.212755 0.114432 0.721019 0.119041
H56   H     H_    0.337991 0.245276 0.426755 0.003386
H57   H     H_    0.134205 0.246795 0.450350 0.071861
N1    N     N_R   0.960643 0.520051 0.205266 -0.420884
N2    N     N_R   0.259258 0.500903 0.796327 -0.425143
O1    O     O_2   0.907040 0.557650 0.617910 -0.463940
O2    O     O_3   0.664743 0.223050 0.397001 -0.643156
O3    O     O_3   0.115200 0.134931 0.625552 -0.611190
O4    O     O_2   0.282660 0.442310 0.382060 -0.453128
O5    O     O_3   0.050670 0.442340 0.442260 -0.500942
O6    O     O_3   0.504750 0.639360 0.411530 -0.465672
O7    O     O_3   0.148258 0.270594 0.375700 -0.629971
O8    O     O_3   0.618400 0.630290 0.524520 -0.477008
O9    O     O_3   0.090070 0.694820 0.435810 -0.464655
O10   O     O_2   0.182957 0.883659 0.466613 -0.482289
O11   O     O_3   0.086568 0.861814 0.373671 -0.583536
O12   O     O_3   0.139040 0.557570 0.557730 -0.494211
O13   O     O_3   0.571310 0.369620 0.475470 -0.490990
O14   O     O_2   0.348200 0.764910 0.523260 -0.467864
O15   O     O_3   0.533604 0.801022 0.604736 -0.650069
O16   O     O_2   0.439622 0.527131 0.323995 -0.486081
O17   O     O_3   0.401686 0.736282 0.324410 -0.561262
O18   O     O_2   0.015113 0.339327 0.195936 -0.598138
O19   O     O_2   0.387708 0.331303 0.799363 -0.599630
O20   O     O_2   0.920142 0.700781 0.208946 -0.626481
O21   O     O_2   0.127226 0.670775 0.799543 -0.597539
O22   O     O_3   0.684960 0.360550 0.588460 -0.485363
O23   O     O_2   0.842510 0.420873 0.672863 -0.500106
O24   O     O_3   0.040566 0.729460 0.623665 -0.627024
O25   O     O_3   0.681554 0.262882 0.678832 -0.586361
O26   O     O_2   0.841490 0.235060 0.476710 -0.467897
O27   O     O_3   0.099640 0.305100 0.564190 -0.491725
O28   O     O_2   0.010710 0.115776 0.532751 -0.483830
P1    P     P_3+3 0.072810 0.589830 0.610360 0.994064
P2    P     P_3+3 0.661990 0.251250 0.462170 0.969769
P3    P     P_3+3 0.143641 0.167050 0.565496 0.935317
P4    P     P_3+3 0.116900 0.410080 0.389630 0.990836
P5    P     P_3+3 0.048724 0.833966 0.433757 0.962859
P6    P     P_3+3 0.677257 0.384604 0.653687 0.972510
P7    P     P_3+3 0.533174 0.764467 0.540160 0.936370
P8    P     P_3+3 0.521621 0.624701 0.346511 0.982096
N3    N     N_3   0.064789 0.809774 0.047950 -0.507878
H58   H     H_    0.155615 0.799035 0.021201 0.187240
H59   H     H_    0.955276 0.854079 0.036082 0.173319

loop_
_geom_bond_atom_site_label_1
_geom_bond_atom_site_label_2
_ccdc_geom_bond_type
C25   C46   A    
C56   C60   S    
C12   H45   S    
C53   C54   A    
Ba2   P4    S    
O13   P2    S    
O8    P7    S    
O10   P5    D    
C62   H13   S    
Ba1   O22   S    
C17   C18   A    
Ba1   O5    S    
C23   H54   S    
Ba2   O6    S    
C3    O15   S    
O23   P6    D    
C51   C52   A    
C21   H48   S    
C32   O21   D    
C32   N2    Am   
C4    H21   S    
O14   P7    D    
C34   C45   S    
C3    C4    S    
C2    H16   S    
O17   P8    S    
C28   C29   A    
C3    H19   S    
C57   P7    S    
C55   C57   A    
C31   C47   A    
O12   P1    S    
C5    H25   S    
C10   C20   A    
C22   C37   D    
C54   C55   A    
Ba1   P1    S    
Ba1   Ba2   S    
O28   P3    D    
O26   P2    D    
C2    H1    S    
O5    P4    S    
O9    P5    S    
C25   C42   A    
O11   P5    S    
C17   C41   A    
C14   C15   D    
C28   H39   S    
C59   H51   S    
C22   C36   S    
C60   H9    S    
Ba1   O26   S    
O7    P4    S    
C6    H28   S    
Ba1   O13   S    
C7    C8    S    
C7    H31   S    
C45   H2    S    
C50   C53   A    
C19   H37   S    
Ba2   O4    S    
C50   C52   A    
C13   C21   S    
O1    P1    D    
O16   P8    D    
C22   H49   S    
C23   H55   S    
C26   C30   A    
C45   H3    S    
C43   H41   S    
C12   H34   S    
C38   H47   S    
C19   C43   A    
C9    C18   A    
C4    H20   S    
C1    H23   S    
Ba2   O8    S    
C5    C6    S    
C17   C20   A    
C5    O11   S    
O4    P4    D    
C37   C38   D    
C51   C55   A    
C56   O24   S    
C56   H6    S    
C48   N3    S    
C5    H26   S    
C37   P1    S    
C23   H24   S    
Ba2   O13   S    
C35   H38   S    
C27   H40   S    
C58   C59   A    
C40   C43   A    
N3    H59   S    
C8    H33   S    
C41   C42   A    
C58   P5    S    
C13   P8    S    
C35   C36   S    
C34   O7    S    
O22   P6    S    
O15   P7    S    
Ba2   O9    S    
C29   C30   A    
C8    H32   S    
C44   H43   S    
C14   P4    S    
C15   C16   S    
C60   H8    S    
Ba1   O27   S    
C6    H27   S    
Ba1   P2    S    
C1    H12   S    
C9    O18   D    
C61   O2    S    
C16   N1    S    
C11   C16   D    
C46   C47   A    
C20   C44   A    
C14   C21   D    
C11   C13   S    
C62   H15   S    
C29   C33   A    
C9    N1    Am   
C49   C57   A    
C40   C41   A    
C1    C2    S    
O3    P3    S    
C45   H4    S    
O6    P8    S    
C51   H50   S    
C24   C40   A    
C42   C48   A    
C53   P2    S    
C38   C39   S    
Ba2   O14   S    
C62   H14   S    
C6    H29   S    
Ba2   O12   S    
C36   P6    S    
C11   H42   S    
Ba1   O8    S    
C12   O3    S    
C52   P3    S    
C56   H5    S    
C61   H10   S    
C1    H17   S    
C44   C48   A    
C24   C26   A    
C49   H52   S    
C4    H22   S    
C10   O20   D    
C30   C31   A    
C39   N2    S    
C33   N2    Am   
O24   P1    S    
Ba1   O1    S    
N3    H58   S    
O2    P2    S    
C3    H18   S    
C46   H44   S    
C61   H11   S    
C7    O17   S    
C31   C32   A    
C60   H7    S    
C34   H57   S    
O25   P6    S    
C12   C23   S    
C35   C39   D    
C8    H35   S    
C34   H56   S    
C15   H36   S    
C33   O19   D    
C27   C28   A    
C61   C62   S    
C10   N1    Am   
C18   C19   A    
C24   C27   A    
O27   P3    S    
C50   H53   S    
C25   C26   A    
C54   C59   A    
C49   C58   A    
Ba1   O12   S    
C7    H30   S    
Ba2   O5    S    
C47   H46   S    
C2    O25   S    
