data_mof_unit_41786.cif
_audit_creation_date              2012-10-26T19:41:30-0400
_audit_creation_method            fapswitch 2.2
_symmetry_space_group_name_H-M    P1
_symmetry_Int_Tables_number       1
_space_group_crystal_system       triclinic
_cell_length_a                    17.152408
_cell_length_b                    10.974915
_cell_length_c                    9.87565
_cell_angle_alpha                 110.652349
_cell_angle_beta                  92.503955
_cell_angle_gamma                 93.185295
_cell_volume                      1732.90983643

loop_
_atom_site_label
_atom_site_type_symbol
_atom_type_description
_atom_site_fract_x
_atom_site_fract_y
_atom_site_fract_z
_atom_type_partial_charge
C1    C     C_R   0.491350 0.254187 0.443268 0.587504
C2    C     C_R   0.647828 0.496594 0.478425 0.587584
C3    C     C_R   0.269086 0.510584 0.539471 0.032585
C4    C     C_R   0.731482 0.496573 0.461883 0.072821
C5    C     C_R   0.221285 0.394934 0.474940 -0.157849
C6    C     C_R   0.779870 0.603398 0.552861 -0.175119
C7    C     C_R   0.140941 0.395321 0.486108 -0.095406
C8    C     C_R   0.860237 0.605320 0.542214 -0.095013
C9    C     C_R   0.107888 0.511633 0.561556 0.010408
C10   C     C_R   0.893194 0.498649 0.443091 0.025420
C11   C     C_R   0.155229 0.627377 0.627700 -0.064611
C12   C     C_R   0.502998 0.745421 0.557905 0.558102
C13   C     C_R   0.844834 0.392903 0.349180 -0.137432
C14   C     C_R   0.236017 0.629005 0.616435 0.247308
C15   C     C_R   0.763282 0.391008 0.357719 0.225202
C16   C     C_2   0.022525 0.514130 0.564981 0.258918
C17   C     C_2   0.978969 0.494962 0.441089 0.271025
C18   C     C_R   0.398877 0.530456 0.912575 0.092878
C19   C     C_R   0.347642 0.417369 0.854790 -0.093423
C20   C     C_R   0.266696 0.426903 0.850720 -0.124292
C21   C     C_R   0.236379 0.549058 0.905954 -0.089548
C22   C     C_R   0.286974 0.662072 0.962957 -0.073364
C23   C     C_2   0.480464 0.114309 0.417177 -0.074223
C24   C     C_R   0.367968 0.653001 0.966158 -0.053008
C25   C     C_R   0.586114 0.576863 0.146464 0.084065
C26   C     C_R   0.654511 0.509764 0.116763 -0.070020
C27   C     C_R   0.728003 0.577182 0.164316 -0.111266
C28   C     C_R   0.733807 0.711708 0.241091 -0.113947
C29   C     C_R   0.666268 0.779779 0.266408 -0.133305
C30   C     C_R   0.592850 0.713152 0.216167 -0.082938
C31   C     C_2   0.499749 0.884600 0.587121 -0.076650
C32   C     C_2   0.464556 0.070317 0.525303 0.194141
C33   C     C_2   0.459598 0.928697 0.495643 0.189387
C34   C     C_2   0.509670 0.508682 0.078416 0.082072
C35   C     C_2   0.483567 0.521765 0.937449 0.081596
C36   C     C_R   0.352345 0.504672 0.521764 0.528170
Cu1   Cu    Cu3+1 0.513640 0.521550 0.643210 0.976828
Cu2   Cu    Cu3+1 0.486360 0.478450 0.356790 1.004539
H1    H     H_    0.246345 0.304343 0.415654 0.117621
H2    H     H_    0.413215 0.400411 0.089871 0.207325
H3    H     H_    0.745931 0.221816 0.202259 0.316209
H4    H     H_    0.334786 0.737667 0.658972 0.338409
H5    H     H_    0.974966 0.465377 0.235118 0.318656
H6    H     H_    0.028783 0.546334 0.771308 0.316561
H7    H     H_    0.384668 0.894359 0.330626 0.311548
H8    H     H_    0.435940 0.106857 0.723468 0.312967
H9    H     H_    0.370173 0.322138 0.816886 0.154466
H10   H     H_    0.227454 0.339491 0.806431 0.122565
H11   H     H_    0.173698 0.556215 0.903794 0.111096
H12   H     H_    0.755232 0.685551 0.631790 0.119335
H13   H     H_    0.263409 0.756657 0.005451 0.128948
H14   H     H_    0.406545 0.741011 0.014003 0.107406
H15   H     H_    0.650746 0.405760 0.055805 0.139059
H16   H     H_    0.780471 0.525104 0.141742 0.120826
H17   H     H_    0.790700 0.763462 0.278893 0.121056
H18   H     H_    0.670868 0.884522 0.322531 0.121187
H19   H     H_    0.541377 0.767839 0.229961 0.151869
H20   H     H_    0.129038 0.717331 0.685115 0.139905
H21   H     H_    0.870730 0.310842 0.272549 0.106666
H22   H     H_    0.896945 0.689027 0.613014 0.152080
H23   H     H_    0.104317 0.305545 0.434670 0.141618
H24   H     H_    0.531758 0.952378 0.684360 0.074381
H25   H     H_    0.485523 0.045968 0.307734 0.056537
H26   H     H_    0.592482 0.552815 0.886246 0.216489
N1    N     N_2   0.465840 0.446060 0.141630 -0.348679
N2    N     N_2   0.534160 0.553940 0.858370 -0.362116
O1    O     O_R   0.507280 0.332200 0.576490 -0.421379
O2    O     O_3   0.279167 0.747596 0.679675 -0.705497
O3    O     O_3   0.015116 0.469656 0.312329 -0.723699
O4    O     O_3   0.987339 0.536589 0.694165 -0.733253
O5    O     O_3   0.414732 0.842991 0.376616 -0.692920
O6    O     O_3   0.455813 0.156659 0.664008 -0.703667
O7    O     O_R   0.492720 0.667800 0.423510 -0.439623
O8    O     O_R   0.484240 0.295800 0.334620 -0.500393
O9    O     O_R   0.515760 0.704200 0.665380 -0.513729
O10   O     O_R   0.399260 0.520290 0.634950 -0.496999
O11   O     O_R   0.600740 0.479710 0.365050 -0.461769
O12   O     O_R   0.376220 0.483890 0.393080 -0.487816
O13   O     O_R   0.623780 0.516110 0.606920 -0.518807
O14   O     O_3   0.714141 0.286719 0.269100 -0.703581

loop_
_geom_bond_atom_site_label_1
_geom_bond_atom_site_label_2
_ccdc_geom_bond_type
C24   H14   S    
C17   O3    S    
H7    O5    S    
C19   C20   A    
H3    O14   S    
C21   H11   S    
C27   H16   S    
C32   O6    S    
Cu1   O13   S    
C26   C27   A    
C29   C30   A    
C18   C24   A    
C1    O8    A    
C28   C29   A    
C9    C16   S    
C18   C19   A    
C11   C14   A    
C19   H9    S    
C10   C17   S    
C30   H19   S    
C34   C35   S    
C7    H23   S    
C2    O13   A    
C36   O10   A    
C16   C17   D    
C31   C33   D    
H6    O4    S    
C11   H20   S    
C18   C35   S    
H8    O6    S    
C25   C34   S    
C23   H25   S    
Cu1   O9    S    
H5    O3    S    
C12   O7    A    
H4    O2    S    
C31   H24   S    
C34   N1    D    
C28   H17   S    
C16   O4    S    
C4    C6    A    
C5    C7    A    
C6    C8    A    
Cu2   O12   S    
C35   N2    D    
C25   C26   A    
H26   N2    S    
C2    C4    S    
Cu1   Cu2   S    
C15   O14   S    
Cu2   N1    S    
Cu1   N2    S    
C6    H12   S    
C9    C11   A    
C20   H10   S    
C3    C14   A    
Cu2   O11   S    
Cu1   O10   S    
C1    C23   S    
H2    N1    S    
C13   C15   A    
C12   C31   S    
C22   C24   A    
C26   H15   S    
Cu2   O8    S    
C25   C30   A    
C7    C9    A    
C23   C32   D    
C3    C5    A    
C10   C13   A    
C13   H21   S    
C29   H18   S    
C32   C33   S    
C4    C15   A    
C5    H1    S    
C2    O11   A    
C36   O12   A    
C8    H22   S    
C3    C36   S    
Cu1   O1    S    
C1    O1    A    
C33   O5    S    
C20   C21   A    
C8    C10   A    
C12   O9    A    
C27   C28   A    
C14   O2    S    
C21   C22   A    
C22   H13   S    
Cu2   O7    S    
