data_mof_unit_6290.cif
_audit_creation_date              2013-03-05T16:36:33-0500
_audit_creation_method            fapswitch 2.2
_symmetry_space_group_name_H-M    P1
_symmetry_Int_Tables_number       1
_space_group_crystal_system       triclinic
_cell_length_a                    19.330529
_cell_length_b                    18.411881
_cell_length_c                    10.428209
_cell_angle_alpha                 89.998011
_cell_angle_beta                  89.954895
_cell_angle_gamma                 89.974617
_cell_volume                      3711.51694418

loop_
_atom_site_label
_atom_site_type_symbol
_atom_site_description
_atom_site_fract_x
_atom_site_fract_y
_atom_site_fract_z
_atom_type_partial_charge
O1    O     O_R   0.398180 0.560840 0.499970 -0.609826
O2    O     O_R   0.601820 0.439160 0.500030 -0.609824
O3    O     O_R   0.601820 0.560840 0.500030 -0.609728
O4    O     O_R   0.398180 0.439160 0.499970 -0.609728
C1    C     C_R   0.365616 0.500018 0.499731 0.920300
C2    C     C_R   0.634384 0.499982 0.500269 0.920299
O5    O     O_R   0.499990 0.560810 0.316770 -0.626966
O6    O     O_R   0.500010 0.439190 0.683230 -0.626968
O7    O     O_R   0.500010 0.560810 0.683230 -0.626985
O8    O     O_R   0.499990 0.439190 0.316770 -0.626985
C3    C     C_R   0.488255 0.500007 0.259802 0.939820
C4    C     C_R   0.511745 0.499993 0.740198 0.939820
Zn1   Zn    Zn3+2 0.500000 0.581210 0.500000 1.021510
Zn2   Zn    Zn3+2 0.500000 0.418790 0.500000 1.021510
H1    H     H_    0.456175 0.249718 0.083986 0.201311
H2    H     H_    0.543824 0.750282 0.916014 0.201311
H3    H     H_    0.543776 0.249667 0.916051 0.201325
H4    H     H_    0.456224 0.750333 0.083948 0.201325
C5    C     C_R   0.452494 0.633394 0.102524 0.362670
C6    C     C_R   0.547506 0.366606 0.897476 0.362670
C7    C     C_R   0.547532 0.633339 0.897457 0.362997
C8    C     C_R   0.452468 0.366661 0.102543 0.362996
C9    C     C_R   0.475671 0.698834 0.049076 -0.299157
C10   C     C_R   0.524329 0.301166 0.950924 -0.299159
C11   C     C_R   0.524367 0.698806 0.950895 -0.299118
C12   C     C_R   0.475632 0.301194 0.049105 -0.299120
C13   C     C_R   0.519692 0.566604 0.943599 -0.096241
C14   C     C_R   0.480308 0.433396 0.056401 -0.096241
C15   C     C_R   0.480321 0.566627 0.056393 -0.096280
C16   C     C_R   0.519679 0.433373 0.943607 -0.096279
C17   C     C_R   0.526810 0.499984 0.877740 -0.055369
C18   C     C_R   0.473190 0.500016 0.122260 -0.055368
C19   C     C_R   0.745543 0.433857 0.502898 -0.127481
C20   C     C_R   0.254457 0.566143 0.497101 -0.127481
C21   C     C_R   0.254404 0.434085 0.496796 -0.125525
C22   C     C_R   0.745596 0.565914 0.503203 -0.125526
H5    H     H_    0.718569 0.382298 0.502837 0.178699
H6    H     H_    0.281431 0.617702 0.497163 0.178699
H7    H     H_    0.281336 0.382479 0.497181 0.178360
H8    H     H_    0.718664 0.617521 0.502818 0.178359
C23   C     C_R   0.817177 0.433828 0.503664 -0.166309
C24   C     C_R   0.182823 0.566172 0.496335 -0.166309
C25   C     C_R   0.182766 0.434196 0.495940 -0.167950
C26   C     C_R   0.817234 0.565804 0.504059 -0.167950
H9    H     H_    0.844551 0.382473 0.504922 0.141081
H10   H     H_    0.155449 0.617528 0.495077 0.141081
H11   H     H_    0.155357 0.382885 0.496975 0.139727
H12   H     H_    0.844643 0.617115 0.503024 0.139727
C27   C     C_R   0.853132 0.499779 0.503787 0.105215
C28   C     C_R   0.146868 0.500221 0.496212 0.105215
C29   C     C_R   0.709456 0.499921 0.502078 -0.019565
C30   C     C_R   0.290544 0.500079 0.497922 -0.019565
C31   C     C_R   0.964720 0.544396 0.587165 -0.165947
C32   C     C_R   0.035280 0.455604 0.412834 -0.165947
C33   C     C_R   0.036359 0.544663 0.584971 -0.180516
C34   C     C_R   0.963641 0.455337 0.415028 -0.180516
H13   H     H_    0.937775 0.578296 0.655894 0.147319
H14   H     H_    0.062225 0.421704 0.344105 0.147319
H15   H     H_    0.064167 0.578682 0.652200 0.141275
H16   H     H_    0.935833 0.421318 0.347799 0.141275
C35   C     C_R   0.071751 0.500274 0.497792 0.106231
C36   C     C_R   0.928249 0.499726 0.502207 0.106231
C37   C     C_R   0.538631 0.725876 0.411825 0.106692
C38   C     C_R   0.461372 0.274124 0.588179 0.106692
C39   C     C_R   0.461368 0.725908 0.588174 0.106542
C40   C     C_R   0.538629 0.274092 0.411821 0.106542
H17   H     H_    0.568754 0.695793 0.342281 0.112078
H18   H     H_    0.431250 0.304207 0.657727 0.112078
H19   H     H_    0.431245 0.695850 0.657717 0.111867
H20   H     H_    0.568751 0.304150 0.342274 0.111868
C41   C     C_R   0.539341 0.801964 0.410053 -0.259586
C42   C     C_R   0.460661 0.198035 0.589951 -0.259587
C43   C     C_R   0.460658 0.801997 0.589947 -0.259613
C44   C     C_R   0.539339 0.198003 0.410048 -0.259614
H21   H     H_    0.569684 0.829650 0.337728 0.133173
H22   H     H_    0.430320 0.170349 0.662280 0.133174
H23   H     H_    0.430314 0.829708 0.662272 0.133081
H24   H     H_    0.569681 0.170292 0.337719 0.133082
C45   C     C_R   0.500000 0.841334 0.500000 0.122483
C46   C     C_R   0.500000 0.158666 0.499999 0.122484
N1    N     N_R   0.500000 0.689440 0.500000 -0.075804
N2    N     N_R   0.500000 0.310560 0.500000 -0.075803
C47   C     C_R   0.439096 0.961942 0.526317 -0.172293
C48   C     C_R   0.560903 0.038058 0.473682 -0.172294
C49   C     C_R   0.560903 0.961886 0.473683 -0.172339
C50   C     C_R   0.439097 0.038114 0.526316 -0.172339
H25   H     H_    0.390949 0.933775 0.544856 0.140017
H26   H     H_    0.609051 0.066225 0.455143 0.140018
H27   H     H_    0.609051 0.933675 0.455144 0.140042
H28   H     H_    0.390949 0.066326 0.544856 0.140043
C51   C     C_R   0.500000 0.077331 0.499999 0.119666
C52   C     C_R   0.500000 0.922669 0.500000 0.119667
N3    N     N_R   0.397457 0.635225 0.195851 0.213425
O9    O     O_R   0.353034 0.582287 0.202678 -0.374730
O10   O     O_R   0.386851 0.693216 0.264493 -0.418411
N4    N     N_R   0.602543 0.364775 0.804149 0.213425
O11   O     O_R   0.613149 0.306784 0.735507 -0.418411
O12   O     O_R   0.646966 0.417713 0.797322 -0.374730
N5    N     N_R   0.602569 0.635105 0.804130 0.213283
O13   O     O_R   0.646986 0.582121 0.797323 -0.375592
O14   O     O_R   0.613183 0.693082 0.735472 -0.418855
N6    N     N_R   0.397431 0.364894 0.195870 0.213283
O15   O     O_R   0.386817 0.306918 0.264528 -0.418855
O16   O     O_R   0.353014 0.417880 0.202677 -0.375592

loop_
_geom_bond_atom_site_label_1
_geom_bond_atom_site_label_2
_geom_bond_distance
_ccdc_geom_bond_type
C26   C27   1.399488 A    
C47   H25   1.082914 S    
N3    O9    1.301204 A    
C33   H15   1.083384 S    
C13   C15   1.400475 A    
C5    C9    1.401124 A    
C20   C24   1.384764 A    
C42   H22   1.082722 S    
O3    C2    1.284984 A    
C41   C45   1.407851 A    
C6    C16   1.425141 A    
O5    C3    1.287698 A    
C47   C52   1.408170 A    
C37   N1    1.361062 A    
O1    C1    1.284887 A    
C38   H18   1.082074 S    
C10   C12   1.390278 A    
C15   C18   1.412411 A    
C50   C51   1.408170 A    
C16   C17   1.412411 A    
C7    N5    1.441703 S    
C40   C44   1.401136 A    
Zn1   N1    1.992716 S    
C39   C43   1.401138 A    
C24   H10   1.083422 S    
O7    Zn1   1.947315 S    
C6    C10   1.401125 A    
N4    O12   1.301204 A    
O6    Zn2   1.947340 S    
C1    C30   1.451307 S    
C48   C51   1.408170 A    
C2    C29   1.451307 S    
C21   C25   1.384833 A    
O3    Zn1   2.003484 S    
C38   C42   1.401134 A    
C7    C13   1.425140 A    
N3    O10   1.301567 A    
C44   C46   1.407858 A    
O4    Zn2   2.003488 S    
O2    C2    1.284888 A    
C23   C27   1.399394 A    
C49   C52   1.408169 A    
C32   C34   1.385000 A    
C31   C33   1.385000 A    
C37   H17   1.082068 S    
H3    C10   1.082645 S    
C13   C17   1.412414 A    
H4    C9    1.082646 S    
C14   C18   1.412414 A    
C48   C49   1.402479 A    
C50   H28   1.082916 S    
C31   H13   1.083387 S    
H1    C12   1.082646 S    
C19   H5    1.083265 S    
C34   H16   1.083384 S    
C21   H7    1.083266 S    
C40   N2    1.361070 A    
C31   C36   1.399981 A    
C39   N1    1.361062 A    
N5    O13   1.301204 A    
C22   H8    1.083266 S    
O6    C4    1.287697 A    
N4    O11   1.301569 A    
C43   C45   1.407850 A    
N6    O16   1.301204 A    
C38   N2    1.361070 A    
C45   C52   1.497523 S    
C22   C29   1.401906 A    
C24   C28   1.399394 A    
N5    O14   1.301566 A    
C37   C41   1.401134 A    
C3    C18   1.463805 S    
C4    C17   1.463804 S    
C8    C12   1.401121 A    
C34   C36   1.400389 A    
C22   C26   1.384833 A    
O1    Zn1   2.003814 S    
Zn2   N2    1.992716 S    
C5    C15   1.425143 A    
C32   H14   1.083387 S    
H2    C11   1.082646 S    
C7    C11   1.401120 A    
C49   H27   1.082916 S    
C27   C36   1.452138 S    
C20   H6    1.083266 S    
C48   H26   1.082915 S    
O4    C1    1.284983 A    
C5    N3    1.441705 S    
C25   C28   1.399487 A    
C32   C35   1.399981 A    
C19   C29   1.401969 A    
C20   C30   1.401971 A    
C8    N6    1.441703 S    
C19   C23   1.384764 A    
C46   C51   1.497519 S    
C14   C16   1.400476 A    
C42   C46   1.407857 A    
C41   H21   1.082716 S    
C40   H20   1.082073 S    
C39   H19   1.082067 S    
C33   C35   1.400389 A    
C9    C11   1.390278 A    
C6    N4    1.441703 S    
N6    O15   1.301567 A    
O2    Zn2   2.003811 S    
O7    C4    1.287696 A    
O8    C3    1.287697 A    
O5    Zn1   1.947340 S    
C47   C50   1.402477 A    
C43   H23   1.082717 S    
C44   H24   1.082723 S    
C21   C30   1.401907 A    
C28   C35   1.452138 S    
C23   H9    1.083421 S    
C8    C14   1.425140 A    
C25   H11   1.083402 S    
C26   H12   1.083402 S    
O8    Zn2   1.947315 S    
