data_mof_unit_39595.cif
_audit_creation_date              2012-12-11T14:14:20-0500
_audit_creation_method            fapswitch 2.2
_symmetry_space_group_name_H-M    P1
_symmetry_Int_Tables_number       1
_space_group_crystal_system       monoclinic
_cell_length_a                    17.149522
_cell_length_b                    7.288566
_cell_length_c                    16.899872
_cell_angle_alpha                 90.0
_cell_angle_beta                  99.259433
_cell_angle_gamma                 90.0
_cell_volume                      2084.88175564

loop_
_atom_site_label
_atom_site_type_symbol
_atom_type_description
_atom_site_fract_x
_atom_site_fract_y
_atom_site_fract_z
_atom_type_partial_charge
O1    O     O_R   0.414560 0.494370 0.416770 -0.501859
O2    O     O_R   0.585440 0.994370 0.583230 -0.501859
O3    O     O_R   0.578370 0.819590 0.429320 -0.535537
O4    O     O_R   0.421630 0.319590 0.570680 -0.535537
C1    C     C_R   0.603891 0.655215 0.413284 0.805968
C2    C     C_R   0.396109 0.155215 0.586716 0.805968
O5    O     O_R   0.414740 0.823790 0.407360 -0.576071
O6    O     O_R   0.585260 0.323790 0.592640 -0.576071
O7    O     O_R   0.420650 0.998510 0.561120 -0.543574
O8    O     O_R   0.579350 0.498510 0.438880 -0.543574
C3    C     C_R   0.388439 0.655435 0.385308 0.661640
C4    C     C_R   0.611561 0.155435 0.614692 0.661640
O9    O     O_3   0.502130 0.662240 0.550470 -0.378512
O10   O     O_3   0.497870 0.162240 0.449530 -0.378512
V1    V     V_3+5 0.499600 0.935390 0.490640 1.541597
V2    V     V_3+5 0.500400 0.435390 0.509360 1.541597
C5    C     C_2   0.773908 0.262726 0.797570 0.529535
C6    C     C_2   0.226092 0.762726 0.202429 0.529535
C7    C     C_2   0.810692 0.108090 0.829131 0.419827
C8    C     C_2   0.189308 0.608089 0.170869 0.419827
C9    C     C_2   0.698805 0.262695 0.738325 -0.238489
C10   C     C_2   0.301195 0.762695 0.261675 -0.238489
C11   C     C_2   0.682403 0.142639 0.677149 0.450114
C12   C     C_2   0.317597 0.642639 0.322850 0.450113
H1    H     H_    0.658612 0.376642 0.741528 0.156578
H2    H     H_    0.341388 0.876641 0.258472 0.156578
C13   C     C_R   0.331594 0.144241 0.635680 -0.298465
C14   C     C_R   0.668406 0.644241 0.364320 -0.298466
C15   C     C_R   0.167916 0.117138 0.864208 -0.330123
C16   C     C_R   0.832084 0.617138 0.135792 -0.330122
C17   C     C_R   0.307286 0.081395 0.851869 0.685786
C18   C     C_R   0.692714 0.581395 0.148131 0.685786
C19   C     C_R   0.246380 0.078425 0.898482 0.534686
C20   C     C_R   0.753620 0.578425 0.101517 0.534685
C21   C     C_R   0.150648 0.153689 0.781210 -0.093644
C22   C     C_R   0.849352 0.653689 0.218789 -0.093645
C23   C     C_R   0.210646 0.132565 0.732423 -0.164812
C24   C     C_R   0.789354 0.632565 0.267577 -0.164813
C25   C     C_R   0.290264 0.109764 0.768232 -0.299967
C26   C     C_R   0.709736 0.609764 0.231768 -0.299967
C27   C     C_R   0.350401 0.114987 0.719368 0.671755
C28   C     C_R   0.649599 0.614987 0.280632 0.671756
C29   C     C_R   0.251110 0.154359 0.599766 -0.194659
C30   C     C_R   0.748890 0.654359 0.400234 -0.194659
C31   C     C_R   0.192274 0.133419 0.648181 0.608997
C32   C     C_R   0.807726 0.633419 0.351819 0.608998
O11   O     O_R   0.920750 0.773600 0.061260 -0.536719
O12   O     O_R   0.079250 0.273600 0.938740 -0.536719
O13   O     O_R   0.085340 0.439850 0.092570 -0.514644
O14   O     O_R   0.914660 0.939850 0.907430 -0.514644
C33   C     C_R   0.114644 0.607583 0.111706 0.623756
C34   C     C_R   0.885356 0.107583 0.888294 0.623756
O15   O     O_R   0.921720 0.444130 0.070790 -0.542856
O16   O     O_R   0.078280 0.944130 0.929210 -0.542855
O17   O     O_R   0.914480 0.269530 0.916840 -0.513100
O18   O     O_R   0.085520 0.769530 0.083160 -0.513100
C35   C     C_R   0.895357 0.611972 0.084974 0.806659
C36   C     C_R   0.104643 0.111972 0.915026 0.806659
O19   O     O_3   0.997840 0.601520 0.949550 -0.379690
O20   O     O_3   0.002160 0.101520 0.050450 -0.379691
V3    V     V_3+5 0.000400 0.328340 0.009360 1.617539
V4    V     V_3+5 0.999600 0.828340 0.990640 1.617539
F1    F     F_    0.803346 0.430035 0.822402 -0.651386
F2    F     F_    0.196654 0.930035 0.177598 -0.651386
C37   C     C_R   0.073595 0.235144 0.746150 0.221420
C38   C     C_R   0.003188 0.135902 0.743234 -0.122407
C39   C     C_R   0.934010 0.200286 0.696675 -0.172611
C40   C     C_R   0.935696 0.356379 0.649508 -0.043797
C41   C     C_R   0.004297 0.461562 0.655509 -0.098414
C42   C     C_R   0.072649 0.403697 0.705282 -0.078510
H3    H     H_    0.002559 0.004905 0.773282 0.089072
H4    H     H_    0.879969 0.123170 0.693135 0.153719
H5    H     H_    0.884245 0.392782 0.607107 0.128268
H6    H     H_    0.005437 0.584176 0.619657 0.132783
H7    H     H_    0.126429 0.482707 0.707148 0.099474
C43   C     C_R   0.926405 0.735144 0.253850 0.221419
C44   C     C_R   0.996812 0.635901 0.256766 -0.122407
C45   C     C_R   0.065990 0.700286 0.303325 -0.172611
C46   C     C_R   0.064304 0.856379 0.350492 -0.043797
C47   C     C_R   0.995703 0.961562 0.344491 -0.098414
C48   C     C_R   0.927351 0.903697 0.294718 -0.078510
H8    H     H_    0.997441 0.504905 0.226718 0.089072
H9    H     H_    0.120030 0.623170 0.306865 0.153719
H10   H     H_    0.115755 0.892782 0.392893 0.128268
H11   H     H_    0.994563 0.084176 0.380343 0.132783
H12   H     H_    0.873571 0.982707 0.292852 0.099474
F3    F     F_    0.775724 0.942145 0.811779 -0.597624
F4    F     F_    0.224276 0.442145 0.188221 -0.597624
F5    F     F_    0.734209 0.008306 0.667565 -0.673295
F6    F     F_    0.265790 0.508306 0.332435 -0.673295
F7    F     F_    0.427534 0.096834 0.752885 -0.598476
F8    F     F_    0.572466 0.596834 0.247115 -0.598476
C49   C     C_R   0.224191 0.194753 0.513029 0.146033
C50   C     C_R   0.254169 0.101264 0.451589 -0.201928
C51   C     C_R   0.222389 0.132950 0.371268 0.006521
C52   C     C_R   0.155968 0.244616 0.351607 0.035906
C53   C     C_R   0.124776 0.334902 0.412150 -0.190265
C54   C     C_R   0.160864 0.317695 0.491574 -0.005477
H13   H     H_    0.299206 0.998010 0.464950 0.121951
H14   H     H_    0.246524 0.063778 0.324395 0.164464
H15   H     H_    0.128579 0.260348 0.289650 0.162775
H16   H     H_    0.071718 0.416015 0.398275 0.157077
H17   H     H_    0.136447 0.393668 0.536956 0.137664
C55   C     C_R   0.775808 0.694753 0.486971 0.146033
C56   C     C_R   0.745831 0.601263 0.548411 -0.201928
C57   C     C_R   0.777611 0.632950 0.628732 0.006521
C58   C     C_R   0.844032 0.744616 0.648393 0.035906
C59   C     C_R   0.875224 0.834902 0.587850 -0.190265
C60   C     C_R   0.839136 0.817695 0.508425 -0.005478
H18   H     H_    0.700794 0.498009 0.535049 0.121951
H19   H     H_    0.753477 0.563777 0.675605 0.164464
H20   H     H_    0.871421 0.760349 0.710349 0.162775
H21   H     H_    0.928282 0.916015 0.601724 0.157077
H22   H     H_    0.863553 0.893668 0.463044 0.137664
F9    F     F_    0.382570 0.052112 0.888831 -0.515060
F10   F     F_    0.617430 0.552112 0.111168 -0.515060
F11   F     F_    0.116502 0.103886 0.611963 -0.699694
F12   F     F_    0.883498 0.603886 0.388037 -0.699695
F13   F     F_    0.264505 0.043357 0.978245 -0.579895
F14   F     F_    0.735495 0.543357 0.021755 -0.579895

loop_
_geom_bond_atom_site_label_1
_geom_bond_atom_site_label_2
_ccdc_geom_bond_type
C56   H18   S    
C49   C50   A    
C58   H20   S    
C51   C52   A    
O1    C3    A    
O2    C4    A    
O11   V4    S    
C53   C54   A    
C30   C55   S    
C25   C27   A    
C44   C45   A    
O5    C3    A    
C4    C11   S    
C44   H8    S    
C10   C12   D    
C21   C23   A    
C33   O18   A    
C8    C33   S    
C7    F3    S    
C55   C60   A    
C57   C58   A    
C21   C37   S    
C37   C42   A    
C16   C35   S    
C15   C19   A    
C3    C12   S    
C59   C60   A    
C32   F12   S    
C39   H4    S    
C14   C28   A    
C22   C43   S    
C29   C49   S    
O15   V3    S    
C45   H9    S    
C2    C13   S    
C40   C41   A    
O13   C33   A    
O14   C34   A    
C58   C59   A    
C17   C19   A    
C28   F8    S    
C48   H12   S    
C34   O17   A    
O5    V1    S    
C38   C39   A    
O6    V2    S    
C52   H15   S    
C41   C42   A    
C2    O7    A    
C7    C34   S    
C17   F9    S    
C55   C56   A    
C30   C32   A    
C57   H19   S    
C20   F14   S    
O13   V3    S    
C16   C20   A    
C39   C40   A    
C43   C44   A    
O4    C2    A    
O15   C35   A    
C51   H14   S    
O16   V4    S    
C40   H5    S    
C14   C30   A    
C5    C9    S    
O20   V3    S    
C18   C20   A    
C59   H21   S    
O4    V2    S    
C47   H11   S    
O11   C35   A    
C1    C14   S    
C13   C27   A    
C38   H3    S    
O6    C4    A    
C52   C53   A    
C11   F5    S    
C8    F4    S    
C41   H6    S    
O1    V2    S    
C18   F10   S    
O2    V1    S    
C29   C31   A    
C60   H22   S    
C27   F7    S    
C19   F13   S    
C9    C11   D    
O14   V4    S    
O18   V4    S    
C23   C31   A    
O3    V1    S    
O16   C36   A    
C31   F11   S    
C9    H1    S    
O19   V4    S    
C6    C10   S    
C53   H16   S    
C47   C48   A    
O3    C1    A    
C12   F6    S    
C43   C48   A    
O12   C36   A    
C56   C57   A    
C15   C21   A    
C16   C22   A    
C22   C24   A    
O7    V1    S    
C1    O8    A    
C23   C25   A    
O8    V2    S    
C5    F1    S    
C24   C26   A    
C45   C46   A    
C6    F2    S    
O12   V3    S    
C46   H10   S    
C50   H13   S    
O17   V3    S    
C26   C28   A    
C5    C7    D    
C17   C25   A    
C6    C8    D    
C18   C26   A    
C50   C51   A    
C24   C32   A    
C46   C47   A    
C13   C29   A    
C15   C36   S    
C37   C38   A    
C10   H2    S    
O9    V2    S    
C42   H7    S    
O10   V1    S    
C49   C54   A    
C54   H17   S    
