data_mof_unit_16775.cif
_audit_creation_date              2012-10-26T21:20:09-0400
_audit_creation_method            fapswitch 2.2
_symmetry_space_group_name_H-M    P1
_symmetry_Int_Tables_number       1
_space_group_crystal_system       triclinic
_cell_length_a                    13.013051
_cell_length_b                    10.88485
_cell_length_c                    9.564819
_cell_angle_alpha                 88.949236
_cell_angle_beta                  96.698635
_cell_angle_gamma                 92.808221
_cell_volume                      1343.83643496

loop_
_atom_site_label
_atom_site_type_symbol
_atom_type_description
_atom_site_fract_x
_atom_site_fract_y
_atom_site_fract_z
_atom_type_partial_charge
C1    C     C_R   0.508747 0.262749 0.502875 0.591002
C2    C     C_R   0.699353 0.495909 0.527460 0.568340
C3    C     C_R   0.812306 0.488445 0.545227 0.002953
C4    C     C_R   0.187691 0.511543 0.454767 0.002934
C5    C     C_R   0.024158 0.563369 0.321520 0.031099
C6    C     C_R   0.975836 0.436600 0.678466 0.031093
C7    C     C_R   0.132803 0.562256 0.332891 0.194092
C8    C     C_R   0.867190 0.437704 0.667088 0.194037
C9    C     C_R   0.134696 0.467539 0.565316 -0.110512
C10   C     C_R   0.865302 0.532459 0.434683 -0.110482
C11   C     C_R   0.028006 0.476583 0.561965 -0.006371
C12   C     C_R   0.491246 0.737250 0.497124 0.591096
C13   C     C_R   0.971990 0.523402 0.438029 -0.006363
C14   C     C_R   0.530925 0.066327 0.383123 0.190467
C15   C     C_R   0.469051 0.933668 0.616875 0.190551
C16   C     C_R   0.503926 0.940996 0.370894 -0.027863
C17   C     C_R   0.496042 0.059001 0.629101 -0.027863
C18   C     C_2   0.967414 0.604670 0.186023 0.307996
C19   C     C_2   0.032576 0.395280 0.813957 0.308018
C20   C     C_2   0.487854 0.888979 0.226990 0.380043
C21   C     C_2   0.512086 0.111023 0.773002 0.380049
C22   C     C_2   0.360484 0.335857 0.128722 0.368653
C23   C     C_R   0.482820 0.871949 0.492427 0.000019
C24   C     C_2   0.639656 0.663944 0.871286 0.368605
C25   C     C_R   0.517159 0.128047 0.507571 -0.000005
C26   C     C_R   0.434080 0.421180 0.065323 0.144170
C27   C     C_R   0.565949 0.578778 0.934678 0.144160
C28   C     C_R   0.434305 0.421296 0.916837 0.365301
C29   C     C_R   0.565699 0.578700 0.083157 0.365137
C30   C     C_R   0.300646 0.504087 0.472539 0.568254
Cl1   Cl    Cl    0.801716 0.374134 0.806366 -0.488270
Cl2   Cl    Cl    0.198270 0.625768 0.193577 -0.488108
Cl3   Cl    Cl    0.590369 0.142054 0.244673 -0.477845
Cl4   Cl    Cl    0.409620 0.857935 0.755334 -0.477799
Cl5   Cl    Cl    0.346235 0.320082 0.816341 -0.548044
Cl6   Cl    Cl    0.653750 0.679948 0.183630 -0.548191
Cu1   Cu    Cu3+1 0.500000 0.500020 0.640660 1.144265
Cu2   Cu    Cu3+1 0.500000 0.499980 0.359340 1.144122
H1    H     H_    0.821963 0.575691 0.345899 0.220660
H2    H     H_    0.178037 0.424322 0.654108 0.220680
H3    H     H_    0.993995 0.687281 0.133226 0.180746
H4    H     H_    0.006000 0.312652 0.866732 0.180759
H5    H     H_    0.542626 0.910978 0.151996 0.206984
H6    H     H_    0.457280 0.089053 0.847960 0.207016
H7    H     H_    0.294118 0.369966 0.171176 0.152492
H8    H     H_    0.706191 0.629696 0.829325 0.152598
N1    N     N_R   0.500030 0.500030 0.852080 -0.264316
N2    N     N_R   0.499970 0.499970 0.147920 -0.264336
O1    O     O_R   0.499990 0.319660 0.618740 -0.448410
O2    O     O_2   0.106198 0.456575 0.871215 -0.436452
O3    O     O_2   0.409505 0.826637 0.188114 -0.386149
O4    O     O_2   0.590449 0.173331 0.811916 -0.386107
O5    O     O_2   0.369898 0.224976 0.125527 -0.428763
O6    O     O_2   0.630140 0.774842 0.873955 -0.428715
O7    O     O_R   0.500010 0.680340 0.381260 -0.448392
O8    O     O_R   0.499990 0.319630 0.381170 -0.462819
O9    O     O_R   0.500010 0.680370 0.618830 -0.462490
O10   O     O_R   0.349000 0.499990 0.599490 -0.460712
O11   O     O_R   0.651000 0.500010 0.400510 -0.460699
O12   O     O_R   0.348990 0.499960 0.361920 -0.502896
O13   O     O_R   0.651010 0.500040 0.638080 -0.502844
O14   O     O_2   0.893781 0.543379 0.128787 -0.436575

loop_
_geom_bond_atom_site_label_1
_geom_bond_atom_site_label_2
_ccdc_geom_bond_type
Cu2   O8    S    
Cu1   O13   S    
C24   C27   S    
C28   N1    A    
C19   H4    S    
Cu1   Cu2   S    
C7    Cl2   S    
Cu1   N1    S    
C21   H6    S    
C9    C11   A    
C15   Cl4   S    
C5    C13   A    
Cu1   O10   S    
C19   O2    D    
C2    O13   A    
C26   N2    A    
C16   C20   S    
C4    C30   S    
C17   C25   A    
C16   C23   A    
C20   H5    S    
C14   Cl3   S    
C15   C23   A    
C2    C3    S    
C24   H8    S    
C20   O3    D    
C3    C10   A    
C1    C25   S    
C6    C19   S    
C11   C13   A    
C29   Cl6   S    
C4    C7    A    
Cu2   O12   S    
C12   O9    A    
C30   O10   A    
C26   C28   A    
C1    O8    A    
Cu2   N2    S    
C22   O5    D    
C9    H2    S    
C14   C25   A    
C14   C16   A    
C12   O7    A    
C27   C29   A    
C29   N2    A    
C24   O6    D    
Cu2   O11   S    
C22   H7    S    
Cu1   O1    S    
C6    C8    A    
C15   C17   A    
C3    C8    A    
C22   C26   S    
C18   H3    S    
C27   N1    A    
C6    C11   A    
C5    C7    A    
C2    O11   A    
C18   O14   D    
C12   C23   S    
C5    C18   S    
C4    C9    A    
C8    Cl1   S    
C1    O1    A    
C21   O4    D    
Cu1   O9    S    
Cu2   O7    S    
C28   Cl5   S    
C30   O12   A    
C10   H1    S    
C10   C13   A    
C17   C21   S    
