data_mof_unit_32856.cif
_audit_creation_date              2012-12-10T17:28:31-0500
_audit_creation_method            fapswitch 2.2
_symmetry_space_group_name_H-M    P1
_symmetry_Int_Tables_number       1
_space_group_crystal_system       triclinic
_cell_length_a                    10.654777
_cell_length_b                    11.997176
_cell_length_c                    12.849278
_cell_angle_alpha                 93.233693
_cell_angle_beta                  89.553651
_cell_angle_gamma                 86.552169
_cell_volume                      1636.80118435

loop_
_atom_site_label
_atom_site_type_symbol
_atom_type_description
_atom_site_fract_x
_atom_site_fract_y
_atom_site_fract_z
_atom_type_partial_charge
C1    C     C_R   0.498409 0.521929 0.700366 0.847974
C2    C     C_R   0.528185 0.556474 0.132137 -0.180474
C3    C     C_R   0.482579 0.449774 0.974533 0.211442
C4    C     C_R   0.519178 0.549918 0.025420 0.219267
C5    C     C_R   0.386842 0.954299 0.400248 -0.312208
C6    C     C_R   0.613142 0.045702 0.599767 -0.314961
C7    C     C_R   0.397260 0.838128 0.410077 0.039092
C8    C     C_R   0.602731 0.161873 0.589930 0.038917
C9    C     C_R   0.548182 0.858448 0.543433 -0.034210
C10   C     C_R   0.451807 0.141551 0.456577 -0.029465
C11   C     C_R   0.540919 0.975799 0.536349 0.088141
C12   C     C_R   0.501790 0.478060 0.299634 0.851645
C13   C     C_R   0.459065 0.024202 0.463666 0.086152
C14   C     C_R   0.739156 0.500185 0.497768 0.877471
C15   C     C_R   0.260834 0.499820 0.502239 0.877776
C16   C     C_R   0.877172 0.458120 0.307413 -0.262874
C17   C     C_R   0.122621 0.544140 0.692304 -0.265983
C18   C     C_R   0.946473 0.436138 0.214798 0.541093
C19   C     C_R   0.053233 0.566893 0.784759 0.458037
C20   C     C_R   0.077197 0.435032 0.217054 -0.170235
C21   C     C_R   0.922566 0.566572 0.782680 -0.220325
C22   C     C_R   0.138214 0.455096 0.311024 -0.264241
C23   C     C_R   0.499794 0.465045 0.188425 -0.041383
C24   C     C_R   0.861697 0.544984 0.688933 -0.253639
C25   C     C_R   0.069301 0.477203 0.405494 0.078292
C26   C     C_R   0.930654 0.522888 0.594494 0.082387
C27   C     C_R   0.938228 0.478662 0.403761 -0.002348
C28   C     C_R   0.061698 0.522013 0.596161 0.006910
C29   C     C_R   0.128537 0.498831 0.501549 -0.127658
C30   C     C_R   0.871439 0.501226 0.498455 -0.127526
C31   C     C_R   0.501206 0.534830 0.811559 -0.033224
C32   C     C_R   0.546164 0.641948 0.968938 -0.112179
C33   C     C_R   0.455783 0.357676 0.030975 -0.127262
C34   C     C_R   0.537368 0.634327 0.861460 -0.156222
C35   C     C_R   0.464346 0.365341 0.138453 -0.154328
C36   C     C_R   0.473098 0.443346 0.867866 -0.190293
H1    H     H_    0.867257 0.583226 0.853477 0.213247
H2    H     H_    0.443949 0.366767 0.828731 0.156120
H3    H     H_    0.441247 0.294716 0.182363 0.154505
H4    H     H_    0.560451 0.704927 0.817511 0.150981
H5    H     H_    0.574671 0.718834 0.007648 0.142086
H6    H     H_    0.427429 0.280746 0.992242 0.142706
H7    H     H_    0.389294 0.180261 0.401223 0.126675
H8    H     H_    0.610693 0.819738 0.598789 0.126627
H9    H     H_    0.658378 0.215614 0.638980 0.140511
H10   H     H_    0.341613 0.784388 0.361028 0.147109
H11   H     H_    0.924996 0.358726 0.937918 0.382360
H12   H     H_    0.132413 0.418965 0.146142 0.223538
H13   H     H_    0.203337 0.748347 0.853309 0.348951
H14   H     H_    0.323026 0.989017 0.343601 0.157617
H15   H     H_    0.676955 0.010985 0.656417 0.153903
H16   H     H_    0.775757 0.459463 0.303140 0.159692
H17   H     H_    0.223980 0.544018 0.696477 0.162216
H18   H     H_    0.239684 0.453336 0.308642 0.152488
H19   H     H_    0.760271 0.546032 0.691396 0.149482
H20   H     H_    0.557049 0.633124 0.171328 0.157815
N1    N     N_R   0.523130 0.207800 0.519340 -0.103552
N2    N     N_R   0.476870 0.792200 0.480660 -0.105059
O1    O     O_R   0.506170 0.421700 0.658830 -0.631330
O2    O     O_2   0.815396 0.522370 0.060769 -0.319833
O3    O     O_3   0.970330 0.353527 0.004655 -0.522863
O4    O     O_2   0.040311 0.648001 0.984472 -0.258774
O5    O     O_2   0.187769 0.487681 0.940418 -0.276624
O6    O     O_3   0.245740 0.682184 0.883667 -0.555595
O7    O     O_R   0.493830 0.578300 0.341170 -0.628466
O8    O     O_R   0.491330 0.609310 0.646410 -0.623155
O9    O     O_R   0.508670 0.390690 0.353590 -0.620228
O10   O     O_R   0.690650 0.406190 0.506220 -0.612643
O11   O     O_R   0.309350 0.593810 0.493780 -0.614043
O12   O     O_R   0.675800 0.593810 0.493800 -0.616611
O13   O     O_R   0.324200 0.406190 0.506200 -0.617566
O14   O     O_2   0.764413 0.336063 0.110958 -0.320611
S1    S     S_3+6 0.869101 0.412252 0.095842 0.018663
S2    S     S_3+6 0.130723 0.595472 0.902945 0.024525
Zn1   Zn    Zn3+2 0.509910 0.374730 0.508290 0.956698
Zn2   Zn    Zn3+2 0.490090 0.625270 0.491710 0.954880

loop_
_geom_bond_atom_site_label_1
_geom_bond_atom_site_label_2
_ccdc_geom_bond_type
C17   H17   S    
C35   H3    S    
N2    Zn2   S    
C22   H18   S    
C24   H19   S    
C12   C23   S    
O7    Zn2   S    
C34   H4    S    
C33   H6    S    
C28   C29   A    
C19   C21   A    
C24   C26   A    
C1    O1    A    
C3    C33   A    
O2    S1    D    
C1    C31   S    
O11   Zn2   S    
C9    N2    A    
C8    H9    S    
C17   C19   A    
C22   C25   A    
C32   H5    S    
C6    H15   S    
C7    N2    A    
C5    C13   A    
C16   C27   A    
H13   O6    S    
C27   C30   A    
C14   O12   A    
C14   C30   S    
C15   C29   S    
C25   C29   A    
C15   O11   A    
C12   O9    A    
C7    H10   S    
C10   N1    A    
C6    C11   A    
C5    C7    A    
C6    C8    A    
O3    S1    S    
O10   Zn1   S    
C32   C34   A    
C2    C4    A    
C8    N1    A    
O8    Zn2   S    
C1    O8    A    
C31   C34   A    
C4    C32   A    
C9    C11   A    
C20   H12   S    
C20   C22   A    
C26   C30   A    
C18   S1    S    
C23   C35   A    
O12   Zn2   S    
C5    H14   S    
O9    Zn1   S    
C3    C4    A    
O1    Zn1   S    
C9    H8    S    
O6    S2    S    
C10   H7    S    
C17   C28   A    
C19   S2    S    
C16   H16   S    
O14   S1    D    
C10   C13   A    
H11   O3    S    
O5    S2    D    
C25   C27   A    
C15   O13   A    
C12   O7    A    
C26   C28   A    
N1    Zn1   S    
C36   H2    S    
C2    H20   S    
O13   Zn1   S    
C11   C13   A    
C3    C36   A    
C33   C35   A    
C18   C20   A    
C21   H1    S    
C16   C18   A    
C21   C24   A    
C2    C23   A    
C14   O10   A    
C31   C36   A    
O4    S2    D    
