data_mof_unit_62269.cif
_audit_creation_date              2012-12-10T18:01:14-0500
_audit_creation_method            fapswitch 2.2
_symmetry_space_group_name_H-M    P1
_symmetry_Int_Tables_number       1
_space_group_crystal_system       triclinic
_cell_length_a                    18.269924
_cell_length_b                    18.357268
_cell_length_c                    25.860604
_cell_angle_alpha                 89.905194
_cell_angle_beta                  90.047452
_cell_angle_gamma                 89.943111
_cell_volume                      8673.26258456

loop_
_atom_site_label
_atom_site_type_symbol
_atom_type_description
_atom_site_fract_x
_atom_site_fract_y
_atom_site_fract_z
_atom_type_partial_charge
Br1   Br    Br    0.180547 0.798690 0.638565 -0.401805
Br2   Br    Br    0.846757 0.771074 0.645640 -0.394800
Br3   Br    Br    0.736031 0.869147 0.343124 -0.371362
Br4   Br    Br    0.224314 0.833810 0.359238 -0.383806
Br5   Br    Br    0.680664 0.298781 0.138555 -0.401605
Br6   Br    Br    0.347471 0.270446 0.145879 -0.395021
Br7   Br    Br    0.236040 0.369144 0.843132 -0.371412
Br8   Br    Br    0.724545 0.334007 0.859192 -0.383664
C1    C     C_R   0.861211 0.141030 0.748529 0.855629
C2    C     C_R   0.194260 0.197687 0.252193 -0.123381
C3    C     C_R   0.275664 0.721598 0.198840 0.148694
C4    C     C_R   0.191191 0.200467 0.743970 -0.150430
C5    C     C_R   0.807359 0.198969 0.746004 -0.148589
C6    C     C_R   0.305963 0.697967 0.752352 -0.138572
C7    C     C_R   0.694241 0.697701 0.752215 -0.123623
C8    C     C_R   0.691191 0.700467 0.243969 -0.150431
C9    C     C_R   0.307350 0.698961 0.246012 -0.148549
C10   C     C_R   0.775783 0.220997 0.205580 -0.209954
C11   C     C_R   0.234516 0.210493 0.207409 -0.217893
C12   C     C_R   0.197635 0.246449 0.786325 -0.231118
C13   C     C_R   0.138580 0.141310 0.748134 0.849008
C14   C     C_R   0.789891 0.233776 0.792062 -0.213758
C15   C     C_R   0.275741 0.720961 0.705577 -0.209938
C16   C     C_R   0.734202 0.710792 0.707342 -0.217926
C17   C     C_R   0.697634 0.746449 0.286323 -0.231115
C18   C     C_R   0.289819 0.733706 0.292082 -0.213691
C19   C     C_R   0.221795 0.773940 0.704689 0.267316
C20   C     C_R   0.788816 0.763057 0.706861 0.265843
C21   C     C_R   0.746859 0.802986 0.286178 0.276719
C22   C     C_R   0.238118 0.788319 0.293173 0.273126
C23   C     C_R   0.721840 0.273978 0.204690 0.267376
C24   C     C_R   0.139330 0.140655 0.250817 0.845711
C25   C     C_R   0.289130 0.262766 0.206936 0.265780
C26   C     C_R   0.246861 0.302986 0.786181 0.276733
C27   C     C_R   0.738203 0.288400 0.793151 0.273161
C28   C     C_R   0.197935 0.805293 0.751343 -0.169518
C29   C     C_R   0.802531 0.804738 0.751304 -0.164270
C30   C     C_R   0.796326 0.810744 0.244466 -0.192190
C31   C     C_R   0.200472 0.807463 0.247406 -0.182195
C32   C     C_R   0.697941 0.305297 0.251346 -0.169562
C33   C     C_R   0.302545 0.304729 0.251290 -0.164012
C34   C     C_R   0.296326 0.310744 0.744468 -0.192192
C35   C     C_R   0.860695 0.140679 0.250829 0.854469
C36   C     C_R   0.700487 0.307477 0.747397 -0.182263
C37   C     C_R   0.043647 0.955694 0.973416 -0.171602
C38   C     C_R   0.043709 0.955814 0.026725 -0.168978
C39   C     C_R   0.543654 0.455700 0.473416 -0.171643
C40   C     C_R   0.543716 0.455820 0.526725 -0.168989
C41   C     C_R   0.994627 0.000138 0.053471 -0.080995
C42   C     C_R   0.994500 0.999912 0.946494 -0.083987
C43   C     C_R   0.494629 0.500138 0.553471 -0.080990
C44   C     C_R   0.494501 0.499912 0.446494 -0.084006
C45   C     C_R   0.942343 0.042809 0.027016 0.133848
C46   C     C_R   0.361210 0.641029 0.248531 0.855674
C47   C     C_R   0.942263 0.042680 0.972754 0.138413
C48   C     C_R   0.442340 0.542804 0.527016 0.133833
C49   C     C_R   0.442260 0.542675 0.472754 0.138425
C50   C     C_R   0.140399 0.860229 0.750220 0.883782
C51   C     C_R   0.859709 0.860079 0.750155 0.888539
C52   C     C_R   0.857845 0.861809 0.248419 0.862661
C53   C     C_R   0.141089 0.860746 0.249431 0.870410
C54   C     C_R   0.640401 0.360230 0.250221 0.883806
C55   C     C_R   0.359714 0.360075 0.250150 0.888697
C56   C     C_R   0.357845 0.361808 0.748419 0.862665
C57   C     C_R   0.638580 0.641309 0.248134 0.849002
C58   C     C_R   0.641093 0.360750 0.749428 0.870353
C59   C     C_R   0.998385 0.999983 0.890837 0.841885
C60   C     C_R   0.998416 0.000078 0.109152 0.834427
C61   C     C_R   0.498386 0.499983 0.390837 0.841880
C62   C     C_R   0.498417 0.500078 0.609152 0.834431
C63   C     C_R   0.999369 0.999145 0.608683 0.838763
C64   C     C_R   0.999841 0.998637 0.391307 0.843634
C65   C     C_R   0.499371 0.499114 0.108683 0.838825
C66   C     C_R   0.499841 0.498624 0.891307 0.843615
C67   C     C_3   0.916341 0.997708 0.528674 0.030285
C68   C     C_R   0.639317 0.640665 0.750829 0.845741
C69   C     C_3   0.040607 0.928891 0.530713 -0.005694
C70   C     C_3   0.049813 0.934356 0.470825 0.001270
C71   C     C_3   0.918442 0.985738 0.469465 0.009009
C72   C     C_3   0.416341 0.497458 0.028684 0.030147
C73   C     C_3   0.540753 0.428927 0.030710 -0.005645
C74   C     C_3   0.549930 0.434412 0.970820 0.001292
C75   C     C_3   0.418460 0.485545 0.969466 0.008991
C76   C     C_3   0.035529 0.065903 0.529702 -0.491160
C77   C     C_3   0.028113 0.069387 0.470137 -0.491053
C78   C     C_3   0.535375 0.565934 0.029705 -0.491145
C79   C     C_R   0.360693 0.640677 0.750827 0.854428
C80   C     C_3   0.527969 0.569401 0.970142 -0.491050
C81   C     C_3   0.997022 0.996418 0.551087 -0.051955
C82   C     C_3   0.998703 0.995675 0.448930 -0.055203
C83   C     C_3   0.497027 0.496363 0.051088 -0.051965
C84   C     C_3   0.498703 0.495639 0.948930 -0.055142
C85   C     C_R   0.229982 0.784334 0.798925 0.106826
C86   C     C_R   0.761792 0.792666 0.796925 0.101406
C87   C     C_R   0.784632 0.769941 0.198529 0.114859
C88   C     C_R   0.221641 0.776279 0.199517 0.113489
C89   C     C_R   0.729958 0.284310 0.298933 0.106823
C90   C     C_R   0.805968 0.197970 0.252357 -0.138605
C91   C     C_R   0.261530 0.292926 0.296820 0.101273
C92   C     C_R   0.284631 0.269942 0.698530 0.114868
C93   C     C_R   0.721603 0.276240 0.699514 0.113498
C94   C     C_R   0.784217 0.229873 0.299452 0.151187
C95   C     C_R   0.207232 0.238473 0.297383 0.141167
C96   C     C_R   0.231182 0.214679 0.698168 0.147002
C97   C     C_R   0.775628 0.221562 0.698836 0.148708
C98   C     C_R   0.284240 0.729897 0.799444 0.151133
C99   C     C_R   0.707492 0.738215 0.797490 0.141249
C100  C     C_R   0.731183 0.714677 0.198167 0.147002
H1    H     H_    0.896394 0.054486 0.534599 0.142444
H2    H     H_    0.094571 0.065410 0.540381 0.236536
H3    H     H_    0.082407 0.082516 0.453007 0.236544
H4    H     H_    0.990166 0.114352 0.459210 0.217649
H5    H     H_    0.510972 0.615900 0.046941 0.211675
H6    H     H_    0.594414 0.565578 0.040392 0.236505
H7    H     H_    0.582245 0.582626 0.953020 0.236565
H8    H     H_    0.489946 0.614301 0.959209 0.217664
H9    H     H_    0.793178 0.196367 0.169565 0.208174
H10   H     H_    0.224765 0.178122 0.173061 0.186264
H11   H     H_    0.163209 0.239052 0.820053 0.214933
H12   H     H_    0.096617 0.930334 0.547712 0.163332
H13   H     H_    0.816517 0.217978 0.827860 0.217555
H14   H     H_    0.293110 0.696305 0.669564 0.208149
H15   H     H_    0.724228 0.678636 0.672923 0.186466
H16   H     H_    0.663208 0.739053 0.320051 0.214933
H17   H     H_    0.316398 0.717861 0.327887 0.217514
H18   H     H_    0.083057 0.922192 0.953063 0.192406
H19   H     H_    0.083155 0.922391 0.047212 0.192091
H20   H     H_    0.583067 0.422203 0.453063 0.192402
H21   H     H_    0.583165 0.422401 0.547212 0.192076
H22   H     H_    0.107038 0.952938 0.463947 0.164352
H23   H     H_    0.883086 0.028727 0.451996 0.156231
H24   H     H_    0.396235 0.554174 0.034638 0.142558
H25   H     H_    0.596762 0.430490 0.047701 0.163349
H26   H     H_    0.607120 0.453093 0.963934 0.164362
H27   H     H_    0.383030 0.528490 0.952018 0.156281
H28   H     H_    0.011247 0.115925 0.546943 0.211656
I1    I     I_    0.824944 0.942194 0.567018 -0.083397
I2    I     I_    0.780688 0.858904 0.863756 -0.201465
I3    I     I_    0.838701 0.797802 0.127045 -0.168818
I4    I     I_    0.179279 0.817135 0.127418 -0.233931
I5    I     I_    0.700599 0.338768 0.369319 -0.248693
I6    I     I_    0.280064 0.359536 0.363508 -0.201725
I7    I     I_    0.338698 0.297805 0.627046 -0.168884
I8    I     I_    0.679171 0.317017 0.627412 -0.233829
I9    I     I_    0.837438 0.199515 0.370342 -0.238877
I10   I     I_    0.142069 0.219471 0.364858 -0.248363
I11   I     I_    0.206271 0.159356 0.626824 -0.225246
I12   I     I_    0.998613 0.826865 0.560080 -0.083025
I13   I     I_    0.814271 0.178726 0.626420 -0.236940
I14   I     I_    0.337499 0.699573 0.870327 -0.239007
I15   I     I_    0.642702 0.718868 0.865100 -0.248271
I16   I     I_    0.706276 0.659351 0.126823 -0.225104
I17   I     I_    0.314357 0.678806 0.126424 -0.237052
I18   I     I_    0.860482 0.102158 0.068915 -0.206216
I19   I     I_    0.860227 0.101774 0.930541 -0.193510
I20   I     I_    0.360474 0.602145 0.568915 -0.206238
I21   I     I_    0.360217 0.601758 0.430541 -0.193408
I22   I     I_    0.054117 0.832133 0.428616 -0.142405
I23   I     I_    0.867464 0.885217 0.443287 -0.095418
I24   I     I_    0.325165 0.441605 0.067050 -0.083780
I25   I     I_    0.498981 0.326806 0.060078 -0.082833
I26   I     I_    0.554397 0.332197 0.928609 -0.142392
I27   I     I_    0.367648 0.384972 0.943227 -0.095784
I28   I     I_    0.200659 0.838832 0.869304 -0.248719
O1    O     O_3   0.000000 0.000000 0.749970 -0.527180
O2    O     O_R   0.646190 0.585480 0.219360 -0.615949
O3    O     O_R   0.646190 0.585480 0.780640 -0.616537
O4    O     O_R   0.353810 0.585480 0.780640 -0.610603
O5    O     O_R   0.146170 0.914530 0.719320 -0.603534
O6    O     O_R   0.853830 0.914530 0.719320 -0.602497
O7    O     O_R   0.853830 0.914530 0.280680 -0.592642
O8    O     O_R   0.146170 0.914530 0.280680 -0.599259
O9    O     O_R   0.646170 0.414530 0.219320 -0.603531
O10   O     O_R   0.353830 0.414530 0.219320 -0.602600
O11   O     O_R   0.353830 0.414530 0.780680 -0.592645
O12   O     O_3   0.000000 0.000000 0.250030 -0.529137
O13   O     O_R   0.646170 0.414530 0.780680 -0.599209
O14   O     O_R   0.085450 0.146180 0.780600 -0.642882
O15   O     O_R   0.914550 0.146180 0.780600 -0.633643
O16   O     O_R   0.914550 0.146180 0.219400 -0.626551
O17   O     O_R   0.085450 0.146180 0.219400 -0.628811
O18   O     O_R   0.585450 0.646180 0.280600 -0.642885
O19   O     O_R   0.414550 0.646180 0.280600 -0.633619
O20   O     O_R   0.414550 0.646180 0.719400 -0.626557
O21   O     O_R   0.585450 0.646180 0.719400 -0.628954
O22   O     O_R   0.914560 0.853830 0.780620 -0.616146
O23   O     O_3   0.500000 0.500000 0.249970 -0.527171
O24   O     O_R   0.085440 0.853830 0.780620 -0.616528
O25   O     O_R   0.085440 0.853830 0.219380 -0.615504
O26   O     O_R   0.914560 0.853830 0.219380 -0.616238
O27   O     O_R   0.414560 0.353830 0.280620 -0.616127
O28   O     O_R   0.585440 0.353830 0.280620 -0.616514
O29   O     O_R   0.585440 0.353830 0.719380 -0.615509
O30   O     O_R   0.414560 0.353830 0.719380 -0.616233
O31   O     O_R   0.000000 0.060730 0.866830 -0.622249
O32   O     O_R   0.000000 0.060730 0.133170 -0.623767
O33   O     O_R   0.500000 0.560730 0.366830 -0.622248
O34   O     O_3   0.500000 0.500000 0.750030 -0.529137
O35   O     O_R   0.500000 0.560730 0.633170 -0.623770
O36   O     O_R   0.939250 0.000010 0.633130 -0.609263
O37   O     O_R   0.060750 0.000010 0.633130 -0.627537
O38   O     O_R   0.060750 0.000010 0.366870 -0.619313
O39   O     O_R   0.939250 0.000010 0.366870 -0.619521
O40   O     O_R   0.439250 0.500010 0.133130 -0.609400
O41   O     O_R   0.560750 0.500010 0.133130 -0.627524
O42   O     O_R   0.560750 0.500010 0.866870 -0.619253
O43   O     O_R   0.439250 0.500010 0.866870 -0.619551
O44   O     O_R   0.000000 0.939270 0.866820 -0.621181
O45   O     O_R   0.853810 0.085480 0.719360 -0.615083
O46   O     O_R   1.000000 0.939270 0.133180 -0.618126
O47   O     O_R   0.500000 0.439270 0.366820 -0.621226
O48   O     O_R   0.500000 0.439270 0.633180 -0.618117
O49   O     O_R   0.146190 0.085480 0.719360 -0.615946
O50   O     O_R   0.146190 0.085480 0.280640 -0.616633
O51   O     O_R   0.853810 0.085480 0.280640 -0.610614
O52   O     O_R   0.353810 0.585480 0.219360 -0.615072
Zn1   Zn    Zn3+2 0.086750 0.999990 0.706190 1.044401
Zn2   Zn    Zn3+2 0.000000 0.086770 0.206250 1.022245
Zn3   Zn    Zn3+2 0.500000 0.586770 0.293750 1.015937
Zn4   Zn    Zn3+2 0.500000 0.586770 0.706250 1.022168
Zn5   Zn    Zn3+2 1.000000 0.913230 0.793740 1.051105
Zn6   Zn    Zn3+2 1.000000 0.913230 0.206260 1.041423
Zn7   Zn    Zn3+2 0.500000 0.413230 0.293740 1.051144
Zn8   Zn    Zn3+2 0.500000 0.413230 0.706260 1.041418
Zn9   Zn    Zn3+2 0.913250 0.999990 0.706190 1.059117
Zn10  Zn    Zn3+2 0.913250 0.999990 0.293810 1.059279
Zn11  Zn    Zn3+2 0.086750 0.999990 0.293810 1.047542
Zn12  Zn    Zn3+2 0.586750 0.499990 0.206190 1.044449
Zn13  Zn    Zn3+2 0.413250 0.499990 0.206190 1.059072
Zn14  Zn    Zn3+2 0.413250 0.499990 0.793810 1.059236
Zn15  Zn    Zn3+2 0.586750 0.499990 0.793810 1.047623
Zn16  Zn    Zn3+2 0.000000 0.086770 0.793750 1.015904

loop_
_geom_bond_atom_site_label_1
_geom_bond_atom_site_label_2
_ccdc_geom_bond_type
C3    C88   A    
O5    Zn1   S    
C80   H8    S    
C62   O35   A    
O46   Zn6   S    
O21   Zn4   S    
O27   Zn7   S    
C62   O48   A    
C91   I6    S    
O16   Zn2   S    
C26   C34   A    
C35   C90   S    
C48   I20   S    
C77   H4    S    
C35   O51   A    
C73   C74   S    
O1    Zn5   S    
C63   O36   A    
O23   Zn3   S    
C69   C70   S    
C70   C82   S    
C46   O52   A    
C14   C27   A    
O29   Zn8   S    
C38   C41   A    
C69   C81   S    
O12   Zn6   S    
C6    C98   A    
C51   O22   A    
C78   H5    S    
C98   I14   S    
C9    C18   A    
C20   C29   A    
C64   O38   A    
C2    C95   A    
C41   C60   S    
C14   H13   S    
C6    C79   S    
C4    C96   A    
C28   C50   S    
C78   C83   S    
O26   Zn6   S    
C94   I9    S    
C71   I23   S    
O8    Zn11  S    
C55   O27   A    
C72   I24   S    
C66   C84   S    
C72   H24   S    
C74   C84   S    
C92   C96   A    
C30   C87   A    
C32   C54   S    
C23   C32   A    
C68   O3    A    
C43   C48   A    
C7    C99   A    
O40   Zn13  S    
Br3   C21   S    
C1    C5    S    
C71   C82   S    
C75   I27   S    
C44   C61   S    
C100  I16   S    
C36   C58   S    
C28   C85   A    
C70   I22   S    
C40   C43   A    
C3    C9    A    
C80   C84   S    
C11   H10   S    
C1    O45   A    
C56   O30   A    
C21   C30   A    
O31   Zn16  S    
O1    Zn16  S    
C33   C91   A    
C61   O47   A    
C43   C62   S    
C15   C19   A    
C51   O6    A    
C42   C59   S    
C37   H18   S    
C75   H27   S    
C89   C94   A    
C53   O25   A    
O1    Zn1   S    
C66   O43   A    
C24   O50   A    
O24   Zn5   S    
C69   H12   S    
C7    C68   S    
C60   O46   A    
C45   I18   S    
O11   Zn14  S    
O12   Zn2   S    
C61   O33   A    
C96   I11   S    
O45   Zn9   S    
C72   C75   S    
C59   O31   A    
C58   O13   A    
C15   H14   S    
C57   O18   A    
C45   C47   A    
C93   C97   A    
C31   C53   S    
C65   O40   A    
C35   O16   A    
C67   H1    S    
C22   C31   A    
C50   O24   A    
C24   O17   A    
C39   H20   S    
C50   O5    A    
C76   C77   S    
C65   C83   S    
C5    C97   A    
C91   C95   A    
C67   I1    S    
C79   O20   A    
O49   Zn1   S    
O25   Zn6   S    
C54   O28   A    
C74   I26   S    
C85   I28   S    
O44   Zn5   S    
C37   C38   A    
C54   O9    A    
C65   O41   A    
C57   O2    A    
O9    Zn12  S    
C16   H15   S    
C76   H2    S    
Br8   C27   S    
O23   Zn13  S    
C6    C15   A    
C74   H26   S    
C39   C44   A    
C47   I19   S    
C88   I4    S    
C75   C84   S    
C34   C92   A    
C85   C98   A    
C64   C82   S    
C38   H19   S    
C39   C40   A    
C63   C81   S    
O7    Zn10  S    
O20   Zn4   S    
C2    C11   A    
C36   C93   A    
C71   H23   S    
C4    C12   A    
O1    Zn9   S    
O52   Zn13  S    
O47   Zn7   S    
C60   O32   A    
C53   O8    A    
C7    C16   A    
C56   O11   A    
C73   H25   S    
O50   Zn11  S    
C69   I12   S    
C89   I5    S    
C17   H16   S    
C29   C51   S    
C87   C100  A    
C64   O39   A    
C30   C52   S    
C29   C86   A    
C52   O26   A    
C13   O14   A    
O22   Zn5   S    
C18   C22   A    
C8    C100  A    
C86   C99   A    
C79   O4    A    
O41   Zn12  S    
O34   Zn8   S    
C86   I2    S    
Br7   C26   S    
C13   O49   A    
C40   H21   S    
C48   C49   A    
C33   C55   S    
C34   C56   S    
C32   C89   A    
C58   O29   A    
O12   Zn10  S    
C55   O10   A    
O30   Zn8   S    
O48   Zn8   S    
C8    C17   A    
C63   O37   A    
O12   Zn11  S    
C49   I21   S    
C76   H28   S    
O19   Zn3   S    
O42   Zn15  S    
O34   Zn15  S    
C52   O7    A    
C73   I25   S    
C68   O21   A    
O34   Zn4   S    
O35   Zn4   S    
C16   C20   A    
O28   Zn7   S    
C11   C25   A    
C77   H3    S    
C92   I7    S    
C1    O15   A    
O13   Zn15  S    
O32   Zn2   S    
C77   C82   S    
O34   Zn14  S    
O43   Zn14  S    
O3    Zn15  S    
O38   Zn11  S    
C8    C57   S    
C19   C28   A    
C97   I13   S    
C87   I3    S    
C42   C47   A    
Br6   C25   S    
C78   H6    S    
O51   Zn10  S    
C25   C33   A    
C80   H7    S    
C70   H22   S    
C99   I15   S    
C90   C94   A    
O23   Zn12  S    
C17   C21   A    
C12   H11   S    
O23   Zn7   S    
C37   C42   A    
C72   C83   S    
C41   C45   A    
C4    C13   S    
C93   I8    S    
O4    Zn14  S    
C5    C14   A    
C78   C80   S    
O36   Zn9   S    
C67   C81   S    
O10   Zn13  S    
C31   C88   A    
C44   C49   A    
C3    I17   S    
O37   Zn1   S    
C12   C26   A    
C73   C83   S    
C2    C24   S    
O18   Zn3   S    
O2    Zn12  S    
O14   Zn16  S    
C76   C81   S    
O6    Zn9   S    
O17   Zn2   S    
Br1   C19   S    
C46   O19   A    
Br2   C20   S    
C10   C23   A    
C10   C90   A    
O15   Zn16  S    
O33   Zn3   S    
C10   H9    S    
C67   C71   S    
C9    C46   S    
C18   H17   S    
O39   Zn10  S    
Br4   C22   S    
C59   O44   A    
C95   I10   S    
C27   C36   A    
Br5   C23   S    
C66   O42   A    
