data_mof_unit_59337.cif
_audit_creation_date              2012-12-10T17:31:15-0500
_audit_creation_method            fapswitch 2.2
_symmetry_space_group_name_H-M    P1
_symmetry_Int_Tables_number       1
_space_group_crystal_system       triclinic
_cell_length_a                    12.073085
_cell_length_b                    12.859989
_cell_length_c                    15.563961
_cell_angle_alpha                 86.789448
_cell_angle_beta                  116.217156
_cell_angle_gamma                 93.288834
_cell_volume                      2163.02730297

loop_
_atom_site_label
_atom_site_type_symbol
_atom_type_description
_atom_site_fract_x
_atom_site_fract_y
_atom_site_fract_z
_atom_type_partial_charge
C1    C     C_R   0.477966 0.299640 0.500181 0.906327
C2    C     C_R   0.606641 0.972515 0.447634 -0.260894
C3    C     C_R   0.393834 0.135725 0.544647 0.094873
C4    C     C_R   0.606445 0.864350 0.455689 0.094398
C5    C     C_R   0.534185 0.133577 0.470074 -0.326070
C6    C     C_R   0.465894 0.866448 0.530085 -0.322724
C7    C     C_R   0.535375 0.026668 0.479260 0.168210
C8    C     C_R   0.464797 0.973376 0.520999 0.167358
C9    C     C_R   0.996464 0.594061 0.405124 0.021442
C10   C     C_R   0.002107 0.403262 0.592245 0.026182
C11   C     C_R   0.116891 0.584071 0.413070 0.188321
C12   C     C_R   0.522058 0.700371 0.499863 0.904205
C13   C     C_R   0.881039 0.411582 0.583284 0.189835
C14   C     C_R   0.164132 0.461094 0.542258 -0.065849
C15   C     C_R   0.836753 0.540790 0.459194 -0.070361
C16   C     C_R   0.576517 0.493160 0.680397 0.873183
C17   C     C_R   0.423322 0.505106 0.319676 0.871997
C18   C     C_R   0.042257 0.466199 0.534382 0.001005
C19   C     C_R   0.958146 0.534813 0.466152 -0.001326
C20   C     C_R   0.622849 0.480568 0.784325 -0.060637
C21   C     C_R   0.375436 0.496965 0.216261 -0.060524
C22   C     C_R   0.787216 0.475800 0.945674 -0.199191
C23   C     C_R   0.649787 0.465930 0.115958 -0.229289
C24   C     C_R   0.215508 0.447505 0.062023 -0.200440
C25   C     C_R   0.749118 0.483467 0.846931 -0.205913
C26   C     C_R   0.251421 0.470923 0.157331 -0.205153
C27   C     C_R   0.535981 0.465282 0.820659 -0.260112
C28   C     C_R   0.461519 0.502280 0.178991 -0.255087
C29   C     C_R   0.571560 0.455802 0.918904 0.091177
C30   C     C_R   0.430452 0.469134 0.087257 0.091214
C31   C     C_R   0.699223 0.464976 0.982056 0.180033
C32   C     C_R   0.304420 0.445450 0.026884 0.179473
C33   C     C_R   0.482547 0.445218 0.955445 0.068573
C34   C     C_R   0.356170 0.419910 0.896949 -0.231638
C35   C     C_R   0.521419 0.460983 0.053897 0.069054
C36   C     C_R   0.737007 0.466021 0.080408 -0.244123
C37   C     C_R   0.269119 0.419093 0.932739 -0.237508
C38   C     C_R   0.534556 0.811897 0.496567 -0.060603
C39   C     C_R   0.465545 0.188136 0.503596 -0.059668
C40   C     C_R   0.393624 0.027554 0.552710 -0.260459
H1    H     H_    0.834344 0.470776 0.129949 0.143085
H2    H     H_    0.322406 0.396735 0.823898 0.152884
H3    H     H_    0.411771 0.825359 0.562355 0.167310
H4    H     H_    0.588234 0.174652 0.437730 0.165832
H5    H     H_    0.339510 0.986359 0.584820 0.139625
H6    H     H_    0.660833 0.013727 0.415596 0.139366
H7    H     H_    0.771755 0.593755 0.407384 0.173030
H8    H     H_    0.229662 0.409201 0.595021 0.170209
H9    H     H_    0.777856 0.292767 0.607649 0.220098
H10   H     H_    0.824588 0.391344 0.688811 0.211492
H11   H     H_    0.156471 0.586423 0.299205 0.202199
H12   H     H_    0.173405 0.399078 0.886325 0.139548
H13   H     H_    0.223556 0.688024 0.375286 0.227247
H14   H     H_    0.951728 0.737689 0.342546 0.200117
H15   H     H_    0.898633 0.638301 0.265633 0.198627
H16   H     H_    0.093085 0.343771 0.727421 0.192281
H17   H     H_    0.042165 0.254447 0.641207 0.197749
H18   H     H_    0.767810 0.832946 0.454451 0.187335
H19   H     H_    0.643320 0.828445 0.346379 0.178600
H20   H     H_    0.357451 0.171790 0.654171 0.179099
H21   H     H_    0.232682 0.167162 0.546259 0.186834
H22   H     H_    0.553740 0.531648 0.223616 0.154934
H23   H     H_    0.439625 0.466467 0.770949 0.160144
H24   H     H_    0.183449 0.466160 0.185246 0.145555
H25   H     H_    0.817781 0.494439 0.819906 0.147856
H26   H     H_    0.885086 0.481282 0.993566 0.130277
H27   H     H_    0.119160 0.428070 0.016656 0.130912
H28   H     H_    0.685786 0.466876 0.192888 0.153837
N1    N     N_R   0.799120 0.480200 0.517090 -0.120391
N2    N     N_R   0.200880 0.519800 0.482910 -0.121168
N3    N     N_3   0.847921 0.346258 0.646324 -0.487164
N4    N     N_3   0.145598 0.639479 0.342787 -0.484304
N5    N     N_3   0.911794 0.662319 0.332676 -0.484080
N6    N     N_3   0.083456 0.328799 0.659195 -0.488891
N7    N     N_3   0.674954 0.808330 0.419198 -0.444696
N8    N     N_3   0.325551 0.191801 0.581309 -0.444051
O1    O     O_R   0.580150 0.341050 0.504560 -0.641864
O2    O     O_R   0.419850 0.658950 0.495440 -0.641555
O3    O     O_R   0.388090 0.353760 0.493600 -0.589085
O4    O     O_R   0.611910 0.646240 0.506400 -0.588249
O5    O     O_R   0.650890 0.490020 0.640860 -0.632301
O6    O     O_R   0.349110 0.509980 0.359140 -0.634340
O7    O     O_R   0.458830 0.502730 0.629890 -0.617809
O8    O     O_R   0.541170 0.497270 0.370110 -0.616227
Zn1   Zn    Zn3+2 0.628240 0.491510 0.507320 0.936142
Zn2   Zn    Zn3+2 0.371760 0.508490 0.492680 0.934661

loop_
_geom_bond_atom_site_label_1
_geom_bond_atom_site_label_2
_ccdc_geom_bond_type
C23   H28   S    
C21   C26   A    
C27   C29   A    
C34   C37   A    
C1    O1    A    
C14   C18   A    
C2    C7    A    
C34   H2    S    
C15   H7    S    
C11   N2    A    
C7    C8    A    
C2    H6    S    
C15   C19   A    
C30   C35   A    
C24   C26   A    
C18   C19   A    
C20   C25   A    
C29   C33   A    
C17   O6    A    
C26   H24   S    
C22   H26   S    
C4    N7    S    
C24   H27   S    
C9    C19   A    
C22   C25   A    
C12   O2    A    
C6    C38   A    
O2    Zn2   S    
O1    Zn1   S    
C14   N2    A    
C36   H1    S    
C9    N5    S    
H18   N7    S    
H21   N8    S    
C40   H5    S    
C15   N1    A    
H16   N6    S    
C22   C31   A    
C25   H25   S    
O8    Zn1   S    
C5    C7    A    
C37   H12   S    
C11   N4    S    
C14   H8    S    
C13   N3    S    
O6    Zn2   S    
H20   N8    S    
C16   O7    A    
C17   C21   S    
H17   N6    S    
C2    C4    A    
H10   N3    S    
C24   C32   A    
O4    Zn1   S    
H14   N5    S    
C16   C20   S    
C33   C34   A    
C32   C37   A    
C3    N8    S    
C9    C11   A    
C27   H23   S    
C5    H4    S    
C4    C38   A    
C3    C40   A    
C23   C35   A    
C6    H3    S    
C5    C39   A    
C1    O3    A    
H11   N4    S    
N2    Zn2   S    
H19   N7    S    
N1    Zn1   S    
C21   C28   A    
C10   C13   A    
C6    C8    A    
C20   C27   A    
C17   O8    A    
C28   C30   A    
C29   C31   A    
C30   C32   A    
C10   N6    S    
C13   N1    A    
C10   C18   A    
C12   O4    A    
C16   O5    A    
C33   C35   A    
C12   C38   S    
C1    C39   S    
C3    C39   A    
H15   N5    S    
O7    Zn2   S    
C23   C36   A    
H9    N3    S    
C31   C36   A    
C8    C40   A    
H13   N4    S    
O3    Zn2   S    
O5    Zn1   S    
C28   H22   S    
