data_mof_unit_16865.cif
_audit_creation_date              2012-12-10T18:58:40-0500
_audit_creation_method            fapswitch 2.2
_symmetry_space_group_name_H-M    P1
_symmetry_Int_Tables_number       1
_space_group_crystal_system       triclinic
_cell_length_a                    10.64332
_cell_length_b                    9.833826
_cell_length_c                    17.483623
_cell_angle_alpha                 89.758603
_cell_angle_beta                  90.958435
_cell_angle_gamma                 88.498129
_cell_volume                      1829.01128637

loop_
_atom_site_label
_atom_site_type_symbol
_atom_type_description
_atom_site_fract_x
_atom_site_fract_y
_atom_site_fract_z
_atom_type_partial_charge
C1    C     C_R   0.258166 0.502289 0.501125 0.888327
C2    C     C_R   0.497488 0.499824 0.646463 1.017851
C3    C     C_R   0.868007 0.496882 0.464685 -0.147537
C4    C     C_R   0.121954 0.507503 0.495272 -0.168053
C5    C     C_R   0.383281 0.596045 0.840961 0.407399
C6    C     C_R   0.367363 0.432135 0.158473 0.389391
C7    C     C_R   0.547912 0.578856 0.147223 0.407783
C8    C     C_R   0.520633 0.393738 0.852206 0.397544
C9    C     C_R   0.395711 0.593518 0.761535 0.330214
C10   C     C_R   0.379956 0.436226 0.238082 0.362043
C11   C     C_R   0.569793 0.568993 0.226065 0.323921
C12   C     C_R   0.736997 0.498771 0.485989 0.866718
C13   C     C_R   0.545483 0.401237 0.774221 0.359672
C14   C     C_R   0.480959 0.499395 0.728618 -0.420564
C15   C     C_R   0.483690 0.500813 0.271410 -0.394566
C16   C     C_R   0.572501 0.070723 0.551842 0.377599
C17   C     C_R   0.437553 0.930087 0.443615 0.313689
C18   C     C_R   0.428588 0.075510 0.447655 0.364788
C19   C     C_R   0.564717 0.925498 0.555579 0.366648
C20   C     C_R   0.443208 0.493961 0.885212 -0.273215
C21   C     C_R   0.449204 0.506840 0.114000 -0.275664
C22   C     C_3   0.377288 0.812391 0.885315 -0.290349
C23   C     C_1   0.435618 0.498831 0.965688 0.162185
C24   C     C_3   0.307296 0.224723 0.118145 -0.254192
C25   C     C_3   0.588077 0.786693 0.098833 -0.271501
C26   C     C_3   0.510515 0.178248 0.897297 -0.281306
C27   C     C_3   0.209493 0.637407 0.700222 -0.221601
C28   C     C_3   0.190883 0.467337 0.293370 -0.225407
C29   C     C_3   0.775916 0.536031 0.256283 -0.267198
C30   C     C_3   0.750737 0.369556 0.745660 -0.191394
C31   C     C_3   0.774642 0.098582 0.597263 -0.167498
C32   C     C_3   0.445497 0.883637 0.316382 -0.193073
C33   C     C_3   0.228386 0.112467 0.398502 -0.092143
C34   C     C_1   0.437664 0.503061 0.033491 0.164133
C35   C     C_3   0.571611 0.880656 0.683799 -0.223725
C36   C     C_2   0.104509 0.274727 0.560275 0.385077
C37   C     C_2   0.854594 0.742795 0.422230 0.498518
C38   C     C_2   0.895323 0.243463 0.443557 0.380909
C39   C     C_2   0.123772 0.749181 0.440445 0.547022
C40   C     C_R   0.056972 0.385764 0.507844 -0.092717
C41   C     C_R   0.928070 0.620418 0.450834 -0.075745
C42   C     C_R   0.938433 0.375668 0.474673 -0.114148
C43   C     C_R   0.058076 0.624066 0.462762 -0.108632
C44   C     C_R   0.498646 0.500215 0.353637 0.999915
H1    H     H_    0.402704 0.857922 0.829507 0.174347
H2    H     H_    0.502242 0.134605 0.838825 0.180479
H3    H     H_    0.415529 0.198516 0.921173 0.145320
H4    H     H_    0.558731 0.100579 0.934359 0.172163
H5    H     H_    0.153368 0.628257 0.753020 0.190004
H6    H     H_    0.215970 0.537943 0.670432 0.176412
H7    H     H_    0.158739 0.710081 0.661219 0.168385
H8    H     H_    0.143121 0.494124 0.238034 0.189466
H9    H     H_    0.222545 0.560843 0.322661 0.177079
H10   H     H_    0.120311 0.419596 0.330044 0.168577
H11   H     H_    0.796373 0.503734 0.196715 0.206976
H12   H     H_    0.463412 0.791828 0.920996 0.140494
H13   H     H_    0.759344 0.445715 0.292910 0.178125
H14   H     H_    0.860988 0.585922 0.278863 0.175961
H15   H     H_    0.777748 0.400282 0.804821 0.166659
H16   H     H_    0.754175 0.458185 0.706038 0.130363
H17   H     H_    0.821958 0.292997 0.727047 0.177732
H18   H     H_    0.834401 0.188857 0.601868 0.140894
H19   H     H_    0.798350 0.046620 0.542694 0.168721
H20   H     H_    0.800195 0.030313 0.646041 0.177467
H21   H     H_    0.409067 0.814154 0.271893 0.166896
H22   H     H_    0.548186 0.861171 0.323551 0.180343
H23   H     H_    0.318529 0.888746 0.915880 0.182169
H24   H     H_    0.429456 0.989070 0.294736 0.167336
H25   H     H_    0.167035 0.203746 0.388978 0.161782
H26   H     H_    0.200964 0.066797 0.454056 0.086677
H27   H     H_    0.208883 0.041346 0.350988 0.216918
H28   H     H_    0.597754 0.797375 0.724476 0.169727
H29   H     H_    0.467062 0.887419 0.679988 0.188723
H30   H     H_    0.607724 0.976024 0.708451 0.188107
H31   H     H_    0.068299 0.173127 0.556615 0.020041
H32   H     H_    0.772243 0.730092 0.385925 0.109989
H33   H     H_    0.947020 0.149498 0.455890 0.066731
H34   H     H_    0.323168 0.176894 0.175430 0.188235
H35   H     H_    0.175345 0.806648 0.482862 0.074897
H36   H     H_    0.393005 0.212205 0.082897 0.136784
H37   H     H_    0.230761 0.169519 0.088961 0.186072
H38   H     H_    0.592765 0.834670 0.156314 0.177604
H39   H     H_    0.491059 0.797201 0.074302 0.130849
H40   H     H_    0.651054 0.843117 0.060812 0.188165
N1    N     N_R   0.500000 0.857200 0.500000 -0.188422
N2    N     N_R   0.500000 0.142800 0.500000 -0.176940
O1    O     O_R   0.316770 0.614620 0.500000 -0.643098
O2    O     O_3   0.269953 0.362836 0.124402 -0.573868
O3    O     O_3   0.629545 0.649408 0.101941 -0.564803
O4    O     O_3   0.582500 0.296607 0.897421 -0.568489
O5    O     O_3   0.329604 0.687896 0.716638 -0.599153
O6    O     O_3   0.292307 0.374382 0.283169 -0.558504
O7    O     O_3   0.673272 0.629593 0.258738 -0.613361
O8    O     O_3   0.631388 0.310477 0.742854 -0.541466
O9    O     O_3   0.647426 0.142432 0.602104 -0.537967
O10   O     O_3   0.380055 0.860829 0.384701 -0.562104
O11   O     O_3   0.354970 0.152157 0.396633 -0.548104
O12   O     O_R   0.683230 0.385380 0.500000 -0.555022
O13   O     O_3   0.627063 0.851344 0.612590 -0.566363
O14   O     O_2   0.178882 0.297722 0.612242 -0.586904
O15   O     O_2   0.881526 0.857724 0.441549 -0.604590
O16   O     O_2   0.806188 0.238857 0.398834 -0.555456
O17   O     O_2   0.117666 0.790231 0.374446 -0.577664
O18   O     O_R   0.683230 0.614620 0.500000 -0.617536
O19   O     O_R   0.316770 0.385380 0.500000 -0.549570
O20   O     O_R   0.500010 0.614710 0.389120 -0.591674
O21   O     O_R   0.499990 0.385290 0.610880 -0.534689
O22   O     O_R   0.499990 0.614710 0.610880 -0.554136
O23   O     O_R   0.500010 0.385290 0.389120 -0.543571
O24   O     O_3   0.307198 0.693871 0.874977 -0.567570
Zn1   Zn    Zn3+2 0.500000 0.653120 0.500000 1.026309
Zn2   Zn    Zn3+2 0.500000 0.346880 0.500000 1.099927

loop_
_geom_bond_atom_site_label_1
_geom_bond_atom_site_label_2
_ccdc_geom_bond_type
C1    O1    A    
C37   O15   D    
C35   H30   S    
C8    C13   A    
O21   Zn2   S    
C9    C14   A    
C9    O5    S    
C3    C42   A    
C5    C20   A    
C7    C11   A    
C8    C20   A    
C17   N1    A    
C15   C44   S    
C12   O18   A    
C10   C15   A    
O1    Zn1   S    
C5    O24   S    
C7    O3    S    
C2    O21   A    
C6    O2    S    
C3    C12   S    
C11   C15   A    
C24   H36   S    
C3    C41   A    
C4    C40   A    
C22   O24   S    
C30   H16   S    
C25   H40   S    
C27   O5    S    
C18   O11   S    
C12   O12   A    
C27   H6    S    
C26   H4    S    
C32   H24   S    
C44   O23   A    
C11   O7    S    
C40   C42   A    
C10   O6    S    
C13   C14   A    
C16   N2    A    
C41   C43   A    
C31   H18   S    
C35   O13   S    
C33   H25   S    
C27   H7    S    
O20   Zn1   S    
O12   Zn2   S    
C31   H19   S    
C36   C40   S    
C36   O14   D    
O23   Zn2   S    
C19   O13   S    
C39   C43   S    
C21   C34   S    
C29   H11   S    
C19   N1    A    
C7    C21   A    
C6    C21   A    
C39   H35   S    
N2    Zn2   S    
C24   H37   S    
C5    C9    A    
C36   H31   S    
C20   C23   S    
C23   C34   T    
C30   H15   S    
C17   C18   A    
C28   O6    S    
C17   O10   S    
C18   N2    A    
C24   O2    S    
C33   H26   S    
C26   H3    S    
C24   H34   S    
C32   O10   S    
C37   H32   S    
C29   H13   S    
C35   H28   S    
C25   H38   S    
C8    O4    S    
C32   H22   S    
C35   H29   S    
C16   O9    S    
C28   H10   S    
C31   H20   S    
O19   Zn2   S    
N1    Zn1   S    
C6    C10   A    
O18   Zn1   S    
C22   H12   S    
C28   H9    S    
C39   O17   D    
C38   H33   S    
C44   O20   A    
C26   O4    S    
C25   O3    S    
O22   Zn1   S    
C13   O8    S    
C1    C4    S    
C30   O8    S    
C29   O7    S    
C28   H8    S    
C16   C19   A    
C31   O9    S    
C2    O22   A    
C4    C43   A    
C33   O11   S    
C37   C41   S    
C2    C14   S    
C22   H23   S    
C33   H27   S    
C38   C42   S    
C22   H1    S    
C29   H14   S    
C38   O16   D    
C30   H17   S    
C25   H39   S    
C26   H2    S    
C27   H5    S    
C1    O19   A    
C32   H21   S    
