data_mof_unit_39136.cif
_audit_creation_date              2012-12-10T19:09:28-0500
_audit_creation_method            fapswitch 2.2
_symmetry_space_group_name_H-M    P1
_symmetry_Int_Tables_number       1
_space_group_crystal_system       triclinic
_cell_length_a                    15.134933
_cell_length_b                    15.017662
_cell_length_c                    9.706512
_cell_angle_alpha                 89.712541
_cell_angle_beta                  89.627809
_cell_angle_gamma                 89.989553
_cell_volume                      2206.13147173

loop_
_atom_site_label
_atom_site_type_symbol
_atom_type_description
_atom_site_fract_x
_atom_site_fract_y
_atom_site_fract_z
_atom_type_partial_charge
C1    C     C_R   0.123303 0.381350 0.499819 0.948911
C2    C     C_R   0.120068 0.622317 0.499706 0.913395
C3    C     C_R   0.623302 0.881349 0.499819 0.948874
C4    C     C_R   0.620030 0.122355 0.499701 0.912973
C5    C     C_3   0.908044 0.489249 0.082055 -0.248870
C6    C     C_3   0.907857 0.491753 0.919980 -0.222565
C7    C     C_3   0.408043 0.989262 0.082056 -0.248739
C8    C     C_3   0.407857 0.991778 0.919982 -0.222548
C9    C     C_R   0.878196 0.379439 0.500710 0.943266
C10   C     C_R   0.880926 0.623552 0.499995 0.903033
C11   C     C_R   0.378249 0.879382 0.500711 0.942995
C12   C     C_R   0.380930 0.123555 0.499994 0.902640
C13   C     C_3   0.775715 0.294504 0.651926 0.182809
C14   C     C_3   0.846663 0.224211 0.440176 0.232729
C15   C     C_3   0.817406 0.747481 0.362303 0.216440
C16   C     C_3   0.826736 0.757412 0.624230 0.231116
C17   C     C_3   0.276190 0.794008 0.652027 0.183070
C18   C     C_3   0.346580 0.724281 0.439384 0.232484
C19   C     C_3   0.317394 0.247469 0.362281 0.216397
C20   C     C_3   0.326761 0.257436 0.624205 0.231341
C21   C     C_3   0.205447 0.721760 0.650043 -0.570397
C22   C     C_3   0.274407 0.652027 0.441534 -0.541662
C23   C     C_3   0.248693 0.322189 0.366422 -0.611865
C24   C     C_3   0.255071 0.329666 0.622186 -0.533455
C25   C     C_3   0.704826 0.222394 0.649916 -0.570308
C26   C     C_3   0.774551 0.151894 0.442622 -0.541523
C27   C     C_3   0.748703 0.822199 0.366442 -0.611818
C28   C     C_3   0.755052 0.829646 0.622205 -0.533497
C29   C     C_3   0.730098 0.346158 0.414647 -0.450592
C30   C     C_3   0.721498 0.647390 0.513302 -0.452314
C31   C     C_3   0.229966 0.846293 0.415341 -0.450696
C32   C     C_3   0.221505 0.147394 0.513347 -0.452524
C33   C     C_3   0.808963 0.312420 0.501778 0.005116
C34   C     C_3   0.813076 0.692568 0.500001 0.004419
C35   C     C_3   0.309044 0.812331 0.501780 0.004996
C36   C     C_3   0.313082 0.192574 0.500001 0.004555
C37   C     C_3   0.187392 0.691565 0.499443 0.028736
C38   C     C_3   0.191817 0.313814 0.499620 0.037286
C39   C     C_3   0.687329 0.191634 0.499421 0.028460
C40   C     C_3   0.691812 0.813810 0.499620 0.037349
C41   C     C_3   0.157962 0.773032 0.408085 0.844890
C42   C     C_3   0.147884 0.219322 0.512282 0.819085
C43   C     C_3   0.658240 0.272769 0.407070 0.845253
C44   C     C_3   0.647877 0.719320 0.512243 0.818955
C45   C     C_3   0.053446 0.425942 0.081853 0.263507
C46   C     C_3   0.051888 0.424771 0.918090 0.256140
C47   C     C_3   0.037777 0.583466 0.917029 0.257195
C48   C     C_3   0.034999 0.584760 0.080852 0.255904
C49   C     C_3   0.553437 0.925935 0.081851 0.263527
C50   C     C_3   0.551869 0.924757 0.918089 0.256091
C51   C     C_3   0.537799 0.083456 0.917035 0.257370
C52   C     C_3   0.535010 0.084754 0.080857 0.255455
H1    H     H_    0.832231 0.270359 0.715565 0.147182
H2    H     H_    0.903142 0.201690 0.505194 0.120824
H3    H     H_    0.884718 0.777319 0.351604 0.153550
H4    H     H_    0.893073 0.789345 0.613529 0.108133
H5    H     H_    0.332903 0.769843 0.715218 0.147355
H6    H     H_    0.403129 0.701517 0.504053 0.120990
H7    H     H_    0.384705 0.277305 0.351548 0.153747
H8    H     H_    0.393096 0.289373 0.613464 0.107251
H9    H     H_    0.228915 0.664295 0.713040 0.172898
H10   H     H_    0.296366 0.595112 0.506925 0.129582
H11   H     H_    0.282937 0.387846 0.363811 0.159855
H12   H     H_    0.286616 0.396478 0.613220 0.131517
H13   H     H_    0.727940 0.165150 0.713713 0.173295
H14   H     H_    0.796353 0.095322 0.508852 0.129703
H15   H     H_    0.782944 0.887856 0.363855 0.159890
H16   H     H_    0.786603 0.896457 0.613262 0.131634
H17   H     H_    0.143738 0.745750 0.700145 0.214733
H18   H     H_    0.264174 0.624926 0.336251 0.237827
H19   H     H_    0.207303 0.320117 0.272308 0.222331
H20   H     H_    0.217946 0.329110 0.721596 0.241646
H21   H     H_    0.642951 0.246692 0.699152 0.214475
H22   H     H_    0.764675 0.124257 0.337588 0.237528
H23   H     H_    0.707322 0.820135 0.272319 0.222317
H24   H     H_    0.717917 0.829086 0.721604 0.241668
H25   H     H_    0.702872 0.408624 0.459244 0.172306
H26   H     H_    0.753133 0.364419 0.309036 0.196930
H27   H     H_    0.711996 0.598790 0.428440 0.172902
H28   H     H_    0.718349 0.607548 0.610312 0.214111
H29   H     H_    0.202968 0.908752 0.460296 0.172257
H30   H     H_    0.252732 0.864634 0.309620 0.197042
H31   H     H_    0.211993 0.098780 0.428505 0.172868
H32   H     H_    0.218368 0.107568 0.610375 0.213910
H33   H     H_    0.123217 0.436293 0.114998 0.000064
H34   H     H_    0.121352 0.432156 0.880193 0.018244
H35   H     H_    0.108548 0.586809 0.884012 0.018734
H36   H     H_    0.104049 0.592909 0.118201 0.084615
H37   H     H_    0.623210 0.936280 0.114986 0.000165
H38   H     H_    0.621334 0.932122 0.880183 0.018334
H39   H     H_    0.608573 0.086774 0.884032 0.018701
H40   H     H_    0.604059 0.092888 0.118209 0.085273
H41   H     H_    0.878694 0.425400 0.118364 0.213483
H42   H     H_    0.875886 0.430436 0.881014 0.206940
H43   H     H_    0.866018 0.547885 0.883728 0.235503
H44   H     H_    0.863742 0.542064 0.122622 0.227566
H45   H     H_    0.378686 0.925414 0.118356 0.213758
H46   H     H_    0.375874 0.930472 0.881013 0.207271
H47   H     H_    0.366033 0.047924 0.883737 0.235510
H48   H     H_    0.363747 0.042079 0.122631 0.227588
N1    N     N_3   0.998760 0.500000 0.138610 -0.090125
N2    N     N_3   0.998760 0.500000 0.861390 -0.083590
N3    N     N_3   0.498760 1.000000 0.138610 -0.090152
N4    N     N_3   0.498760 1.000000 0.861390 -0.083624
O1    O     O_R   0.092530 0.407440 0.616040 -0.601712
O2    O     O_R   0.092530 0.407440 0.383960 -0.606510
O3    O     O_R   0.092530 0.592560 0.383960 -0.589253
O4    O     O_R   0.092530 0.592560 0.616040 -0.642251
O5    O     O_R   0.592530 0.907440 0.616040 -0.601747
O6    O     O_R   0.592530 0.907440 0.383960 -0.606526
O7    O     O_R   0.592530 0.092560 0.383960 -0.588915
O8    O     O_R   0.592530 0.092560 0.616040 -0.642280
O9    O     O_R   0.907330 0.407420 0.616040 -0.586322
O10   O     O_R   0.907330 0.407420 0.383960 -0.566735
O11   O     O_R   0.907330 0.592580 0.383960 -0.553692
O12   O     O_R   0.907330 0.592580 0.616040 -0.543845
O13   O     O_R   0.407330 0.907420 0.616040 -0.586064
O14   O     O_R   0.407330 0.907420 0.383960 -0.566526
O15   O     O_R   0.407330 0.092580 0.383960 -0.553646
O16   O     O_R   0.407330 0.092580 0.616040 -0.543961
Zn1   Zn    Zn3+2 0.999890 0.500000 0.654960 1.015435
Zn2   Zn    Zn3+2 0.999890 0.500000 0.345040 1.030796
Zn3   Zn    Zn3+2 0.499890 1.000000 0.654960 1.015351
Zn4   Zn    Zn3+2 0.499890 0.000000 0.345040 1.030872
O17   O     O_3   0.741057 0.372822 0.710454 -0.775100
H49   H     H_    0.734754 0.361400 0.810894 0.333192
O18   O     O_3   0.876563 0.237741 0.304087 -0.677561
H50   H     H_    0.915306 0.186510 0.281008 0.364670
O19   O     O_3   0.800568 0.692843 0.247913 -0.742962
H51   H     H_    0.820163 0.726423 0.164782 0.360462
O20   O     O_3   0.821921 0.711545 0.750912 -0.702813
H52   H     H_    0.845536 0.752323 0.821992 0.351033
O21   O     O_3   0.241500 0.872118 0.711168 -0.775047
H53   H     H_    0.235398 0.860440 0.811569 0.333284
O22   O     O_3   0.376301 0.738184 0.303290 -0.677999
H54   H     H_    0.415026 0.687025 0.279759 0.364623
O23   O     O_3   0.300538 0.192815 0.247911 -0.742940
H55   H     H_    0.320130 0.226381 0.164762 0.360495
O24   O     O_3   0.321971 0.211585 0.750907 -0.702800
H56   H     H_    0.345598 0.252375 0.821965 0.351007
O25   O     O_3   0.074799 0.805704 0.451614 -0.827290
H57   H     H_    0.081743 0.835507 0.541775 0.323165
O26   O     O_3   0.150634 0.745599 0.270196 -0.762061
H58   H     H_    0.127088 0.796911 0.216876 0.325095
O27   O     O_3   0.088272 0.205044 0.403050 -0.795751
H59   H     H_    0.122427 0.196936 0.316558 0.340736
O28   O     O_3   0.100204 0.214375 0.637178 -0.761651
H60   H     H_    0.065821 0.158047 0.636314 0.338956
O29   O     O_3   0.574816 0.305468 0.449299 -0.827122
H61   H     H_    0.581238 0.335495 0.539380 0.322441
O30   O     O_3   0.651662 0.244868 0.269301 -0.761668
H62   H     H_    0.628401 0.295991 0.215241 0.324821
O31   O     O_3   0.588273 0.705057 0.402997 -0.795866
H63   H     H_    0.622435 0.696954 0.316512 0.340709
O32   O     O_3   0.600188 0.714359 0.637128 -0.761714
H64   H     H_    0.565793 0.658039 0.636232 0.338948
O33   O     O_3   0.023803 0.344350 0.137030 -0.646849
H65   H     H_    0.072753 0.300984 0.125561 0.321899
O34   O     O_3   0.018471 0.343594 0.868706 -0.682068
H66   H     H_    0.066679 0.299084 0.876732 0.353361
O35   O     O_3   0.993792 0.657448 0.860692 -0.692772
H67   H     H_    0.033997 0.709294 0.868989 0.302762
O36   O     O_3   0.984656 0.656694 0.130222 -0.680377
H68   H     H_    0.018255 0.711804 0.109599 0.336410
O37   O     O_3   0.523791 0.844348 0.137039 -0.646993
H69   H     H_    0.572734 0.800975 0.125549 0.321833
O38   O     O_3   0.518427 0.843589 0.868715 -0.682164
H70   H     H_    0.566624 0.799067 0.876727 0.353333
O39   O     O_3   0.493847 0.157455 0.860691 -0.692801
H71   H     H_    0.534064 0.209288 0.869043 0.302710
O40   O     O_3   0.484669 0.156693 0.130220 -0.680329
H72   H     H_    0.518310 0.211797 0.109730 0.336382

loop_
_geom_bond_atom_site_label_1
_geom_bond_atom_site_label_2
_ccdc_geom_bond_type
C16   C28   S    
O40   H72   S    
C52   N3    S    
C50   N4    S    
O33   H65   S    
C29   H25   S    
O39   H71   S    
C19   C23   S    
O36   H68   S    
O4    Zn1   S    
C30   C44   S    
C14   C33   S    
O35   H67   S    
C10   O12   A    
O22   H54   S    
C48   O36   S    
O15   Zn4   S    
C41   O25   S    
C46   N2    S    
O37   H69   S    
C31   H30   S    
C44   O31   S    
C32   C36   S    
C20   O24   S    
C28   H16   S    
C8    H47   S    
C41   O26   S    
C19   C36   S    
C5    C6    S    
C26   C39   S    
C42   O28   S    
C3    O6    A    
O26   H58   S    
C29   C33   S    
C2    O3    A    
C16   O20   S    
C8    H46   S    
C51   H39   S    
C12   O16   A    
C18   H6    S    
C46   O34   S    
C29   H26   S    
O28   H60   S    
C6    H42   S    
C24   C38   S    
O30   H62   S    
C48   H36   S    
C12   C36   S    
N2    Zn1   S    
C7    H45   S    
C18   C35   S    
C15   C34   S    
C21   H9    S    
C43   O29   S    
O16   Zn3   S    
C1    O2    A    
C13   O17   S    
C23   H11   S    
C4    O8    A    
C24   H12   S    
C47   N2    S    
C7    N3    S    
C29   C43   S    
C9    C33   S    
C13   C25   S    
C27   H23   S    
N3    Zn4   S    
C52   O40   S    
C50   H38   S    
O27   H59   S    
C13   H1    S    
C32   H32   S    
C5    N1    S    
C7    H48   S    
C30   C34   S    
O1    Zn1   S    
C51   C52   S    
C26   H14   S    
C47   C48   S    
C23   H19   S    
C51   O39   S    
C25   H13   S    
O8    Zn3   S    
C7    C8    S    
O12   Zn1   S    
O38   H70   S    
N4    Zn3   S    
O5    Zn3   S    
C20   C36   S    
C39   C43   S    
C19   H7    S    
C51   N4    S    
C45   C46   S    
C22   C37   S    
C17   C21   S    
C14   O18   S    
C21   H17   S    
C15   H3    S    
C45   H33   S    
C16   H4    S    
C13   C33   S    
C22   H10   S    
C12   O15   A    
C15   C27   S    
O34   H66   S    
C15   O19   S    
C4    C39   S    
C27   C40   S    
C19   O23   S    
C16   C34   S    
O2    Zn2   S    
C45   O33   S    
C18   O22   S    
C10   C34   S    
O14   Zn4   S    
C14   C26   S    
C8    N4    S    
C45   N1    S    
C1    C38   S    
C30   H27   S    
C14   H2    S    
C4    O7    A    
C3    C40   S    
C49   C50   S    
C17   O21   S    
O21   H53   S    
C31   C35   S    
C52   H40   S    
C20   H8    S    
C9    O10   A    
O20   H52   S    
C11   O13   A    
C50   O38   S    
C5    H44   S    
C43   O30   S    
C47   H35   S    
C24   H20   S    
O19   H51   S    
C32   H31   S    
C32   C42   S    
C31   C41   S    
O7    Zn4   S    
C18   C22   S    
C44   O32   S    
C49   O37   S    
C49   H37   S    
C49   N3    S    
C5    H41   S    
O24   H56   S    
C38   C42   S    
O9    Zn1   S    
O23   H55   S    
N1    Zn2   S    
C31   H29   S    
C23   C38   S    
C9    O9    A    
C11   C35   S    
O13   Zn3   S    
C30   H28   S    
O25   H57   S    
C25   C39   S    
C42   O27   S    
C2    C37   S    
O17   H49   S    
C3    O5    A    
C48   N1    S    
O10   Zn2   S    
C2    O4    A    
C26   H22   S    
C22   H18   S    
C25   H21   S    
C6    N2    S    
C37   C41   S    
C27   H15   S    
C47   O35   S    
C40   C44   S    
C21   C37   S    
C6    H43   S    
C17   H5    S    
O32   H64   S    
O11   Zn2   S    
C28   C40   S    
O6    Zn4   S    
C17   C35   S    
O3    Zn2   S    
O31   H63   S    
O29   H61   S    
C11   O14   A    
C20   C24   S    
C10   O11   A    
O18   H50   S    
C1    O1    A    
C46   H34   S    
C28   H24   S    
