data_mof_unit_39738.cif
_audit_creation_date              2012-12-11T15:08:51-0500
_audit_creation_method            fapswitch 2.2
_symmetry_space_group_name_H-M    P1
_symmetry_Int_Tables_number       1
_space_group_crystal_system       triclinic
_cell_length_a                    19.542278
_cell_length_b                    11.319656
_cell_length_c                    18.696023
_cell_angle_alpha                 89.968219
_cell_angle_beta                  90.785568
_cell_angle_gamma                 90.067889
_cell_volume                      4135.38987687

loop_
_atom_site_label
_atom_site_type_symbol
_atom_type_description
_atom_site_fract_x
_atom_site_fract_y
_atom_site_fract_z
_atom_type_partial_charge
C1    C     C_R   0.273164 0.042585 0.854316 0.524126
C2    C     C_3   0.689818 0.522092 0.956161 -0.010387
C3    C     C_R   0.227539 0.545120 0.353365 0.533743
C4    C     C_R   0.466298 0.822892 0.644430 0.549872
C5    C     C_R   0.534774 0.822594 0.356019 0.581077
C6    C     C_R   0.966298 0.322892 0.644430 0.549872
C7    C     C_R   0.034774 0.322594 0.356019 0.581077
C8    C     C_R   0.261127 0.641538 0.643254 0.545623
C9    C     C_R   0.738665 0.641681 0.356886 0.536900
C10   C     C_R   0.761127 0.141538 0.643254 0.545623
C11   C     C_R   0.238665 0.141681 0.356886 0.536900
C12   C     C_3   0.480803 0.918443 0.036036 -0.107951
C13   C     C_3   0.810142 0.022326 0.043904 -0.010410
C14   C     C_3   0.519307 0.918498 0.963873 -0.108814
C15   C     C_3   0.980803 0.418443 0.036036 -0.107951
C16   C     C_3   0.019306 0.418498 0.963873 -0.108814
C17   C     C_3   0.431998 0.820662 0.007860 -0.148168
C18   C     C_3   0.568061 0.820819 0.992101 -0.149019
C19   C     C_3   0.931998 0.320662 0.007860 -0.148169
C20   C     C_3   0.068061 0.320819 0.992101 -0.149018
C21   C     C_3   0.470311 0.822423 0.936582 0.042988
C22   C     C_3   0.529750 0.822473 0.063387 0.043008
C23   C     C_3   0.970311 0.322423 0.936582 0.042988
C24   C     C_3   0.189818 0.022092 0.956161 -0.010389
C25   C     C_3   0.029750 0.322473 0.063387 0.043008
C26   C     C_3   0.321302 0.552040 0.964129 -0.182818
C27   C     C_3   0.678702 0.551730 0.035933 -0.182870
C28   C     C_3   0.821302 0.052041 0.964129 -0.182818
C29   C     C_3   0.178702 0.051730 0.035933 -0.182871
C30   C     C_3   0.179639 0.523383 0.025046 -0.234251
C31   C     C_3   0.820364 0.523617 0.975031 -0.234563
C32   C     C_3   0.679639 0.023382 0.025046 -0.234251
C33   C     C_R   0.726838 0.042606 0.145706 0.522955
C34   C     C_3   0.320364 0.023617 0.975031 -0.234563
C35   C     C_3   0.241622 0.706194 0.056008 -0.253010
C36   C     C_3   0.758372 0.706155 0.943894 -0.252822
C37   C     C_3   0.741622 0.206194 0.056008 -0.253010
C38   C     C_3   0.258371 0.206155 0.943894 -0.252821
C39   C     C_3   0.240755 0.573811 0.070162 0.079625
C40   C     C_3   0.759234 0.573764 0.929853 0.079861
C41   C     C_3   0.740755 0.073811 0.070162 0.079624
C42   C     C_3   0.259234 0.073764 0.929853 0.079862
C43   C     C_3   0.255456 0.607902 0.931897 0.034915
C44   C     C_R   0.773164 0.542585 0.854316 0.524126
C45   C     C_3   0.744546 0.607881 0.068109 0.034704
C46   C     C_3   0.755456 0.107902 0.931897 0.034915
C47   C     C_3   0.244546 0.107881 0.068109 0.034704
C48   C     C_3   0.195320 0.523291 0.944345 -0.267775
C49   C     C_3   0.804693 0.523520 0.055730 -0.267629
C50   C     C_3   0.695320 0.023291 0.944345 -0.267775
C51   C     C_3   0.304693 0.023520 0.055730 -0.267629
C52   C     C_3   0.239917 0.722965 0.974063 -0.227740
C53   C     C_3   0.760074 0.722983 0.025830 -0.227767
C54   C     C_3   0.739917 0.222965 0.974063 -0.227740
C55   C     C_R   0.226838 0.542606 0.145706 0.522955
C56   C     C_3   0.260074 0.222983 0.025830 -0.227766
C57   C     C_3   0.504217 0.701860 0.460460 -0.271986
C58   C     C_3   0.493650 0.701841 0.539297 -0.264691
C59   C     C_3   0.004217 0.201861 0.460460 -0.271986
C60   C     C_3   0.993650 0.201841 0.539297 -0.264691
C61   C     C_R   0.443301 0.817277 0.862287 0.538204
C62   C     C_R   0.556737 0.817361 0.137708 0.537293
C63   C     C_R   0.943301 0.317277 0.862287 0.538204
C64   C     C_R   0.056737 0.317361 0.137708 0.537292
C65   C     C_3   0.566359 0.904675 0.477404 -0.180481
C66   C     C_3   0.518345 0.726113 0.964332 -0.105863
C67   C     C_3   0.436039 0.907509 0.522922 -0.203090
C68   C     C_3   0.066359 0.404676 0.477404 -0.180481
C69   C     C_3   0.936039 0.407509 0.522922 -0.203090
C70   C     C_3   0.444078 0.888719 0.440608 -0.042120
C71   C     C_3   0.559755 0.881385 0.558797 -0.056131
C72   C     C_3   0.944078 0.388719 0.440608 -0.042120
C73   C     C_3   0.059755 0.381385 0.558797 -0.056131
C74   C     C_3   0.513264 0.829565 0.431599 0.080599
C75   C     C_3   0.488027 0.829784 0.568794 0.061528
C76   C     C_3   0.013264 0.329565 0.431599 0.080599
C77   C     C_3   0.481665 0.726047 0.035684 -0.104858
C78   C     C_3   0.988027 0.329784 0.568794 0.061528
C79   C     C_3   0.180921 0.650848 0.457370 -0.225587
C80   C     C_3   0.818584 0.650728 0.542684 -0.226367
C81   C     C_3   0.680921 0.150848 0.457370 -0.225587
C82   C     C_3   0.318584 0.150728 0.542684 -0.226367
C83   C     C_3   0.187862 0.668669 0.536150 -0.232741
C84   C     C_3   0.810730 0.669910 0.464230 -0.232385
C85   C     C_3   0.687862 0.168669 0.536150 -0.232741
C86   C     C_3   0.310730 0.169910 0.464230 -0.232385
C87   C     C_3   0.252222 0.459740 0.472093 -0.218047
C88   C     C_3   0.018345 0.226113 0.964332 -0.105862
C89   C     C_3   0.747804 0.459295 0.528093 -0.214552
C90   C     C_3   0.752222 0.959740 0.472093 -0.218047
C91   C     C_3   0.247804 0.959295 0.528093 -0.214552
C92   C     C_3   0.305300 0.651784 0.442543 -0.267889
C93   C     C_3   0.694235 0.650492 0.557660 -0.268463
C94   C     C_3   0.805300 0.151784 0.442543 -0.267889
C95   C     C_3   0.194235 0.150492 0.557660 -0.268463
C96   C     C_3   0.241402 0.576616 0.428888 0.068905
C97   C     C_3   0.758323 0.576146 0.571217 0.069213
C98   C     C_3   0.741402 0.076616 0.428888 0.068905
C99   C     C_3   0.981665 0.226047 0.035685 -0.104859
C100  C     C_3   0.258323 0.076146 0.571217 0.069213
C101  C     C_3   0.253235 0.609599 0.566802 0.064522
C102  C     C_3   0.746003 0.609582 0.433418 0.062690
C103  C     C_3   0.753235 0.109599 0.566802 0.064522
C104  C     C_3   0.246003 0.109582 0.433418 0.062690
C105  C     C_3   0.245570 0.477331 0.553411 -0.269482
C106  C     C_3   0.754304 0.477398 0.446844 -0.266394
C107  C     C_3   0.745570 0.977330 0.553411 -0.269482
C108  C     C_3   0.254304 0.977398 0.446844 -0.266394
C109  C     C_R   0.262199 0.640877 0.854657 0.532408
C110  C     C_3   0.310142 0.522326 0.043904 -0.010410
C111  C     C_R   0.737794 0.640860 0.145335 0.532978
C112  C     C_R   0.762199 0.140877 0.854657 0.532408
C113  C     C_R   0.237794 0.140860 0.145335 0.532978
C114  C     C_3   0.317749 0.650731 0.524731 -0.221023
C115  C     C_3   0.681364 0.649658 0.475458 -0.219821
C116  C     C_3   0.817749 0.150731 0.524731 -0.221023
C117  C     C_3   0.181364 0.149658 0.475458 -0.219821
C118  C     C_R   0.272428 0.045054 0.646662 0.536360
C119  C     C_R   0.727539 0.045119 0.353365 0.533743
C120  C     C_R   0.772428 0.545054 0.646662 0.536360
Cr1   Cr    Cr6+3 0.229620 0.836040 0.749110 0.989155
Cr2   Cr    Cr6+3 0.613980 0.676590 0.250790 0.991557
Cr3   Cr    Cr6+3 0.886020 0.176590 0.749210 0.991606
Cr4   Cr    Cr6+3 0.113980 0.176590 0.250790 0.991557
Cr5   Cr    Cr6+3 0.770380 0.836040 0.250890 0.989000
Cr6   Cr    Cr6+3 0.729620 0.336040 0.749110 0.989155
Cr7   Cr    Cr6+3 0.270380 0.336040 0.250890 0.989000
Cr8   Cr    Cr6+3 0.387630 0.990680 0.750730 0.991848
Cr9   Cr    Cr6+3 0.612370 0.990680 0.249270 1.010427
Cr10  Cr    Cr6+3 0.887630 0.490680 0.750730 0.991848
Cr11  Cr    Cr6+3 0.112370 0.490680 0.249270 1.010427
Cr12  Cr    Cr6+3 0.386020 0.676590 0.749210 0.991606
H1    H     H_    0.377935 0.807196 0.020339 0.113111
H2    H     H_    0.711961 0.744672 0.919020 0.126206
H3    H     H_    0.165363 0.969848 0.065630 0.096492
H4    H     H_    0.664976 0.937672 0.045950 0.096067
H5    H     H_    0.335100 0.937970 0.954243 0.096552
H6    H     H_    0.164976 0.437672 0.045950 0.096067
H7    H     H_    0.835100 0.437970 0.954243 0.096552
H8    H     H_    0.708860 0.934268 0.925774 0.106876
H9    H     H_    0.291177 0.934452 0.074393 0.107311
H10   H     H_    0.208860 0.434268 0.925774 0.106876
H11   H     H_    0.791176 0.434452 0.074393 0.107311
H12   H     H_    0.466412 0.999046 0.065934 0.116325
H13   H     H_    0.788027 0.244897 0.080848 0.126156
H14   H     H_    0.533697 0.999158 0.933923 0.115308
H15   H     H_    0.966412 0.499046 0.065934 0.116325
H16   H     H_    0.033697 0.499158 0.933923 0.115308
H17   H     H_    0.456126 0.073434 0.426718 0.218730
H18   H     H_    0.397079 0.006036 0.368585 0.235539
H19   H     H_    0.533047 0.048332 0.599122 0.240360
H20   H     H_    0.579107 0.962256 0.656062 0.251035
H21   H     H_    0.956126 0.573434 0.426718 0.218730
H22   H     H_    0.897079 0.506036 0.368585 0.235539
H23   H     H_    0.033047 0.548332 0.599122 0.240360
H24   H     H_    0.211961 0.244672 0.919020 0.126208
H25   H     H_    0.079107 0.462256 0.656062 0.251035
H26   H     H_    0.448216 0.999915 0.534618 0.119084
H27   H     H_    0.553799 0.998253 0.469108 0.153045
H28   H     H_    0.948216 0.499915 0.534618 0.119084
H29   H     H_    0.053799 0.498253 0.469108 0.153045
H30   H     H_    0.524363 0.642213 0.935765 0.172114
H31   H     H_    0.475710 0.642048 0.064245 0.172387
H32   H     H_    0.024363 0.142213 0.935765 0.172113
H33   H     H_    0.975710 0.142048 0.064245 0.172388
H34   H     H_    0.306813 0.427398 0.048635 0.140204
H35   H     H_    0.275777 0.791253 0.958251 0.100111
H36   H     H_    0.693056 0.427179 0.951441 0.140027
H37   H     H_    0.806813 0.927398 0.048635 0.140204
H38   H     H_    0.193056 0.927179 0.951441 0.140027
H39   H     H_    0.401008 0.489003 0.097136 0.223284
H40   H     H_    0.355393 0.595473 0.136862 0.253054
H41   H     H_    0.598605 0.488900 0.903545 0.222568
H42   H     H_    0.644522 0.594349 0.862984 0.252603
H43   H     H_    0.901007 0.989001 0.097140 0.223286
H44   H     H_    0.855392 0.095478 0.136861 0.253051
H45   H     H_    0.098604 0.988901 0.903548 0.222566
H46   H     H_    0.724185 0.791097 0.041557 0.099899
H47   H     H_    0.144521 0.094344 0.862984 0.252605
H48   H     H_    0.775777 0.291253 0.958251 0.100111
H49   H     H_    0.224184 0.291097 0.041557 0.099899
H50   H     H_    0.186741 0.748310 0.959152 0.132363
H51   H     H_    0.813242 0.748596 0.040720 0.132331
H52   H     H_    0.686740 0.248310 0.959152 0.132363
H53   H     H_    0.622091 0.807301 0.979563 0.113209
H54   H     H_    0.313242 0.248596 0.040720 0.132331
H55   H     H_    0.633212 0.078660 0.033174 0.141434
H56   H     H_    0.366777 0.079115 0.966854 0.141426
H57   H     H_    0.133212 0.578661 0.033174 0.141433
H58   H     H_    0.866777 0.579115 0.966854 0.141426
H59   H     H_    0.149222 0.551822 0.913473 0.131988
H60   H     H_    0.850803 0.552272 0.086558 0.133277
H61   H     H_    0.649222 0.051822 0.913473 0.131988
H62   H     H_    0.350803 0.052273 0.086558 0.133277
H63   H     H_    0.547165 0.644712 0.448409 0.137857
H64   H     H_    0.877934 0.307196 0.020340 0.113110
H65   H     H_    0.449598 0.648058 0.551383 0.141024
H66   H     H_    0.047165 0.144712 0.448409 0.137857
H67   H     H_    0.949598 0.148058 0.551383 0.141024
H68   H     H_    0.460250 0.657698 0.433392 0.118337
H69   H     H_    0.536297 0.653331 0.566076 0.116835
H70   H     H_    0.960250 0.157698 0.433392 0.118337
H71   H     H_    0.036297 0.153331 0.566076 0.116835
H72   H     H_    0.618124 0.896949 0.458804 0.088474
H73   H     H_    0.383610 0.897004 0.539403 0.095187
H74   H     H_    0.118124 0.396949 0.458804 0.088474
H75   H     H_    0.122091 0.307301 0.979563 0.113209
H76   H     H_    0.883610 0.397005 0.539403 0.095187
H77   H     H_    0.598782 0.816010 0.574969 0.137521
H78   H     H_    0.402882 0.829606 0.420417 0.123498
H79   H     H_    0.098782 0.316010 0.574969 0.137521
H80   H     H_    0.902882 0.329606 0.420417 0.123498
H81   H     H_    0.131282 0.610559 0.445896 0.141743
H82   H     H_    0.868071 0.609393 0.553139 0.136150
H83   H     H_    0.631282 0.110559 0.445896 0.141743
H84   H     H_    0.368071 0.109393 0.553139 0.136150
H85   H     H_    0.178685 0.737851 0.429930 0.115752
H86   H     H_    0.196732 0.750862 0.080003 0.119597
H87   H     H_    0.821420 0.737261 0.570618 0.116324
H88   H     H_    0.678685 0.237851 0.429930 0.115752
H89   H     H_    0.321420 0.237261 0.570618 0.116324
H90   H     H_    0.187053 0.761560 0.547591 0.124703
H91   H     H_    0.811161 0.762736 0.453086 0.131340
H92   H     H_    0.687053 0.261560 0.547591 0.124703
H93   H     H_    0.311161 0.262736 0.453086 0.131340
H94   H     H_    0.141871 0.636903 0.562687 0.175647
H95   H     H_    0.856174 0.639222 0.437300 0.126156
H96   H     H_    0.641871 0.136903 0.562687 0.175647
H97   H     H_    0.803264 0.750983 0.919857 0.119370
H98   H     H_    0.356173 0.139222 0.437300 0.126156
H99   H     H_    0.722102 0.885794 0.451784 0.113328
H100  H     H_    0.278660 0.886228 0.548269 0.113913
H101  H     H_    0.222102 0.385794 0.451784 0.113328
H102  H     H_    0.778660 0.386228 0.548269 0.113913
H103  H     H_    0.695800 0.944786 0.572190 0.155160
H104  H     H_    0.304385 0.945782 0.428506 0.112906
H105  H     H_    0.195800 0.444786 0.572190 0.155160
H106  H     H_    0.804385 0.445782 0.428506 0.112906
H107  H     H_    0.349705 0.613784 0.414248 0.108492
H108  H     H_    0.696732 0.250862 0.080003 0.119598
H109  H     H_    0.649806 0.612455 0.586109 0.107205
H110  H     H_    0.849705 0.113784 0.414248 0.108492
H111  H     H_    0.149806 0.112455 0.586109 0.107205
H112  H     H_    0.297571 0.742829 0.422501 0.107126
H113  H     H_    0.702581 0.741399 0.577659 0.106468
H114  H     H_    0.797571 0.242829 0.422501 0.107126
H115  H     H_    0.202581 0.241399 0.577659 0.106468
H116  H     H_    0.338849 0.733083 0.544814 0.109410
H117  H     H_    0.660721 0.732281 0.455602 0.107852
H118  H     H_    0.838849 0.233083 0.544814 0.109410
H119  H     H_    0.303263 0.250983 0.919857 0.119369
H120  H     H_    0.160721 0.232281 0.455602 0.107852
H121  H     H_    0.356358 0.581639 0.535227 0.121083
H122  H     H_    0.642281 0.581212 0.464727 0.121122
H123  H     H_    0.856358 0.081640 0.535227 0.121083
H124  H     H_    0.142281 0.081212 0.464727 0.121122
H125  H     H_    0.306392 0.436666 0.463156 0.120567
H126  H     H_    0.693798 0.435260 0.537117 0.121314
H127  H     H_    0.806392 0.936666 0.463156 0.120567
H128  H     H_    0.193798 0.935260 0.537117 0.121314
H129  H     H_    0.286133 0.427613 0.582666 0.104402
H130  H     H_    0.288028 0.744897 0.080848 0.126159
H131  H     H_    0.714048 0.427085 0.417469 0.109244
H132  H     H_    0.786133 0.927613 0.582666 0.104402
H133  H     H_    0.214049 0.927085 0.417469 0.109244
H134  H     H_    0.364809 0.614323 0.958164 0.160144
H135  H     H_    0.635191 0.613842 0.041878 0.160220
H136  H     H_    0.864809 0.114324 0.958165 0.160144
H137  H     H_    0.135191 0.113841 0.041879 0.160221
H138  H     H_    0.334661 0.470220 0.934489 0.096486
H139  H     H_    0.665363 0.469849 0.065630 0.096492
H140  H     H_    0.834661 0.970221 0.934489 0.096486
N1    N     N_3   0.442659 0.997751 0.397917 -0.642238
N2    N     N_3   0.572596 0.986797 0.602461 -0.693603
N3    N     N_3   0.942659 0.497751 0.397917 -0.642238
N4    N     N_3   0.072596 0.486797 0.602461 -0.693603
N5    N     N_3   0.369003 0.561443 0.087172 -0.674112
N6    N     N_3   0.630959 0.561193 0.912938 -0.674560
N7    N     N_3   0.869003 0.061442 0.087172 -0.674111
N8    N     N_3   0.130959 0.061193 0.912939 -0.674560
O1    O     O_R   0.214130 0.708570 0.829890 -0.525450
O2    O     O_R   0.542830 0.717300 0.331620 -0.541544
O3    O     O_R   0.957170 0.217300 0.668380 -0.532581
O4    O     O_R   0.042830 0.217300 0.331620 -0.541544
O5    O     O_R   0.320870 0.624890 0.673130 -0.512149
O6    O     O_R   0.679130 0.624890 0.326870 -0.511697
O7    O     O_R   0.820870 0.124890 0.673130 -0.512149
O8    O     O_R   0.179130 0.124890 0.326870 -0.511697
O9    O     O_3   0.334430 0.834430 0.749680 -0.287382
O10   O     O_3   0.665570 0.834430 0.250320 -0.293679
O11   O     O_3   0.834430 0.334430 0.749680 -0.287382
O12   O     O_R   0.785870 0.708570 0.170110 -0.524265
O13   O     O_3   0.165570 0.334430 0.250320 -0.293679
O14   O     O_R   0.236050 0.959150 0.825270 -0.515922
O15   O     O_R   0.763950 0.959150 0.174730 -0.515734
O16   O     O_R   0.736050 0.459150 0.825270 -0.515921
O17   O     O_R   0.263950 0.459150 0.174730 -0.515735
O18   O     O_R   0.332100 0.076650 0.832310 -0.533407
O19   O     O_R   0.667900 0.076650 0.167690 -0.534076
O20   O     O_R   0.832100 0.576650 0.832310 -0.533407
O21   O     O_R   0.167900 0.576650 0.167690 -0.534076
O22   O     O_R   0.446500 0.918620 0.826240 -0.502922
O23   O     O_R   0.714130 0.208570 0.829890 -0.525450
O24   O     O_R   0.553500 0.918620 0.173760 -0.499630
O25   O     O_R   0.946500 0.418620 0.826240 -0.502922
O26   O     O_R   0.053500 0.418620 0.173760 -0.499630
O27   O     O_R   0.457310 0.715830 0.831280 -0.525233
O28   O     O_R   0.542690 0.715830 0.168720 -0.524585
O29   O     O_R   0.957310 0.215830 0.831280 -0.525233
O30   O     O_R   0.042690 0.215830 0.168720 -0.524585
O31   O     O_R   0.321000 0.623520 0.824130 -0.522063
O32   O     O_R   0.679000 0.623520 0.175870 -0.522101
O33   O     O_R   0.821000 0.123520 0.824130 -0.522063
O34   O     O_R   0.285870 0.208570 0.170110 -0.524265
O35   O     O_R   0.179000 0.123520 0.175870 -0.522101
O36   O     O_R   0.213990 0.710040 0.667000 -0.527727
O37   O     O_R   0.786010 0.710040 0.333000 -0.532064
O38   O     O_R   0.713990 0.210040 0.667000 -0.527727
O39   O     O_R   0.286010 0.210040 0.333000 -0.532064
O40   O     O_R   0.235920 0.960520 0.674260 -0.512530
O41   O     O_R   0.764080 0.960520 0.325740 -0.512255
O42   O     O_R   0.735920 0.460520 0.674260 -0.512530
O43   O     O_R   0.264080 0.460520 0.325740 -0.512255
O44   O     O_R   0.331960 0.078120 0.669410 -0.534977
O45   O     O_R   0.446360 0.919990 0.675230 -0.508793
O46   O     O_R   0.668040 0.078120 0.330590 -0.533880
O47   O     O_R   0.831960 0.578120 0.669410 -0.534977
O48   O     O_R   0.168040 0.578120 0.330590 -0.533880
O49   O     O_R   0.553640 0.919990 0.324770 -0.471001
O50   O     O_R   0.946360 0.419990 0.675230 -0.508793
O51   O     O_R   0.053640 0.419990 0.324770 -0.471001
O52   O     O_R   0.457170 0.717300 0.668380 -0.532581

loop_
_geom_bond_atom_site_label_1
_geom_bond_atom_site_label_2
_ccdc_geom_bond_type
C92   H107  S    
C30   H6    S    
C46   C112  S    
C34   C42   S    
Cr11  O48   S    
C1    O14   A    
C57   H63   S    
C14   C21   S    
C52   H50   S    
C90   C107  S    
H41   N6    S    
C53   H51   S    
C117  H124  S    
C50   H8    S    
C69   H28   S    
Cr11  O13   S    
C30   H57   S    
C5    C74   S    
Cr12  O9    S    
C36   C53   S    
C120  O42   A    
Cr6   O23   S    
C89   C106  S    
C70   C74   S    
C63   O29   A    
C91   C100  S    
C64   O26   A    
C85   C103  S    
Cr4   O4    S    
C59   C60   S    
C70   N1    S    
C8    O36   A    
Cr5   O15   S    
Cr6   O16   S    
C5    O49   A    
C1    O18   A    
H44   N7    S    
C19   C99   S    
C24   N8    S    
C81   H88   S    
C118  O40   A    
C17   C21   S    
Cr8   O44   S    
Cr10  O20   S    
C15   H15   S    
C19   C23   S    
C118  O44   A    
C16   C20   S    
C109  O31   A    
C85   H96   S    
C33   O15   A    
C93   H113  S    
C111  O32   A    
C29   H3    S    
Cr11  O26   S    
C17   H1    S    
Cr12  O27   S    
C104  C117  S    
C112  O33   A    
C66   C77   S    
C69   H76   S    
H23   N4    S    
C84   H91   S    
C45   C111  S    
Cr6   O42   S    
C87   H101  S    
C29   H137  S    
C103  C116  S    
C79   C96   S    
C6    O50   A    
C85   H92   S    
C88   C99   S    
Cr11  O51   S    
C33   O19   A    
C2    C40   S    
C81   C98   S    
C105  H105  S    
Cr8   O45   S    
C103  C107  S    
C73   N4    S    
C26   H134  S    
C57   C74   S    
C27   H139  S    
Cr9   O24   S    
C56   H49   S    
C28   H140  S    
C21   C66   S    
C69   C72   S    
C72   N3    S    
C84   C102  S    
Cr9   O46   S    
Cr2   O10   S    
C86   C104  S    
C87   H125  S    
H25   N4    S    
C95   C117  S    
C115  H122  S    
C31   H58   S    
C28   C46   S    
C34   C51   S    
C29   C47   S    
C35   H130  S    
C30   C48   S    
H39   N5    S    
C50   H61   S    
C43   C52   S    
C6    C78   S    
C12   C22   S    
C92   C96   S    
C106  H131  S    
C48   H59   S    
C95   H115  S    
C3    O43   A    
C71   H77   S    
Cr10  O11   S    
C32   C41   S    
C44   O20   A    
C91   H128  S    
Cr7   O43   S    
C24   H38   S    
H40   N5    S    
Cr7   O13   S    
C110  N5    S    
C13   H37   S    
C45   C53   S    
C19   H64   S    
Cr2   O28   S    
Cr1   O1    S    
H19   N2    S    
C117  H120  S    
C55   O17   A    
C61   O27   A    
C51   H9    S    
C39   C55   S    
C48   H10   S    
C5    O2    A    
C113  O35   A    
C36   H97   S    
C88   H32   S    
Cr9   O19   S    
C65   C74   S    
C25   C64   S    
Cr4   O35   S    
Cr12  O5    S    
C87   C105  S    
C20   C88   S    
H21   N3    S    
C107  H132  S    
H47   N8    S    
C16   C23   S    
C23   C88   S    
C68   H74   S    
C70   H78   S    
C67   C75   S    
C93   C97   S    
C83   C101  S    
C32   H55   S    
C18   C22   S    
C73   H79   S    
C89   H126  S    
C36   H2    S    
C2    N6    S    
C7    C76   S    
C115  H117  S    
C18   C66   S    
C119  O46   A    
C18   H53   S    
C67   C70   S    
C62   O24   A    
C93   H109  S    
C59   H70   S    
C57   C58   S    
C81   H83   S    
C30   C39   S    
Cr12  O31   S    
C37   C41   S    
C40   C44   S    
C120  O47   A    
C27   H135  S    
C86   H93   S    
C7    O51   A    
C43   C109  S    
C20   H75   S    
C99   H33   S    
C84   H95   S    
C59   C76   S    
C81   C85   S    
C47   C56   S    
C83   H94   S    
C108  H104  S    
C58   H65   S    
C2    H36   S    
C24   C42   S    
C6    O3    A    
C80   C84   S    
C80   H87   S    
C13   C41   S    
C49   H60   S    
C68   H29   S    
Cr1   O36   S    
C15   C19   S    
C10   C103  S    
H43   N7    S    
C52   H35   S    
C80   C97   S    
C20   C25   S    
C94   C98   S    
C59   H66   S    
C31   C40   S    
C66   H30   S    
C24   C29   S    
C4    C75   S    
Cr5   O37   S    
C102  C115  S    
H45   N8    S    
C26   H138  S    
C25   C99   S    
C114  H116  S    
C9    C102  S    
C119  O41   A    
C12   C17   S    
Cr3   O33   S    
C13   C28   S    
Cr4   O30   S    
C11   C104  S    
Cr3   O11   S    
C8    C101  S    
C21   C61   S    
C65   H27   S    
C2    C27   S    
C27   C45   S    
C23   C63   S    
C3    O48   A    
C64   O30   A    
C101  C114  S    
C82   C100  S    
C31   C49   S    
C90   H127  S    
Cr11  O21   S    
C62   O28   A    
C4    O52   A    
C86   H98   S    
C32   H4    S    
C94   C116  S    
C95   C100  S    
C37   H108  S    
C47   C51   S    
C82   C86   S    
C61   O22   A    
H17   N1    S    
C35   C39   S    
Cr7   O17   S    
Cr8   O22   S    
Cr10  O50   S    
C45   C49   S    
C60   C78   S    
C46   C54   S    
Cr2   O32   S    
Cr3   O29   S    
Cr2   O2    S    
Cr3   O7    S    
C9    O37   A    
C8    O5    A    
Cr4   O8    S    
C56   H54   S    
C11   O39   A    
C67   H73   S    
C54   H52   S    
C100  C118  S    
C104  C108  S    
C47   C113  S    
C114  H121  S    
C46   C50   S    
C91   C108  S    
C22   C77   S    
Cr10  O25   S    
Cr5   O41   S    
C33   C41   S    
C79   C83   S    
C65   H72   S    
C116  H118  S    
C49   H11   S    
C4    O45   A    
C94   H110  S    
C108  H133  S    
C79   H85   S    
C111  O12   A    
C1    C42   S    
C106  H106  S    
C35   C52   S    
H20   N2    S    
C7    O4    A    
C58   C75   S    
C116  H123  S    
C77   H31   S    
C92   H112  S    
C14   C18   S    
C63   O25   A    
H18   N1    S    
C38   H24   S    
C72   C76   S    
Cr9   O49   S    
C53   H46   S    
C71   N2    S    
C98   C119  S    
C82   H89   S    
C10   O38   A    
C9    O6    A    
C113  O34   A    
C11   O8    A    
C38   C42   S    
Cr12  O52   S    
C15   C16   S    
C112  O23   A    
C109  O1    A    
C93   C115  S    
C60   H67   S    
C83   H90   S    
C39   C110  S    
C58   H69   S    
C73   C78   S    
C3    C96   S    
C43   C48   S    
C26   C110  S    
Cr5   O10   S    
Cr1   O40   S    
Cr1   O14   S    
C69   C78   S    
C17   C77   S    
C26   C43   S    
C101  C105  S    
C36   C40   S    
Cr6   O38   S    
C55   O21   A    
C80   H82   S    
C68   C73   S    
C65   C71   S    
C12   H12   S    
C89   C97   S    
C89   H102  S    
C22   C62   S    
C94   H114  S    
C60   H71   S    
C38   H119  S    
C87   C96   S    
C38   C56   S    
C68   C76   S    
C34   H56   S    
C32   C50   S    
C37   C54   S    
Cr8   O9    S    
H42   N6    S    
C12   C14   S    
C57   H68   S    
C82   H84   S    
C90   H99   S    
C31   H7    S    
Cr4   O13   S    
C35   H86   S    
Cr7   O39   S    
C13   N7    S    
C107  H103  S    
C44   O16   A    
C10   O7    A    
Cr9   O10   S    
C51   H62   S    
Cr8   O18   S    
C14   H14   S    
C34   H5    S    
C28   H136  S    
C91   H100  S    
C16   H16   S    
Cr1   O9    S    
Cr10  O47   S    
C97   C120  S    
Cr2   O6    S    
Cr3   O3    S    
C71   C75   S    
C110  H34   S    
C72   H80   S    
C54   H48   S    
C102  C106  S    
C67   H26   S    
H22   N3    S    
Cr5   O12   S    
Cr6   O11   S    
C79   H81   S    
Cr7   O34   S    
C15   C25   S    
C105  H129  S    
C37   H13   S    
C92   C114  S    
C90   C98   S    
C95   H111  S    
