data_mof_unit_57231.cif
_audit_creation_date              2012-12-11T16:28:31-0500
_audit_creation_method            fapswitch 2.2
_symmetry_space_group_name_H-M    P1
_symmetry_Int_Tables_number       1
_space_group_crystal_system       triclinic
_cell_length_a                    16.643452
_cell_length_b                    7.250809
_cell_length_c                    15.158727
_cell_angle_alpha                 89.999693
_cell_angle_beta                  94.602695
_cell_angle_gamma                 90.000472
_cell_volume                      1823.43290365

loop_
_atom_site_label
_atom_site_type_symbol
_atom_type_description
_atom_site_fract_x
_atom_site_fract_y
_atom_site_fract_z
_atom_type_partial_charge
O1    O     O_R   0.663460 0.361760 0.165970 -0.535036
O2    O     O_R   0.336540 0.638240 0.834030 -0.532903
O3    O     O_R   0.836540 0.861760 0.334030 -0.535041
O4    O     O_R   0.163460 0.138240 0.665970 -0.532899
O5    O     O_R   0.827100 0.689870 0.163730 -0.542069
O6    O     O_R   0.172900 0.310130 0.836270 -0.538968
O7    O     O_R   0.672900 0.189870 0.336270 -0.542068
O8    O     O_R   0.327100 0.810130 0.663730 -0.538977
H1    H     H_    0.204467 0.889561 0.495889 0.124575
H2    H     H_    0.795634 0.119210 0.501612 0.127248
H3    H     H_    0.295533 0.389545 0.004118 0.124572
H4    H     H_    0.704372 0.619129 0.998364 0.127240
C1    C     C_R   0.853211 0.522946 0.143472 0.707512
C2    C     C_R   0.146866 0.477066 0.856616 0.710238
C3    C     C_R   0.646789 0.022945 0.356529 0.707522
C4    C     C_R   0.353138 0.977067 0.643389 0.710282
O9    O     O_R   0.663490 0.691370 0.155500 -0.535174
O10   O     O_R   0.336510 0.308630 0.844500 -0.535028
O11   O     O_R   0.836510 0.191370 0.344500 -0.535183
O12   O     O_R   0.163490 0.808630 0.655500 -0.535034
O13   O     O_R   0.671770 0.863320 0.325740 -0.527605
O14   O     O_R   0.328230 0.136680 0.674260 -0.530383
O15   O     O_R   0.828230 0.363320 0.174260 -0.527597
O16   O     O_R   0.171770 0.636680 0.825740 -0.530389
C5    C     C_R   0.635927 0.522441 0.134099 0.679199
C6    C     C_R   0.364011 0.477573 0.866273 0.676630
C7    C     C_R   0.864076 0.022441 0.365896 0.679194
C8    C     C_R   0.135985 0.977571 0.633732 0.676626
O17   O     O_3   0.752910 0.528800 0.305860 -0.373680
O18   O     O_3   0.247090 0.471200 0.694140 -0.373155
O19   O     O_3   0.747090 0.028800 0.194140 -0.373663
O20   O     O_3   0.252910 0.971200 0.805860 -0.373156
V1    V     V_3+5 0.749460 0.803010 0.239640 1.412544
V2    V     V_3+5 0.250540 0.196990 0.760360 1.414403
V3    V     V_3+5 0.750540 0.303010 0.260360 1.412533
V4    V     V_3+5 0.249460 0.696990 0.739640 1.414377
C9    C     C_1   0.468357 0.994832 0.529545 -0.011890
C10   C     C_1   0.530905 0.005190 0.469579 -0.004081
C11   C     C_1   0.031652 0.494828 0.970465 -0.011909
C12   C     C_1   0.969101 0.505189 0.030427 -0.004050
C13   C     C_R   0.018917 0.875835 0.325657 -0.273382
C14   C     C_R   0.979069 0.116773 0.674665 -0.265601
C15   C     C_R   0.481086 0.375860 0.174347 -0.273377
C16   C     C_R   0.520921 0.616762 0.825333 -0.265584
C17   C     C_R   0.093522 0.814313 0.301260 0.269431
C18   C     C_R   0.904748 0.186033 0.697244 0.257869
C19   C     C_R   0.406483 0.314329 0.198747 0.269427
C20   C     C_R   0.595247 0.685929 0.802732 0.257969
C21   C     C_R   0.161949 0.827084 0.361497 0.338349
C22   C     C_R   0.838143 0.187173 0.633804 0.329851
C23   C     C_R   0.338055 0.327080 0.138510 0.338355
C24   C     C_R   0.661865 0.687000 0.866160 0.329926
C25   C     C_R   0.152246 0.884841 0.448899 -0.234138
C26   C     C_R   0.848366 0.125226 0.547954 -0.218717
C27   C     C_R   0.347755 0.384837 0.051108 -0.234151
C28   C     C_R   0.651638 0.625157 0.952025 -0.218649
C29   C     C_R   0.076000 0.936613 0.476059 0.014559
C30   C     C_R   0.924142 0.066327 0.522632 0.006154
C31   C     C_R   0.423999 0.436621 0.023945 0.014553
C32   C     C_R   0.575858 0.566319 0.977361 0.006123
C33   C     C_R   0.008832 0.940726 0.411927 0.033939
C34   C     C_R   0.990584 0.057748 0.587638 0.032970
C35   C     C_R   0.491169 0.440742 0.088075 0.033947
C36   C     C_R   0.509411 0.557752 0.912362 0.032966
C37   C     C_R   0.066574 0.989853 0.564940 -0.113841
C38   C     C_R   0.933320 0.010024 0.434479 -0.113178
C39   C     C_R   0.433422 0.489861 0.935064 -0.113824
C40   C     C_R   0.566681 0.510029 0.065518 -0.113170
C41   C     C_1   0.415622 0.986257 0.581013 -0.214167
C42   C     C_1   0.583988 0.013780 0.418544 -0.203722
C43   C     C_1   0.084387 0.486254 0.918998 -0.214205
C44   C     C_1   0.916015 0.513782 0.081459 -0.203734
H5    H     H_    0.969253 0.872624 0.275188 0.140432
H6    H     H_    0.027877 0.112724 0.726188 0.133371
H7    H     H_    0.530750 0.372662 0.224816 0.140431
H8    H     H_    0.472106 0.612725 0.773818 0.133357
N1    N     N_2   0.098795 0.735029 0.215990 -0.528591
H9    H     H_    0.048488 0.659806 0.194289 0.258704
C45   C     C_3   0.122491 0.861863 0.149337 -0.545702
H10   H     H_    0.125079 0.788154 0.085448 0.198283
H11   H     H_    0.183258 0.918110 0.168499 0.228907
H12   H     H_    0.078020 0.975923 0.139991 0.192328
N2    N     N_2   0.897504 0.255621 0.784053 -0.544236
H13   H     H_    0.937099 0.197547 0.832089 0.256197
C46   C     C_3   0.896762 0.454886 0.789288 -0.515982
H14   H     H_    0.956436 0.511304 0.775055 0.187270
H15   H     H_    0.882902 0.497773 0.856635 0.226459
H16   H     H_    0.849900 0.514061 0.741420 0.211861
N3    N     N_2   0.401212 0.235057 0.284020 -0.528589
H17   H     H_    0.451522 0.159848 0.305724 0.258705
C47   C     C_3   0.377512 0.361898 0.350667 -0.545690
H18   H     H_    0.374929 0.288202 0.414560 0.198281
H19   H     H_    0.316743 0.418127 0.331503 0.228907
H20   H     H_    0.421980 0.475971 0.360006 0.192325
N4    N     N_2   0.602493 0.755363 0.715898 -0.544358
H21   H     H_    0.562805 0.697464 0.667906 0.256228
C48   C     C_3   0.603456 0.954591 0.710595 -0.516306
H22   H     H_    0.543887 0.011394 0.724915 0.187410
H23   H     H_    0.617256 0.997252 0.643212 0.226438
H24   H     H_    0.650450 0.013582 0.758356 0.212000
N5    N     N_2   0.759661 0.237597 0.657488 -0.535320
H25   H     H_    0.753186 0.248963 0.724326 0.285467
C49   C     C_3   0.718952 0.382854 0.605729 -0.549195
H26   H     H_    0.659625 0.410994 0.631646 0.204781
H27   H     H_    0.707547 0.341289 0.535435 0.205619
H28   H     H_    0.755338 0.511417 0.610124 0.200461
N6    N     N_2   0.239255 0.782608 0.332195 -0.523766
H29   H     H_    0.241802 0.678168 0.286395 0.289818
C50   C     C_3   0.312364 0.820083 0.387351 -0.559396
H30   H     H_    0.365309 0.799855 0.348283 0.208680
H31   H     H_    0.317454 0.724665 0.444841 0.196246
H32   H     H_    0.312950 0.965623 0.410089 0.218681
N7    N     N_2   0.740362 0.737203 0.842445 -0.535276
H33   H     H_    0.746825 0.748493 0.775607 0.285439
C51   C     C_3   0.781160 0.882379 0.894178 -0.549538
H34   H     H_    0.840446 0.910522 0.868154 0.204656
H35   H     H_    0.792661 0.840707 0.964448 0.205678
H36   H     H_    0.744792 0.010981 0.889881 0.200544
N8    N     N_2   0.260751 0.282583 0.167813 -0.523765
H37   H     H_    0.258208 0.178142 0.213614 0.289822
C52   C     C_3   0.187640 0.320058 0.112662 -0.559384
H38   H     H_    0.134697 0.299823 0.151733 0.208679
H39   H     H_    0.182547 0.224643 0.055171 0.196248
H40   H     H_    0.187052 0.465600 0.089926 0.218683

loop_
_geom_bond_atom_site_label_1
_geom_bond_atom_site_label_2
_ccdc_geom_bond_type
C30   C34   A    
C16   C20   A    
C10   C42   T    
N5    H25   S    
C20   N4    S    
C27   C31   A    
N6    C50   S    
C2    C43   S    
N4    H21   S    
O10   C6    A    
C13   C33   A    
C48   H22   S    
C15   C35   A    
C21   N6    S    
C46   H14   S    
C16   C36   A    
C22   C26   A    
C6    C39   S    
C9    C41   T    
C50   H31   S    
C14   C18   A    
C18   N2    S    
C47   H19   S    
O3    V1    S    
C51   H34   S    
C1    O15   A    
O8    V4    S    
C2    O16   A    
C16   H8    S    
C52   H40   S    
C48   H23   S    
C33   C38   A    
C30   C38   A    
C51   H35   S    
O5    V1    S    
C23   N8    S    
N6    H29   S    
O19   V1    S    
N3    C47   S    
O11   C7    A    
C14   C34   A    
O5    C1    A    
N1    H9    S    
C31   C39   A    
N1    C45   S    
N5    C49   S    
C11   C43   T    
O1    C5    A    
C19   N3    S    
C5    C40   S    
O9    V1    S    
O4    C8    A    
N8    C52   S    
C15   H7    S    
O14   V2    S    
O4    V2    S    
C14   H6    S    
C46   H15   S    
C36   C39   A    
C49   H27   S    
C50   H32   S    
C11   C12   S    
C45   H11   S    
C25   C29   A    
C19   C23   A    
O12   C8    A    
C24   N7    S    
O6    V2    S    
O20   V2    S    
C9    C10   S    
O6    C2    A    
N2    H13   S    
C17   C21   A    
C51   H36   S    
O2    C6    A    
O16   V4    S    
O10   V2    S    
C52   H38   S    
H4    C28   S    
N2    C46   S    
O15   V3    S    
H1    C25   S    
C47   H18   S    
C48   H24   S    
H3    C27   S    
O1    V3    S    
N7    H33   S    
C26   C30   A    
C46   H16   S    
O2    V4    S    
C3    C42   S    
O17   V3    S    
C35   C40   A    
C4    O14   A    
C12   C44   T    
C34   C37   A    
O7    V3    S    
C4    C41   S    
C29   C37   A    
C45   H12   S    
N8    H37   S    
N4    C48   S    
C29   C33   A    
C1    C44   S    
C18   C22   A    
C31   C35   A    
O18   V4    S    
C32   C36   A    
O9    C5    A    
O3    C7    A    
C8    C37   S    
C7    C38   S    
O11   V3    S    
C50   H30   S    
C47   H20   S    
C3    O13   A    
C21   C25   A    
O7    C3    A    
C49   H28   S    
C23   C27   A    
H2    C26   S    
C52   H39   S    
C13   H5    S    
C45   H10   S    
O12   V4    S    
C28   C32   A    
C20   C24   A    
O13   V1    S    
C32   C40   A    
C22   N5    S    
O8    C4    A    
C49   H26   S    
C13   C17   A    
C17   N1    S    
N3    H17   S    
C15   C19   A    
C24   C28   A    
N7    C51   S    
