data_mof_unit_5315.cif
_audit_creation_date              2012-12-11T15:43:03-0500
_audit_creation_method            fapswitch 2.2
_symmetry_space_group_name_H-M    P1
_symmetry_Int_Tables_number       1
_space_group_crystal_system       triclinic
_cell_length_a                    19.060732
_cell_length_b                    10.938217
_cell_length_c                    18.791391
_cell_angle_alpha                 90.163226
_cell_angle_beta                  89.736253
_cell_angle_gamma                 90.282862
_cell_volume                      3917.72015597

loop_
_atom_site_label
_atom_site_type_symbol
_atom_type_description
_atom_site_fract_x
_atom_site_fract_y
_atom_site_fract_z
_atom_type_partial_charge
C1    C     C_R   0.730005 0.375550 0.145669 0.546766
C2    C     C_R   0.288531 0.329153 0.861264 0.565874
C3    C     C_R   0.230006 0.875550 0.145669 0.546545
C4    C     C_R   0.788517 0.829186 0.861263 0.565996
C5    C     C_R   0.527899 0.381245 0.920954 -0.096243
C6    C     C_R   0.510162 0.397127 0.067900 -0.087484
C7    C     C_R   0.027893 0.881279 0.920939 -0.096133
C8    C     C_R   0.010156 0.897117 0.067887 -0.087582
C9    C     C_R   0.032433 0.994304 0.954901 -0.129961
C10   C     C_R   0.021908 0.002580 0.027938 -0.139104
C11   C     C_R   0.532461 0.494273 0.954909 -0.129987
C12   C     C_R   0.521936 0.502572 0.027944 -0.139103
C13   C     C_R   0.778779 0.842793 0.938061 0.014853
C14   C     C_R   0.247128 0.906673 0.073203 0.018481
C15   C     C_R   0.278797 0.342759 0.938064 0.014830
C16   C     C_R   0.747131 0.406686 0.073206 0.018415
C17   C     C_R   0.714665 0.817592 0.971427 0.008293
C18   C     C_R   0.277784 0.817528 0.029201 0.039165
C19   C     C_R   0.214707 0.317443 0.971454 0.008334
C20   C     C_R   0.777834 0.317580 0.029216 0.039199
C21   C     C_R   0.704340 0.844613 0.042781 0.004420
C22   C     C_R   0.278129 0.830211 0.956049 0.007708
C23   C     C_R   0.204382 0.344473 0.042806 0.004412
C24   C     C_R   0.778188 0.330271 0.956058 0.007671
C25   C     C_R   0.825416 0.904453 0.052999 -0.157376
C26   C     C_R   0.206427 0.009752 0.968577 -0.137600
C27   C     C_R   0.325433 0.404518 0.052992 -0.157406
C28   C     C_R   0.706436 0.509748 0.968579 -0.137496
C29   C     C_R   0.835593 0.877857 0.980862 -0.157164
C30   C     C_R   0.208858 0.000456 0.041667 -0.143870
C31   C     C_R   0.335608 0.377924 0.980852 -0.157222
C32   C     C_R   0.708854 0.500448 0.041667 -0.143921
C33   C     C_3   0.642562 0.857813 0.951945 -0.268551
C34   C     C_3   0.350529 0.766895 0.028682 -0.271030
C35   C     C_3   0.142557 0.357462 0.951984 -0.268504
C36   C     C_3   0.850625 0.267185 0.028717 -0.271089
C37   C     C_3   0.631394 0.887584 0.030001 -0.261639
C38   C     C_3   0.349754 0.778368 0.948065 -0.279943
C39   C     C_3   0.131395 0.387277 0.030036 -0.261818
C40   C     C_3   0.849869 0.278688 0.948106 -0.279978
C41   C     C_R   0.757796 0.898340 0.083094 0.014914
C42   C     C_R   0.245798 0.930500 0.924824 0.022771
C43   C     C_R   0.257818 0.398319 0.083100 0.014894
C44   C     C_R   0.745815 0.430512 0.924831 0.022968
C45   C     C_R   0.531393 0.156310 0.146763 0.537105
C46   C     C_R   0.468963 0.155317 0.853004 0.531366
C47   C     C_R   0.031404 0.656307 0.146754 0.537894
C48   C     C_R   0.968978 0.655319 0.852993 0.530521
C49   C     C_R   0.482110 0.162513 0.569528 0.020322
C50   C     C_R   0.494303 0.163830 0.420678 0.017035
C51   C     C_R   0.005667 0.665659 0.579375 0.016108
C52   C     C_R   0.017747 0.662042 0.430457 0.020928
C53   C     C_R   0.471918 0.056082 0.529863 0.046865
C54   C     C_R   0.477433 0.055905 0.457110 0.027921
C55   C     C_R   0.026772 0.559372 0.543706 0.027768
C56   C     C_R   0.032316 0.558397 0.470883 0.051151
C57   C     C_R   0.491279 0.274751 0.458378 -0.169556
C58   C     C_R   0.487404 0.273917 0.532925 -0.168084
C59   C     C_R   0.007696 0.773150 0.466296 -0.172623
C60   C     C_R   0.004246 0.775461 0.540801 -0.169176
C61   C     C_3   0.506240 0.934740 0.537645 -0.275536
C62   C     C_3   0.511570 0.932516 0.457466 -0.269844
C63   C     C_3   0.998291 0.431298 0.544394 -0.270237
C64   C     C_3   0.003220 0.432150 0.464140 -0.271672
C65   C     C_R   0.749151 0.925490 0.578877 0.013413
C66   C     C_R   0.252427 0.935400 0.418501 0.015909
C67   C     C_R   0.247523 0.430375 0.580520 0.015182
C68   C     C_R   0.750592 0.428429 0.420680 0.015768
C69   C     C_R   0.790689 0.012677 0.543980 0.019083
C70   C     C_R   0.207946 0.016410 0.454727 0.020947
C71   C     C_R   0.288377 0.518802 0.545785 0.021050
C72   C     C_R   0.706376 0.509862 0.456725 0.019707
C73   C     C_R   0.789735 0.020355 0.470982 0.047076
C74   C     C_R   0.210064 0.024178 0.527660 0.039939
C75   C     C_R   0.287117 0.527078 0.472829 0.044770
C76   C     C_R   0.707879 0.517122 0.529684 0.043588
C77   C     C_R   0.698554 0.868013 0.464817 -0.168844
C78   C     C_R   0.310789 0.893535 0.530366 -0.149709
C79   C     C_R   0.194543 0.377834 0.466823 -0.152072
C80   C     C_R   0.804374 0.376656 0.533556 -0.162376
C81   C     C_R   0.698808 0.860456 0.539083 -0.163803
C82   C     C_R   0.309039 0.885390 0.455947 -0.150502
C83   C     C_R   0.195376 0.369176 0.541131 -0.151514
C84   C     C_R   0.803886 0.370393 0.459224 -0.160661
C85   C     C_3   0.868487 0.032651 0.545490 -0.269692
C86   C     C_3   0.129597 0.027922 0.455069 -0.269550
C87   C     C_3   0.365631 0.544712 0.547473 -0.270243
C88   C     C_3   0.627966 0.519902 0.456410 -0.269724
C89   C     C_R   0.742037 0.967186 0.148032 0.544381
C90   C     C_R   0.258092 0.970053 0.852476 0.541158
C91   C     C_R   0.242040 0.467181 0.148033 0.544649
C92   C     C_R   0.758097 0.470065 0.852481 0.540352
C93   C     C_3   0.867195 0.037454 0.465386 -0.270878
C94   C     C_3   0.132456 0.032997 0.535266 -0.272864
C95   C     C_3   0.364106 0.549568 0.467186 -0.270101
C96   C     C_3   0.630120 0.525573 0.536492 -0.274267
C97   C     C_R   0.747031 0.944018 0.430065 0.021743
C98   C     C_R   0.257027 0.954867 0.567124 0.019910
C99   C     C_R   0.244572 0.450583 0.431781 0.021782
C100  C     C_R   0.753412 0.445431 0.569487 0.021951
C101  C     C_R   0.729869 0.379755 0.351944 0.548241
C102  C     C_R   0.269824 0.380215 0.648294 0.559223
C103  C     C_R   0.230263 0.881093 0.351419 0.547416
C104  C     C_R   0.770141 0.879218 0.647882 0.559597
C105  C     C_R   0.530879 0.156785 0.352733 0.547412
C106  C     C_R   0.465545 0.156818 0.644871 0.546179
C107  C     C_R   0.034331 0.656629 0.355085 0.543998
C108  C     C_R   0.969134 0.657063 0.647284 0.551192
C109  C     C_R   0.740894 0.973414 0.355335 0.544287
C110  C     C_R   0.260329 0.977480 0.643154 0.548683
C111  C     C_R   0.240239 0.475630 0.356215 0.545751
C112  C     C_R   0.759244 0.474047 0.644440 0.547073
C113  C     C_R   0.496787 0.161961 0.925561 -0.001360
C114  C     C_R   0.502666 0.168869 0.074736 -0.001545
C115  C     C_R   0.996852 0.661970 0.925530 -0.000991
C116  C     C_R   0.002714 0.668850 0.074707 -0.001810
C117  C     C_R   0.511466 0.274330 0.959816 0.011849
C118  C     C_R   0.508357 0.280179 0.035234 0.030606
C119  C     C_R   0.011491 0.774344 0.959794 0.011982
C120  C     C_R   0.008380 0.780173 0.035214 0.030457
C121  C     C_R   0.489443 0.059558 0.039020 -0.169220
C122  C     C_R   0.489268 0.055464 0.966157 -0.155640
C123  C     C_R   0.989561 0.559527 0.038974 -0.169376
C124  C     C_R   0.989414 0.555450 0.966110 -0.155558
Cr1   Cr    Cr6+3 0.772010 0.169670 0.250090 1.006789
Cr2   Cr    Cr6+3 0.227990 0.169670 0.749910 1.002769
Cr3   Cr    Cr6+3 0.272010 0.669670 0.250090 1.006886
Cr4   Cr    Cr6+3 0.727990 0.669670 0.749910 1.002904
Cr5   Cr    Cr6+3 0.615000 0.323260 0.249260 1.000761
Cr6   Cr    Cr6+3 0.385000 0.323260 0.750740 0.997325
Cr7   Cr    Cr6+3 0.115000 0.823260 0.249260 1.001296
Cr8   Cr    Cr6+3 0.885000 0.823260 0.750740 0.996896
Cr9   Cr    Cr6+3 0.616710 0.010760 0.250840 1.005556
Cr10  Cr    Cr6+3 0.383290 0.010760 0.749160 1.004442
Cr11  Cr    Cr6+3 0.116710 0.510760 0.250840 1.009187
Cr12  Cr    Cr6+3 0.883290 0.510760 0.749160 1.001447
H1    H     H_    0.484288 0.973914 0.067376 0.129983
H2    H     H_    0.481220 0.967136 0.941663 0.136459
H3    H     H_    0.984448 0.473866 0.067316 0.129934
H4    H     H_    0.981442 0.467119 0.941601 0.136517
H5    H     H_    0.497714 0.360546 0.430910 0.113330
H6    H     H_    0.491528 0.358857 0.561916 0.112831
H7    H     H_    0.000292 0.856561 0.436761 0.111011
H8    H     H_    0.995150 0.860959 0.567735 0.116145
H9    H     H_    0.943546 0.425471 0.563438 0.166235
H10   H     H_    0.041554 0.365744 0.442617 0.134655
H11   H     H_    0.470725 0.863315 0.559323 0.131510
H12   H     H_    0.566522 0.935129 0.438657 0.171466
H13   H     H_    0.557893 0.941689 0.564567 0.139811
H14   H     H_    0.478242 0.860813 0.432480 0.121835
H15   H     H_    0.034868 0.365820 0.569639 0.124630
H16   H     H_    0.951351 0.430709 0.437443 0.135282
H17   H     H_    0.662368 0.812040 0.434634 0.117092
H18   H     H_    0.351962 0.848137 0.559107 0.122002
H19   H     H_    0.157481 0.323785 0.436737 0.117850
H20   H     H_    0.842435 0.324583 0.562933 0.114678
H21   H     H_    0.664128 0.795867 0.564680 0.131034
H22   H     H_    0.347889 0.831441 0.428497 0.120312
H23   H     H_    0.160115 0.305874 0.566897 0.125230
H24   H     H_    0.840858 0.311748 0.432472 0.123997
H25   H     H_    0.896934 0.952398 0.565172 0.166347
H26   H     H_    0.103075 0.944884 0.435494 0.172865
H27   H     H_    0.396796 0.467589 0.567331 0.166564
H28   H     H_    0.602475 0.435540 0.437083 0.169899
H29   H     H_    0.883394 0.120797 0.570801 0.125190
H30   H     H_    0.111677 0.114587 0.430578 0.121257
H31   H     H_    0.377877 0.634218 0.572657 0.123778
H32   H     H_    0.609544 0.605870 0.431464 0.124831
H33   H     H_    0.883168 0.127222 0.443662 0.133196
H34   H     H_    0.114393 0.121125 0.557624 0.129836
H35   H     H_    0.377652 0.640482 0.445540 0.132454
H36   H     H_    0.611811 0.613939 0.558462 0.132719
H37   H     H_    0.893013 0.958120 0.439462 0.133294
H38   H     H_    0.109797 0.951066 0.561588 0.141139
H39   H     H_    0.391786 0.472325 0.441148 0.137128
H40   H     H_    0.607086 0.443696 0.562698 0.135462
H41   H     H_    0.537620 0.378432 0.864240 0.134034
H42   H     H_    0.498751 0.410099 0.123708 0.132145
H43   H     H_    0.037611 0.878483 0.864223 0.133945
H44   H     H_    0.998743 0.910073 0.123695 0.132220
H45   H     H_    0.043177 0.075944 0.924260 0.104607
H46   H     H_    0.023122 0.091096 0.053846 0.100333
H47   H     H_    0.543222 0.575899 0.924262 0.104654
H48   H     H_    0.523168 0.591093 0.053847 0.100339
H49   H     H_    0.868736 0.942049 0.083004 0.130511
H50   H     H_    0.177199 0.085191 0.946904 0.146549
H51   H     H_    0.368748 0.442183 0.082984 0.130490
H52   H     H_    0.677214 0.585186 0.946905 0.146599
H53   H     H_    0.886448 0.894078 0.957313 0.153571
H54   H     H_    0.179331 0.065316 0.073463 0.138957
H55   H     H_    0.386454 0.394222 0.957292 0.153543
H56   H     H_    0.679314 0.565292 0.073458 0.138929
H57   H     H_    0.109287 0.280372 0.933104 0.123631
H58   H     H_    0.852062 0.170825 0.047070 0.156906
H59   H     H_    0.609230 0.780846 0.933026 0.123698
H60   H     H_    0.351867 0.670531 0.047045 0.156944
H61   H     H_    0.591589 0.827955 0.056120 0.128523
H62   H     H_    0.349066 0.688434 0.920338 0.151891
H63   H     H_    0.091631 0.327592 0.056187 0.128419
H64   H     H_    0.849308 0.188778 0.920364 0.151746
O1    O     O_R   0.787520 0.042810 0.170440 -0.529657
O2    O     O_R   0.212480 0.042810 0.829560 -0.538879
O3    O     O_R   0.287520 0.542810 0.170440 -0.529474
O4    O     O_R   0.712480 0.542810 0.829560 -0.539345
O5    O     O_R   0.556610 0.252880 0.323980 -0.510723
O6    O     O_R   0.443390 0.252880 0.676020 -0.509402
O7    O     O_R   0.056610 0.752880 0.323980 -0.510491
O8    O     O_R   0.943390 0.752880 0.676020 -0.509829
O9    O     O_R   0.545950 0.051210 0.330860 -0.524746
O10   O     O_R   0.454050 0.051210 0.669140 -0.516771
O11   O     O_R   0.045950 0.551210 0.330860 -0.518787
O12   O     O_R   0.954050 0.551210 0.669140 -0.522283
O13   O     O_R   0.681390 0.959480 0.325510 -0.510303
O14   O     O_R   0.318610 0.959480 0.674490 -0.504703
O15   O     O_R   0.181390 0.459480 0.325510 -0.506845
O16   O     O_R   0.818610 0.459480 0.674490 -0.506270
O17   O     O_3   0.667900 0.167900 0.250060 -0.240767
O18   O     O_3   0.332100 0.167900 0.749940 -0.264164
O19   O     O_3   0.167900 0.667900 0.250060 -0.242590
O20   O     O_3   0.832100 0.667900 0.749940 -0.261873
O21   O     O_R   0.765640 0.292100 0.175020 -0.500439
O22   O     O_R   0.234360 0.292100 0.824980 -0.501965
O23   O     O_R   0.265640 0.792100 0.175020 -0.500617
O24   O     O_R   0.734360 0.792100 0.824980 -0.501966
O25   O     O_R   0.670190 0.408840 0.168540 -0.521544
O26   O     O_R   0.329810 0.408840 0.831460 -0.521104
O27   O     O_R   0.170190 0.908840 0.168540 -0.521681
O28   O     O_R   0.829810 0.908840 0.831460 -0.521067
O29   O     O_R   0.556620 0.251410 0.175160 -0.509798
O30   O     O_R   0.443380 0.251410 0.824840 -0.525947
O31   O     O_R   0.056620 0.751410 0.175160 -0.509066
O32   O     O_R   0.943380 0.751410 0.824840 -0.526750
O33   O     O_R   0.545960 0.049620 0.170320 -0.526333
O34   O     O_R   0.454040 0.049620 0.829680 -0.525671
O35   O     O_R   0.045960 0.549620 0.170320 -0.526342
O36   O     O_R   0.954040 0.549620 0.829680 -0.525837
O37   O     O_R   0.681390 0.958010 0.176690 -0.498695
O38   O     O_R   0.318610 0.958010 0.823310 -0.501328
O39   O     O_R   0.181390 0.458010 0.176690 -0.498929
O40   O     O_R   0.818610 0.458010 0.823310 -0.501556
O41   O     O_R   0.787510 0.044390 0.330970 -0.519747
O42   O     O_R   0.212490 0.044390 0.669030 -0.519121
O43   O     O_R   0.287510 0.544390 0.330970 -0.520455
O44   O     O_R   0.712490 0.544390 0.669030 -0.518738
O45   O     O_R   0.765630 0.293570 0.323840 -0.506725
O46   O     O_R   0.234370 0.293570 0.676160 -0.502808
O47   O     O_R   0.265630 0.793570 0.323840 -0.506052
O48   O     O_R   0.734370 0.793570 0.676160 -0.502460
O49   O     O_R   0.670190 0.410420 0.329080 -0.526338
O50   O     O_R   0.329810 0.410420 0.670920 -0.521451
O51   O     O_R   0.170190 0.910420 0.329080 -0.526964
O52   O     O_R   0.829810 0.910420 0.670920 -0.521308
H65   H     H_    0.642624 0.940030 0.917249 0.155893
H66   H     H_    0.388952 0.828717 0.054918 0.123323
H67   H     H_    0.142532 0.439653 0.917259 0.155979
H68   H     H_    0.888966 0.329120 0.054979 0.123363
H69   H     H_    0.625953 0.987115 0.040415 0.167173
H70   H     H_    0.388161 0.845263 0.926891 0.152920
H71   H     H_    0.125903 0.486812 0.040422 0.167082
H72   H     H_    0.888194 0.345736 0.926965 0.153184

loop_
_geom_bond_atom_site_label_1
_geom_bond_atom_site_label_2
_ccdc_geom_bond_type
C108  O12   A    
C89   O1    A    
C55   C56   A    
C88   C96   S    
C67   C83   A    
Cr10  O10   S    
C116  C123  A    
C31   H55   S    
Cr2   O46   S    
C85   H25   S    
C14   C18   A    
C87   H27   S    
C86   H30   S    
C73   C93   S    
C78   C98   A    
C108  O8    A    
Cr7   O7    S    
Cr4   O24   S    
C84   H24   S    
Cr3   O19   S    
C123  C124  A    
C74   C98   A    
C66   C70   A    
C53   C54   A    
Cr2   O2    S    
C15   C19   A    
Cr6   O6    S    
Cr1   O1    S    
Cr11  O19   S    
C50   C54   A    
C52   C56   A    
C17   C33   S    
C64   H16   S    
C104  O52   A    
C46   O34   A    
C112  O16   A    
C13   C29   A    
C85   H29   S    
C110  O14   A    
C37   H69   S    
Cr8   O52   S    
C5    C11   A    
C109  O13   A    
Cr8   O28   S    
C6    C12   A    
C82   H22   S    
C65   C69   A    
C8    H44   S    
C107  O11   A    
Cr6   O30   S    
Cr7   O31   S    
C22   C38   S    
Cr12  O16   S    
C123  H3    S    
Cr9   O9    S    
C2    O22   A    
C105  O9    A    
C32   H56   S    
C53   C61   S    
Cr7   O19   S    
Cr4   O4    S    
C121  H1    S    
C4    C13   S    
Cr6   O18   S    
C110  O42   A    
C1    O21   A    
Cr5   O17   S    
C86   C94   S    
C83   H23   S    
C77   H17   S    
Cr12  O12   S    
C114  C121  A    
C85   C93   S    
C45   C114  S    
C87   H31   S    
C113  C122  A    
C20   C24   A    
C52   C107  S    
Cr11  O39   S    
C51   C108  S    
C104  O48   A    
C55   C63   S    
Cr11  O11   S    
C70   C74   A    
C50   C105  S    
C111  O43   A    
C105  O5    A    
C56   C64   S    
Cr1   O41   S    
C86   H26   S    
C36   H68   S    
C37   H61   S    
C62   H14   S    
C9    C10   A    
Cr4   O20   S    
C107  O7    A    
C44   C92   S    
Cr3   O23   S    
C30   H54   S    
C109  O41   A    
C71   C87   S    
C99   C111  S    
C59   C60   A    
C62   H12   S    
C80   C100  A    
C25   C29   A    
C4    O24   A    
C46   O30   A    
Cr9   O17   S    
C63   H15   S    
Cr9   O37   S    
C98   C110  S    
C14   C30   A    
Cr8   O32   S    
C75   C99   A    
C72   C88   S    
Cr7   O51   S    
C80   H20   S    
C47   O35   A    
C67   C102  S    
Cr6   O50   S    
C40   H72   S    
C47   C116  S    
Cr11  O15   S    
Cr4   O44   S    
C81   H21   S    
C90   O38   A    
C75   C95   S    
C80   C84   A    
C68   C84   A    
C89   O37   A    
C76   C100  A    
C28   C32   A    
C11   H47   S    
C68   C101  S    
C122  H2    S    
C45   O33   A    
C25   C41   A    
C35   H57   S    
C19   C23   A    
C78   H18   S    
Cr9   O33   S    
C54   C62   S    
C51   C55   A    
C88   H32   S    
C27   C43   A    
Cr10  O18   S    
C27   C31   A    
C15   C31   A    
C28   C44   A    
C103  O47   A    
C49   C58   A    
C116  C120  A    
Cr6   O26   S    
C5    C117  A    
C68   C72   A    
C42   C90   S    
C34   C38   S    
C35   C39   S    
Cr3   O43   S    
Cr2   O42   S    
C38   H70   S    
C52   C59   A    
C7    C119  A    
C76   C96   S    
C66   C82   A    
Cr5   O5    S    
C101  O45   A    
C78   C82   A    
C65   C81   A    
C77   C81   A    
C16   C20   A    
C93   H33   S    
C38   H62   S    
Cr10  O34   S    
C79   C99   A    
C7    H43   S    
C72   C76   A    
C1    C16   S    
C27   H51   S    
Cr5   O29   S    
C69   C73   A    
C2    C15   S    
C18   C34   S    
Cr5   O25   S    
C5    H41   S    
C121  C122  A    
C114  C118  A    
Cr4   O48   S    
C25   H49   S    
C94   H38   S    
C48   C115  S    
C21   C41   A    
C47   O31   A    
C102  O46   A    
C24   C44   A    
C73   C97   A    
C115  C119  A    
Cr12  O40   S    
C10   H46   S    
Cr2   O18   S    
C29   H53   S    
C51   C60   A    
Cr3   O47   S    
C39   H71   S    
C48   O32   A    
C70   C86   S    
Cr5   O49   S    
C3    O27   A    
C115  C124  A    
C36   C40   S    
C69   C85   S    
C2    O26   A    
Cr8   O8    S    
C33   C37   S    
C1    O25   A    
C113  C117  A    
C34   H60   S    
C7    C9    A    
C8    C120  A    
C39   H63   S    
C87   C95   S    
C92   O40   A    
C3    O23   A    
C58   H6    S    
C96   H40   S    
C46   C113  S    
C64   H10   S    
C41   C89   S    
C18   C22   A    
C23   C43   A    
C66   C103  S    
C45   O29   A    
C101  O49   A    
C124  H4    S    
C71   C75   A    
Cr11  O35   S    
C111  O15   A    
C106  O10   A    
C92   O4    A    
C106  O6    A    
C119  C120  A    
Cr2   O22   S    
C100  C112  S    
C49   C106  S    
Cr12  O20   S    
C13   C17   A    
C16   C32   A    
C79   H19   S    
C40   H64   S    
Cr10  O14   S    
C57   H5    S    
C34   H66   S    
Cr9   O13   S    
C36   H58   S    
C33   H65   S    
C97   C109  S    
C61   H11   S    
C103  O51   A    
C88   H28   S    
C95   H39   S    
C60   H8    S    
Cr1   O21   S    
C79   C83   A    
C50   C57   A    
C57   C58   A    
C22   C42   A    
Cr3   O3    S    
C61   H13   S    
C23   C39   S    
C3    C14   S    
Cr12  O36   S    
C93   H37   S    
C48   O36   A    
C28   H52   S    
C102  O50   A    
C67   C71   A    
C4    O28   A    
C26   C42   A    
C61   C62   S    
C12   H48   S    
C43   C91   S    
C24   C40   S    
C49   C53   A    
C9    H45   S    
Cr1   O17   S    
Cr10  O38   S    
C59   H7    S    
C63   C64   S    
C20   C36   S    
Cr7   O27   S    
C112  O44   A    
C21   C37   S    
C33   H59   S    
C8    C10   A    
Cr1   O45   S    
C96   H36   S    
C91   O39   A    
C74   C94   S    
C35   H67   S    
C91   O3    A    
C26   H50   S    
C19   C35   S    
C77   C97   A    
C65   C104  S    
Cr8   O20   S    
C117  C118  A    
C95   H35   S    
C63   H9    S    
C94   H34   S    
C6    H42   S    
C11   C12   A    
C6    C118  A    
C90   O2    A    
C26   C30   A    
C17   C21   A    
