data_mof_unit_66587.cif
_audit_creation_date              2012-12-10T16:50:04-0500
_audit_creation_method            fapswitch 2.2
_symmetry_space_group_name_H-M    P1
_symmetry_Int_Tables_number       1
_space_group_crystal_system       triclinic
_cell_length_a                    7.749898
_cell_length_b                    8.630265
_cell_length_c                    10.635598
_cell_angle_alpha                 91.298618
_cell_angle_beta                  87.535016
_cell_angle_gamma                 92.951577
_cell_volume                      709.597779484

loop_
_atom_site_label
_atom_site_type_symbol
_atom_type_description
_atom_site_fract_x
_atom_site_fract_y
_atom_site_fract_z
_atom_type_partial_charge
C1    C     C_R   0.544672 0.793926 0.496550 0.903805
C2    C     C_R   0.455074 0.205805 0.500247 0.842310
C3    C     C_R   0.492085 0.489544 0.259719 0.941023
C4    C     C_R   0.325740 0.742811 0.895465 0.311658
C5    C     C_R   0.183194 0.806372 0.963496 0.213347
C6    C     C_R   0.110366 0.728898 0.068481 0.449501
C7    C     C_R   0.190929 0.601376 0.114959 0.293444
C8    C     C_R   0.356178 0.562174 0.064001 -0.275209
C9    C     C_3   0.910083 0.414965 0.863338 -0.203612
C10   C     C_3   0.974280 0.854127 0.231211 -0.074477
C11   C     C_3   0.739676 0.004951 0.675446 -0.095822
C12   C     C_R   0.403999 0.612151 0.943665 -0.079151
C13   C     C_R   0.522378 0.522890 0.873032 -0.172553
C14   C     C_R   0.628001 0.419047 0.930137 0.349434
C15   C     C_R   0.602679 0.393003 0.058305 0.390401
C16   C     C_R   0.474596 0.472899 0.125751 -0.168283
C17   C     C_2   0.567482 0.956034 0.508985 0.243194
C18   C     C_2   0.432269 0.043032 0.485950 0.124900
C19   C     C_R   0.507015 0.509298 0.739801 0.983498
H1    H     H_    0.962771 0.410082 0.958513 0.171812
H2    H     H_    0.137111 0.398922 0.184146 0.355901
H3    H     H_    0.764705 0.225566 0.058759 0.375266
H4    H     H_    0.739619 0.881508 0.703316 0.192158
H5    H     H_    0.633459 0.064673 0.727358 0.168779
H6    H     H_    0.863857 0.062358 0.703653 0.210112
H7    H     H_    0.200062 0.060118 0.420875 0.366872
H8    H     H_    0.924884 0.273151 0.374868 0.363552
H9    H     H_    0.905637 0.538025 0.834787 0.188808
H10   H     H_    0.001002 0.357114 0.796315 0.188223
H11   H     H_    0.070508 0.718717 0.635572 0.345501
H12   H     H_    0.304574 0.863644 0.745120 0.338193
H13   H     H_    0.198359 0.009435 0.888603 0.331749
H14   H     H_    0.846744 0.892126 0.267837 0.177525
H15   H     H_    0.059613 0.960343 0.215640 0.143983
H16   H     H_    0.026628 0.781270 0.304200 0.209982
N1    N     N_2   0.950330 0.457950 0.466250 0.215442
N2    N     N_2   0.049670 0.542050 0.533750 0.175240
O1    O     O_R   0.389250 0.738570 0.508280 -0.582980
O2    O     O_3   0.974520 0.659330 0.595183 -0.669933
O3    O     O_3   0.394984 0.808383 0.786096 -0.809594
O4    O     O_3   0.107611 0.938922 0.927735 -0.748713
O5    O     O_3   0.950495 0.769500 0.117813 -0.569530
O6    O     O_3   0.092655 0.504490 0.193978 -0.683935
O7    O     O_3   0.696021 0.287467 0.120185 -0.756580
O8    O     O_3   0.728229 0.017680 0.544087 -0.626845
O9    O     O_3   0.277914 0.977803 0.441764 -0.784025
O10   O     O_3   0.022010 0.333540 0.413129 -0.649522
O11   O     O_R   0.678390 0.711630 0.486650 -0.583273
O12   O     O_R   0.355400 0.513470 0.694050 -0.643770
O13   O     O_R   0.644540 0.486530 0.672420 -0.569829
O14   O     O_R   0.321610 0.288370 0.513350 -0.597447
O15   O     O_R   0.610750 0.261430 0.491720 -0.587069
O16   O     O_R   0.355460 0.513470 0.327580 -0.589143
O17   O     O_R   0.644600 0.486530 0.305950 -0.560170
O18   O     O_3   0.746510 0.335399 0.859093 -0.639773
Zn1   Zn    Zn3+2 0.306930 0.517990 0.514440 1.053471
Zn2   Zn    Zn3+2 0.693070 0.482010 0.485560 1.102153

loop_
_geom_bond_atom_site_label_1
_geom_bond_atom_site_label_2
_ccdc_geom_bond_type
H11   O2    S    
O15   Zn2   S    
H13   O4    S    
C1    O11   A    
C6    C7    A    
C9    O18   S    
C7    O6    S    
C10   O5    S    
O12   Zn1   S    
C4    C12   A    
C19   O12   A    
C9    H1    S    
C1    C17   S    
C9    H10   S    
C8    C12   A    
C8    C16   A    
C14   O18   S    
O11   Zn2   S    
N2    O2    S    
C13   C14   A    
C12   C13   A    
C3    O16   A    
C19   O13   A    
C10   H16   S    
C2    O15   A    
C1    O1    A    
C18   O9    S    
C11   H4    S    
N1    N2    D    
C17   O8    S    
C15   O7    S    
C17   C18   D    
C10   H14   S    
C5    C6    A    
C3    O17   A    
C11   O8    S    
C2    C18   S    
C2    O14   A    
H7    O9    S    
C15   C16   A    
C11   H5    S    
C7    C8    A    
O1    Zn1   S    
H12   O3    S    
N1    O10   S    
C10   H15   S    
N1    Zn2   S    
C6    O5    S    
O16   Zn1   S    
H8    O10   S    
N2    Zn1   S    
C11   H6    S    
C14   C15   A    
C13   C19   S    
C5    O4    S    
H2    O6    S    
O13   Zn2   S    
H3    O7    S    
C3    C16   S    
C4    O3    S    
C9    H9    S    
C4    C5    A    
O17   Zn2   S    
O14   Zn1   S    
