data_mof_unit_50887.cif
_audit_creation_date              2012-12-11T15:39:10-0500
_audit_creation_method            fapswitch 2.2
_symmetry_space_group_name_H-M    P1
_symmetry_Int_Tables_number       1
_space_group_crystal_system       triclinic
_cell_length_a                    14.33997
_cell_length_b                    14.792607
_cell_length_c                    33.175887
_cell_angle_alpha                 97.51841
_cell_angle_beta                  90.447148
_cell_angle_gamma                 118.913691
_cell_volume                      6086.75502757

loop_
_atom_site_label
_atom_site_type_symbol
_atom_type_description
_atom_site_fract_x
_atom_site_fract_y
_atom_site_fract_z
_atom_type_partial_charge
C1    C     C_R   0.616920 0.910307 0.437019 0.543338
C2    C     C_R   0.733824 0.410114 0.185761 0.051924
C3    C     C_R   0.719578 0.882755 0.652471 -0.121489
C4    C     C_R   0.650769 0.777200 0.655212 0.029308
C5    C     C_R   0.635345 0.859504 0.585271 0.022555
C6    C     C_R   0.052330 0.781364 0.063751 0.543756
C7    C     C_R   0.743772 0.486233 0.066061 0.548304
C8    C     C_R   0.742924 0.789219 0.066393 0.553274
C9    C     C_R   0.021082 0.731906 0.947265 0.534406
C10   C     C_R   0.712221 0.437795 0.949226 0.533067
C11   C     C_R   0.741824 0.717201 0.945526 0.563973
C12   C     C_R   0.826760 0.438577 0.165287 -0.156134
C13   C     C_R   0.828068 0.456284 0.125075 -0.140294
C14   C     C_R   0.771945 0.343029 0.245097 -0.133438
C15   C     C_R   0.766617 0.333265 0.286305 -0.116527
C16   C     C_R   0.729007 0.388762 0.312673 0.028955
C17   C     C_R   0.702429 0.458441 0.297640 -0.118328
C18   C     C_R   0.707468 0.467876 0.256420 -0.079988
C19   C     C_R   0.738961 0.407687 0.229780 0.044381
C20   C     C_R   0.605574 0.344096 0.368049 -0.118820
C21   C     C_R   0.594099 0.205748 0.456689 0.544340
C22   C     C_R   0.572109 0.298905 0.403173 -0.127074
C23   C     C_R   0.739976 0.298948 0.412602 -0.127014
C24   C     C_R   0.773487 0.344356 0.377519 -0.121946
C25   C     C_R   0.704771 0.363309 0.354092 0.033339
C26   C     C_R   0.637222 0.271901 0.424746 0.021866
C27   C     C_R   0.245433 0.878628 0.393252 0.020210
C28   C     C_R   0.233363 0.960029 0.380693 -0.127533
C29   C     C_R   0.210446 0.958429 0.339527 -0.115505
C30   C     C_R   0.198651 0.875298 0.310531 0.040157
C31   C     C_R   0.203517 0.790784 0.323001 -0.113348
C32   C     C_R   0.295669 0.892883 0.434367 0.541705
C33   C     C_R   0.226535 0.792196 0.364138 -0.128170
C34   C     C_R   0.197777 0.808911 0.163008 -0.115108
C35   C     C_R   0.168695 0.786577 0.121189 -0.127858
C36   C     C_R   0.093020 0.902627 0.129286 -0.130701
C37   C     C_R   0.121732 0.924426 0.171230 -0.118827
C38   C     C_R   0.170518 0.874481 0.188270 0.036891
C39   C     C_1   0.181570 0.880092 0.231696 -0.033285
C40   C     C_1   0.188715 0.879356 0.267804 -0.031887
C41   C     C_R   0.111689 0.829509 0.104202 0.019294
C42   C     C_R   0.637414 0.878731 0.395491 0.020280
C43   C     C_R   0.613906 0.904847 0.551610 0.542485
C44   C     C_R   0.552544 0.800161 0.368434 -0.130484
C45   C     C_R   0.564681 0.788017 0.326711 -0.116884
C46   C     C_R   0.661758 0.853560 0.311777 0.038566
C47   C     C_R   0.748868 0.926627 0.338728 -0.115005
C48   C     C_R   0.736952 0.939082 0.380426 -0.126029
C49   C     C_R   0.778234 0.920285 0.174643 -0.116528
C50   C     C_R   0.793464 0.907145 0.133225 -0.129366
C51   C     C_R   0.618388 0.752408 0.121473 -0.126075
C52   C     C_R   0.603283 0.765904 0.162808 -0.114966
C53   C     C_R   0.684703 0.847572 0.189589 0.039098
C54   C     C_R   0.589773 0.199391 0.570883 0.540943
C55   C     C_1   0.676229 0.850660 0.232638 -0.033561
C56   C     C_1   0.669716 0.851409 0.268730 -0.033652
C57   C     C_R   0.715475 0.820376 0.106604 0.021308
C58   C     C_R   0.623404 0.250107 0.613755 0.019441
C59   C     C_R   0.558881 0.282145 0.636241 -0.128761
C60   C     C_R   0.575641 0.306421 0.678669 -0.113313
C61   C     C_R   0.657099 0.299303 0.698975 0.039495
C62   C     C_R   0.726376 0.274739 0.676746 -0.118461
C63   C     C_R   0.710000 0.250671 0.634301 -0.131819
C64   C     C_R   0.762152 0.344137 0.845198 -0.116594
C65   C     C_R   0.288791 0.886569 0.548403 0.544965
C66   C     C_R   0.771694 0.370369 0.887556 -0.128524
C67   C     C_R   0.593269 0.349873 0.884920 -0.127488
C68   C     C_R   0.583984 0.323649 0.842574 -0.113244
C69   C     C_R   0.669878 0.324557 0.822630 0.040764
C70   C     C_1   0.666850 0.314829 0.779057 -0.031646
C71   C     C_1   0.663749 0.308661 0.742551 -0.032194
C72   C     C_R   0.689221 0.378286 0.907663 0.021301
C73   C     C_R   0.064073 0.751968 0.907552 0.023883
C74   C     C_R   0.093386 0.848239 0.894736 -0.139542
C75   C     C_R   0.109591 0.859309 0.853977 -0.126668
C76   C     C_R   0.736382 0.446152 0.104845 -0.004613
C77   C     C_R   0.096523 0.774197 0.825545 0.031912
C78   C     C_R   0.074095 0.680087 0.838917 -0.120251
C79   C     C_R   0.058548 0.669211 0.879686 -0.122230
C80   C     C_R   0.152370 0.736948 0.757410 -0.116822
C81   C     C_R   0.156733 0.743579 0.716050 -0.116774
C82   C     C_R   0.110603 0.795425 0.698406 0.030385
C83   C     C_R   0.058274 0.839011 0.722541 -0.122073
C84   C     C_R   0.053516 0.831996 0.764001 -0.121627
C85   C     C_R   0.101419 0.781711 0.781790 0.031922
C86   C     C_R   0.172462 0.915398 0.646901 -0.120828
C87   C     C_R   0.641124 0.410185 0.124355 -0.114961
C88   C     C_R   0.217587 0.938319 0.610031 -0.129755
C89   C     C_R   0.165868 0.755645 0.589589 -0.126192
C90   C     C_R   0.120555 0.732789 0.626329 -0.124093
C91   C     C_R   0.128871 0.813462 0.656056 0.028931
C92   C     C_R   0.219713 0.859445 0.582158 0.021953
C93   C     C_R   0.720232 0.703511 0.900922 0.017754
C94   C     C_R   0.621510 0.628160 0.880263 -0.125394
C95   C     C_R   0.604577 0.621211 0.838009 -0.120364
C96   C     C_R   0.686831 0.687862 0.815859 0.031664
C97   C     C_R   0.786657 0.759273 0.836419 -0.111390
C98   C     C_R   0.638617 0.390842 0.164588 0.145921
C99   C     C_R   0.803025 0.767026 0.878356 -0.120530
C100  C     C_R   0.577651 0.697777 0.759423 -0.078070
C101  C     C_R   0.568133 0.721643 0.720578 0.155973
C102  C     C_R   0.649720 0.738008 0.693923 0.027556
C103  C     C_R   0.736913 0.726971 0.706256 -0.145478
C104  C     C_R   0.745588 0.703635 0.745045 -0.132138
C105  C     C_R   0.667548 0.691708 0.772371 -0.006859
C106  C     C_R   0.578965 0.711493 0.621924 -0.129623
C107  C     C_R   0.570753 0.752432 0.587318 -0.127132
C108  C     C_R   0.712182 0.923721 0.617658 -0.128656
Cr1   Cr    Cr6+3 0.424820 0.846020 0.489780 1.008201
Cr2   Cr    Cr6+3 0.657880 0.078580 0.505700 1.008694
Cr3   Cr    Cr6+3 0.417280 0.075360 0.504550 1.008673
Cr4   Cr    Cr6+3 0.903360 0.812540 0.006510 1.003820
Cr5   Cr    Cr6+3 0.914630 0.587050 0.006280 1.004362
Cr6   Cr    Cr6+3 0.673560 0.582680 0.008540 1.007995
H1    H     H_    0.569216 0.400070 0.108808 0.122649
H2    H     H_    0.492714 0.279356 0.411930 0.125831
H3    H     H_    0.899941 0.452561 0.181149 0.111323
H4    H     H_    0.792494 0.280320 0.429011 0.123547
H5    H     H_    0.184229 0.730118 0.102641 0.123772
H6    H     H_    0.235772 0.770078 0.175944 0.106843
H7    H     H_    0.194052 0.725840 0.300718 0.106098
H8    H     H_    0.235660 0.728562 0.372716 0.123176
H9    H     H_    0.247599 0.027838 0.402291 0.123924
H10   H     H_    0.100255 0.975281 0.190590 0.104572
H11   H     H_    0.048470 0.936278 0.117182 0.123997
H12   H     H_    0.902621 0.483858 0.110724 0.137680
H13   H     H_    0.206363 0.023988 0.330156 0.104755
H14   H     H_    0.869261 0.960369 0.122723 0.120441
H15   H     H_    0.841589 0.983863 0.195280 0.103360
H16   H     H_    0.824484 0.977250 0.327345 0.105753
H17   H     H_    0.803806 0.000069 0.400501 0.126031
H18   H     H_    0.474795 0.752800 0.379044 0.125236
H19   H     H_    0.530477 0.709531 0.174184 0.104863
H20   H     H_    0.556825 0.685034 0.101665 0.121179
H21   H     H_    0.496976 0.730947 0.305957 0.105427
H22   H     H_    0.846707 0.391987 0.904104 0.124049
H23   H     H_    0.851032 0.360131 0.367638 0.102406
H24   H     H_    0.828911 0.344680 0.829931 0.103843
H25   H     H_    0.789883 0.269426 0.692297 0.104542
H26   H     H_    0.761004 0.226161 0.617917 0.124375
H27   H     H_    0.491701 0.282637 0.621339 0.125143
H28   H     H_    0.512105 0.308266 0.825248 0.105566
H29   H     H_    0.528442 0.355515 0.899380 0.125146
H30   H     H_    0.521981 0.325927 0.695727 0.109205
H31   H     H_    0.098490 0.913249 0.915790 0.116982
H32   H     H_    0.034884 0.593747 0.888707 0.124766
H33   H     H_    0.085471 0.653328 0.632682 0.106852
H34   H     H_    0.786147 0.277879 0.297025 0.106916
H35   H     H_    0.199968 0.711739 0.698155 0.108884
H36   H     H_    0.191184 0.699113 0.770509 0.105992
H37   H     H_    0.129279 0.933390 0.844467 0.104026
H38   H     H_    0.022311 0.879327 0.709406 0.099045
H39   H     H_    0.012270 0.865686 0.782103 0.092209
H40   H     H_    0.179913 0.978819 0.669544 0.105227
H41   H     H_    0.257935 0.018878 0.604827 0.126548
H42   H     H_    0.062874 0.613058 0.817517 0.102534
H43   H     H_    0.164509 0.693086 0.568136 0.126742
H44   H     H_    0.556990 0.576586 0.896760 0.124609
H45   H     H_    0.796847 0.296496 0.224835 0.103867
H46   H     H_    0.880539 0.824422 0.893347 0.131474
H47   H     H_    0.775836 0.934235 0.677980 0.104635
H48   H     H_    0.517379 0.689754 0.780334 0.116608
H49   H     H_    0.527050 0.564893 0.822706 0.101191
H50   H     H_    0.800147 0.739865 0.686255 0.119879
H51   H     H_    0.815253 0.698487 0.754281 0.126162
H52   H     H_    0.526217 0.629596 0.623496 0.107805
H53   H     H_    0.511369 0.700895 0.562674 0.120857
H54   H     H_    0.851002 0.812555 0.820344 0.101445
H55   H     H_    0.762627 0.006459 0.616982 0.120674
H56   H     H_    0.674570 0.502971 0.317513 0.105080
H57   H     H_    0.684097 0.520020 0.245047 0.129185
H58   H     H_    0.550644 0.357134 0.350324 0.105066
O1    O     O_R   0.318160 0.824460 0.443680 -0.521823
O2    O     O_R   0.645130 0.163230 0.552140 -0.503367
O3    O     O_R   0.498360 0.178430 0.555780 -0.519795
O4    O     O_R   0.328690 0.978040 0.538950 -0.501664
O5    O     O_3   0.499990 0.999990 0.500010 -0.233099
O6    O     O_R   0.828710 0.851830 0.052170 -0.515414
O7    O     O_R   0.005980 0.823990 0.047210 -0.501306
O8    O     O_R   0.031900 0.688850 0.050170 -0.515529
O9    O     O_R   0.830940 0.518420 0.048680 -0.496982
O10   O     O_R   0.668160 0.499860 0.053480 -0.517276
O11   O     O_R   0.689170 0.693840 0.050110 -0.494455
O12   O     O_R   0.525040 0.857250 0.449830 -0.503728
O13   O     O_R   0.803860 0.812940 0.962540 -0.512013
O14   O     O_R   0.982950 0.787950 0.964120 -0.523889
O15   O     O_R   0.007050 0.649970 0.960540 -0.518078
O16   O     O_R   0.807910 0.482370 0.965590 -0.504131
O17   O     O_R   0.643310 0.460980 0.963840 -0.527329
O18   O     O_R   0.666140 0.657800 0.967020 -0.499954
O19   O     O_3   0.830520 0.660760 0.007110 -0.258062
O20   O     O_R   0.684760 0.998800 0.456360 -0.517683
O21   O     O_R   0.647540 0.166310 0.470260 -0.501384
O22   O     O_R   0.500960 0.181750 0.467450 -0.520212
O23   O     O_R   0.331100 0.981120 0.457080 -0.501231
O24   O     O_R   0.315560 0.821140 0.532010 -0.518116
O25   O     O_R   0.522630 0.854180 0.531710 -0.499588
O26   O     O_R   0.682160 0.995480 0.544690 -0.518724
N1    N     N_2   0.478764 0.733671 0.709820 -0.531295
H59   H     H_    0.453840 0.715218 0.679235 0.256483
C109  C     C_3   0.485396 0.830916 0.728354 -0.306748
H60   H     H_    0.410762 0.831526 0.719706 0.145593
H61   H     H_    0.554080 0.897990 0.717577 0.151732
H62   H     H_    0.494773 0.839630 0.762138 0.151969
N2    N     N_2   0.541425 0.356001 0.184032 -0.528675
H63   H     H_    0.489165 0.377008 0.172203 0.240581
C110  C     C_3   0.489002 0.246646 0.188546 -0.299091
H64   H     H_    0.416864 0.227534 0.205468 0.140214
H65   H     H_    0.542858 0.228798 0.206020 0.168887
H66   H     H_    0.464117 0.196962 0.158078 0.141835

loop_
_geom_bond_atom_site_label_1
_geom_bond_atom_site_label_2
_ccdc_geom_bond_type
C80   C85   A    
C65   C92   S    
C21   C26   S    
C101  C102  A    
Cr6   O18   S    
C6    O7    A    
Cr2   O26   S    
C63   H26   S    
C74   H31   S    
C35   H5    S    
C95   C96   A    
C55   C56   T    
C2    C12   A    
C23   H4    S    
C81   C82   A    
C28   H9    S    
C64   H24   S    
C18   H57   S    
C27   C33   A    
C2    C98   A    
C80   H36   S    
C100  C105  A    
C90   H33   S    
C42   C44   A    
C83   C84   A    
Cr3   O3    S    
C106  H52   S    
C36   C37   A    
C37   C38   A    
C34   C35   A    
C86   C91   A    
Cr4   O14   S    
C38   C39   S    
C51   H20   S    
Cr1   O1    S    
C20   C25   A    
C15   C16   A    
Cr5   O15   S    
C16   C25   S    
Cr1   O24   S    
C18   C19   A    
C109  H60   S    
C23   C26   A    
C104  H51   S    
Cr1   O25   S    
C66   C72   A    
C88   C92   A    
C75   H37   S    
C16   C17   A    
C6    C41   S    
C4    C102  S    
C110  H66   S    
C10   O16   A    
C23   C24   A    
C31   C33   A    
C98   N2    S    
C68   H28   S    
C70   C71   T    
C51   C57   A    
C21   O22   A    
C93   C99   A    
C87   H1    S    
C61   C62   A    
C65   O24   A    
C11   C93   S    
C22   H2    S    
C5    C43   S    
C67   H29   S    
N1    H59   S    
C94   H44   S    
Cr6   O17   S    
C11   O13   A    
C108  H55   S    
C52   H19   S    
C109  H61   S    
C36   C41   A    
C102  C103  A    
C9    C73   S    
Cr2   O21   S    
C32   O23   A    
C104  C105  A    
C97   C99   A    
C1    O12   A    
C79   H32   S    
C110  H64   S    
C53   C55   S    
C73   C74   A    
C34   H6    S    
Cr5   O19   S    
C24   H23   S    
C107  H53   S    
C45   H21   S    
C36   H11   S    
C74   C75   A    
C7    O9    A    
C47   H16   S    
Cr3   O4    S    
C10   O17   A    
C88   H41   S    
C67   C72   A    
C84   C85   A    
C31   H7    S    
C43   O25   A    
C9    O14   A    
C39   C40   T    
C78   C79   A    
C68   C69   A    
Cr2   O5    S    
C58   C59   A    
C77   C78   A    
Cr5   O16   S    
C4    C106  A    
C82   C91   S    
C67   C68   A    
C60   C61   A    
C64   C66   A    
C54   O3    A    
C29   C30   A    
C95   H49   S    
C8    C57   S    
C37   H10   S    
C84   H39   S    
C47   C48   A    
C13   C76   A    
C17   H56   S    
C30   C31   A    
C96   C97   A    
C62   C63   A    
C17   C18   A    
C73   C79   A    
C30   C40   S    
C94   C95   A    
C48   H17   S    
C93   C94   A    
C42   C48   A    
C64   C69   A    
C24   C25   A    
C89   C92   A    
C89   H43   S    
C75   C77   A    
C76   C87   A    
C5    C107  A    
Cr4   O7    S    
C66   H22   S    
C13   H12   S    
C8    O11   A    
C20   H58   S    
C20   C22   A    
C82   C83   A    
C29   H13   S    
C65   O4    A    
C22   C26   A    
C33   H8    S    
C62   H25   S    
C109  H62   S    
C45   C46   A    
Cr5   O9    S    
C50   H14   S    
C3    C4    A    
Cr4   O13   S    
C52   C53   A    
Cr1   O12   S    
C96   C105  S    
Cr4   O6    S    
C83   H38   S    
C54   C58   S    
C58   C63   A    
N2    H63   S    
C46   C47   A    
C28   C29   A    
Cr3   O5    S    
Cr6   O19   S    
C7    O10   A    
C6    O8    A    
C27   C32   S    
C34   C38   A    
C50   C57   A    
C14   C19   A    
C44   C45   A    
C81   H35   S    
C80   C81   A    
C9    O15   A    
C101  N1    S    
C103  H50   S    
C7    C76   S    
C3    C108  A    
C44   H18   S    
C97   H54   S    
C32   O1    A    
C14   H45   S    
C11   O18   A    
C87   C98   A    
C86   H40   S    
C51   C52   A    
Cr6   O10   S    
C60   H30   S    
Cr4   O19   S    
C78   H42   S    
C90   C91   A    
C15   H34   S    
Cr2   O2    S    
C49   H15   S    
C77   C85   S    
C49   C53   A    
C54   O2    A    
Cr2   O20   S    
C100  C101  A    
C43   O26   A    
C86   C88   A    
C69   C70   S    
C35   C41   A    
N1    C109  S    
C3    H47   S    
Cr3   O22   S    
C61   C71   S    
C12   H3    S    
C1    O20   A    
C8    O6    A    
C1    C42   S    
C59   C60   A    
Cr5   O8    S    
C12   C13   A    
C59   H27   S    
C49   C50   A    
C106  C107  A    
C46   C56   S    
C103  C104  A    
C110  H65   S    
Cr1   O5    S    
C14   C15   A    
C100  H48   S    
C21   O21   A    
C89   C90   A    
C99   H46   S    
N2    C110  S    
Cr6   O11   S    
C2    C19   S    
Cr3   O23   S    
C27   C28   A    
C5    C108  A    
C10   C72   S    
