data_mof_unit_26752.cif
_audit_creation_date              2012-12-11T17:05:34-0500
_audit_creation_method            fapswitch 2.2
_symmetry_space_group_name_H-M    P1
_symmetry_Int_Tables_number       1
_space_group_crystal_system       triclinic
_cell_length_a                    6.973861
_cell_length_b                    14.547135
_cell_length_c                    16.002516
_cell_angle_alpha                 90.242716
_cell_angle_beta                  89.843853
_cell_angle_gamma                 89.784595
_cell_volume                      1623.41826739

loop_
_atom_site_label
_atom_site_type_symbol
_atom_type_description
_atom_site_fract_x
_atom_site_fract_y
_atom_site_fract_z
_atom_type_partial_charge
O1    O     O_R   0.494380 0.415640 0.412830 -0.537742
O2    O     O_R   0.823960 0.405540 0.586560 -0.533597
O3    O     O_R   0.994270 0.584360 0.587170 -0.537583
C1    C     C_R   0.655082 0.383332 0.615052 0.697399
O4    O     O_R   0.824090 0.404620 0.413450 -0.544174
O5    O     O_R   0.994400 0.583430 0.412820 -0.539122
C2    C     C_R   0.655805 0.382519 0.384505 0.714637
O6    O     O_R   0.494250 0.416570 0.587180 -0.545212
O7    O     O_3   0.660800 0.558670 0.500000 -0.369717
V1    V     V_3+5 0.935650 0.489120 0.500000 1.385691
O8    O     O_R   0.324110 0.594460 0.413440 -0.537919
C3    C     C_R   0.154957 0.616162 0.384438 0.698672
O9    O     O_R   0.323980 0.595380 0.586550 -0.545939
C4    C     C_R   0.154944 0.618039 0.615020 0.656255
V2    V     V_3+5 0.435660 0.510880 0.500000 1.375105
O10   O     O_3   0.160640 0.441330 0.500000 -0.372731
C5    C     C_3   0.063242 0.642124 0.766062 -0.360634
H1    H     H_    0.921039 0.611063 0.752446 0.147888
H2    H     H_    0.159327 0.584843 0.785084 0.109689
C6    C     C_3   0.048712 0.713025 0.839449 0.087016
H3    H     H_    0.143941 0.689063 0.890846 0.098425
H4    H     H_    0.863753 0.744424 0.650265 0.144046
H5    H     H_    0.852430 0.855980 0.751930 0.144858
C7    C     C_3   0.011453 0.769682 0.662691 -0.324295
C8    C     C_3   0.345549 0.727080 0.707388 -0.330846
C9    C     C_3   0.144330 0.687755 0.685981 0.102500
H6    H     H_    0.407384 0.761612 0.651582 0.144098
H7    H     H_    0.445056 0.670330 0.724830 0.138594
C10   C     C_3   0.122052 0.809510 0.810914 0.119595
C11   C     C_3   0.004080 0.842230 0.734156 -0.331761
C12   C     C_3   0.332999 0.796664 0.780464 -0.385267
H8    H     H_    0.423329 0.771844 0.832980 0.148349
H9    H     H_    0.393024 0.863692 0.759861 0.146606
H10   H     H_    0.063899 0.802578 0.604320 0.123798
H11   H     H_    0.063029 0.908431 0.711009 0.117198
C13   C     C_R   0.276029 0.812160 0.236880 0.107400
C14   C     C_R   0.118315 0.815096 0.183115 -0.114874
C15   C     C_R   0.964858 0.755604 0.200727 -0.194700
H12   H     H_    0.841004 0.754624 0.160444 0.143064
C16   C     C_R   0.975806 0.692090 0.266861 -0.183405
H13   H     H_    0.859307 0.644301 0.275726 0.134158
C17   C     C_R   0.140859 0.685963 0.317304 -0.115795
C18   C     C_R   0.287082 0.749530 0.302565 0.098917
C19   C     C_3   0.494441 0.731770 0.286947 -0.411058
C20   C     C_3   0.481532 0.799040 0.215047 -0.402612
H14   H     H_    0.522288 0.659844 0.266375 0.167534
H15   H     H_    0.585584 0.756749 0.339159 0.174874
H16   H     H_    0.500848 0.766261 0.152660 0.171222
H17   H     H_    0.564810 0.862565 0.225181 0.153269
C21   C     C_R   0.491408 0.315233 0.740636 0.048866
C22   C     C_R   0.646688 0.316829 0.684834 -0.127863
C23   C     C_R   0.798339 0.254763 0.699325 -0.123516
H18   H     H_    0.920698 0.253235 0.657814 0.131106
C24   C     C_R   0.787847 0.189744 0.764092 -0.182126
H19   H     H_    0.903394 0.140598 0.770969 0.119680
C25   C     C_R   0.624224 0.184090 0.815659 -0.103710
C26   C     C_R   0.479802 0.249742 0.803957 0.052063
C27   C     C_3   0.270482 0.235301 0.791231 -0.384533
C28   C     C_3   0.281904 0.306830 0.722339 0.040553
H20   H     H_    0.184667 0.256789 0.846688 0.184390
H21   H     H_    0.239199 0.165111 0.767317 0.131440
H22   H     H_    0.251820 0.279698 0.658637 0.124220
C29   C     C_R   0.494279 0.316581 0.257823 0.000997
C30   C     C_R   0.647630 0.315435 0.314357 -0.148822
C31   C     C_R   0.781664 0.243124 0.307584 -0.221417
H23   H     H_    0.893891 0.236770 0.353797 0.120168
C32   C     C_R   0.760709 0.173391 0.246517 0.483946
C33   C     C_R   0.619338 0.181182 0.183845 -0.180445
C34   C     C_R   0.478563 0.249332 0.194317 -0.021723
C35   C     C_3   0.276112 0.230959 0.221633 0.404858
C36   C     C_3   0.289119 0.310036 0.282905 -0.342423
H24   H     H_    0.268839 0.290180 0.349396 0.154949
H25   H     H_    0.207174 0.372420 0.264430 0.143859
O11   O     O_R   0.771490 0.080820 0.910070 -0.542089
O12   O     O_R   0.441590 0.092730 0.083780 -0.553530
O13   O     O_R   0.271350 0.913900 0.084390 -0.539287
C37   C     C_R   0.609644 0.113944 0.113533 0.717240
O14   O     O_R   0.441780 0.091820 0.910670 -0.542040
O15   O     O_R   0.271540 0.912980 0.910040 -0.548631
C38   C     C_R   0.610785 0.113553 0.881831 0.692138
O16   O     O_R   0.771300 0.081740 0.084420 -0.516994
O17   O     O_3   0.604960 0.938700 0.997240 -0.367785
V3    V     V_3+5 0.330090 0.008230 0.997220 1.379741
O18   O     O_R   0.941820 0.901930 0.910640 -0.521226
C39   C     C_R   0.111073 0.879761 0.881716 0.680695
O19   O     O_R   0.941630 0.902840 0.083750 -0.540692
C40   C     C_R   0.110389 0.880678 0.112376 0.708531
V4    V     V_3+5 0.830090 0.986410 0.997190 1.428305
O20   O     O_3   0.105080 0.055990 0.997200 -0.376185
N1    N     N_3   0.173812 0.390509 0.742568 -0.648025
H26   H     H_    0.202288 0.438797 0.696091 0.239375
H27   H     H_    0.221997 0.418349 0.799132 0.221253
O21   O     O_3   0.874466 0.095593 0.250824 -0.574468
C41   C     C_3   0.768879 0.021010 0.283930 0.082515
H28   H     H_    0.812302 0.958308 0.248965 0.143974
H29   H     H_    0.610483 0.027468 0.275642 0.070367
C42   C     C_3   0.812369 0.007594 0.377010 -0.323408
H30   H     H_    0.817933 0.075257 0.409315 0.186647
H31   H     H_    0.694494 0.967281 0.405827 0.155934
C43   C     C_3   0.000300 0.955633 0.390741 -0.762989
H32   H     H_    0.988183 0.884456 0.366074 0.225212
H33   H     H_    0.031290 0.951988 0.458671 0.203979
H34   H     H_    0.121191 0.990552 0.359049 0.243442
N2    N     N_3   0.263012 0.141418 0.263196 -0.677605
H35   H     H_    0.164967 0.144735 0.312423 0.260027
H36   H     H_    0.222260 0.090578 0.220549 0.269759
N3    N     N_3   0.131461 0.244883 0.156441 -0.643940
H37   H     H_    0.157342 0.307090 0.125882 0.199758
H38   H     H_    0.146245 0.193208 0.111427 0.256485
N4    N     N_3   0.852749 0.717835 0.872893 -0.669189
H39   H     H_    0.755450 0.726449 0.823993 0.229357
H40   H     H_    0.820937 0.654844 0.900895 0.216954

loop_
_geom_bond_atom_site_label_1
_geom_bond_atom_site_label_2
_ccdc_geom_bond_type
C35   N2    S    
C8    C12   S    
C15   C16   A    
O21   C41   S    
C1    O6    A    
N2    H36   S    
C42   H30   S    
N1    H26   S    
C19   C20   S    
C8    H7    S    
C14   C15   A    
C11   H11   S    
C21   C28   S    
C13   C14   A    
C7    C9    S    
C35   N3    S    
O5    C3    A    
C15   H12   S    
O14   C38   A    
C27   H20   S    
V2    O10   S    
C5    C6    S    
C25   C26   A    
N4    H39   S    
C3    C17   S    
O8    V2    S    
O14   V3    S    
C29   C34   A    
C23   C24   A    
C33   C34   A    
C31   C32   A    
N3    H37   S    
C12   H9    S    
C35   C36   S    
O1    V2    S    
C20   H17   S    
O7    V1    S    
C10   C39   S    
C19   H15   S    
V4    O20   S    
C27   H21   S    
C16   C17   A    
O11   C38   A    
O9    C4    A    
N3    H38   S    
C41   H28   S    
O13   V3    S    
N2    H35   S    
C42   H31   S    
C19   H14   S    
C21   C22   A    
N4    H40   S    
C6    C10   S    
V3    O20   S    
C24   C25   A    
C1    C22   S    
C22   C23   A    
H5    C11   S    
O18   C39   A    
C36   H25   S    
O19   C40   A    
C41   C42   S    
C8    C9    S    
C43   H34   S    
C7    H10   S    
C32   C33   A    
C28   N1    S    
O2    C1    A    
C18   C19   S    
C10   C11   S    
N1    H27   S    
C12   H8    S    
C37   O16   A    
C43   H33   S    
C5    H1    S    
C13   C20   S    
C4    C9    S    
C41   H29   S    
O12   C37   A    
O13   C40   A    
O3    C4    A    
C6    N4    S    
C16   H13   S    
C29   C36   S    
C31   H23   S    
O6    V2    S    
O9    V2    S    
H4    C7    S    
C17   C18   A    
C5    C9    S    
O2    V1    S    
O15   C39   A    
C42   C43   S    
C23   H18   S    
O4    C2    A    
C20   H16   S    
C33   C37   S    
C24   H19   S    
C28   H22   S    
O1    C2    A    
C21   C26   A    
C14   C40   S    
O18   V4    S    
O5    V1    S    
O8    C3    A    
C8    H6    S    
C25   C38   S    
C30   C31   A    
C27   C28   S    
O4    V1    S    
C10   C12   S    
O3    V1    S    
V1    O10   S    
O15   V3    S    
O12   V3    S    
C26   C27   S    
O17   V4    S    
C43   H32   S    
C5    H2    S    
O19   V4    S    
O7    V2    S    
C34   C35   S    
C7    C11   S    
C2    C30   S    
O16   V4    S    
C29   C30   A    
C36   H24   S    
C6    H3    S    
O17   V3    S    
C32   O21   S    
C13   C18   A    
O11   V4    S    
