data_mof_unit_48204.cif
_audit_creation_date              2012-12-10T16:49:23-0500
_audit_creation_method            fapswitch 2.2
_symmetry_space_group_name_H-M    P1
_symmetry_Int_Tables_number       1
_space_group_crystal_system       triclinic
_cell_length_a                    19.276359
_cell_length_b                    8.69259
_cell_length_c                    7.438373
_cell_angle_alpha                 103.031037
_cell_angle_beta                  93.790511
_cell_angle_gamma                 92.290462
_cell_volume                      1209.69994863

loop_
_atom_site_label
_atom_site_type_symbol
_atom_type_description
_atom_site_fract_x
_atom_site_fract_y
_atom_site_fract_z
_atom_type_partial_charge
C1    C     C_R   0.497922 0.199684 0.453220 0.889771
C2    C     C_R   0.502078 0.800316 0.546780 0.889775
C3    C     C_2   0.496912 0.031797 0.426907 -0.359990
C4    C     C_2   0.503088 0.968203 0.573093 -0.359990
C5    C     C_R   0.367424 0.498839 0.503043 0.797697
C6    C     C_R   0.632575 0.501159 0.496956 0.797705
C7    C     C_R   0.261558 0.537004 0.679942 -0.223444
C8    C     C_R   0.738430 0.462973 0.320035 -0.223441
C9    C     C_R   0.189044 0.531228 0.688310 0.001670
C10   C     C_R   0.810942 0.468775 0.311632 0.001670
C11   C     C_R   0.145968 0.483690 0.520939 -0.023842
C12   C     C_R   0.854029 0.516359 0.478976 -0.023856
C13   C     C_R   0.176320 0.437435 0.352318 -0.162727
C14   C     C_R   0.823687 0.562628 0.647610 -0.162676
C15   C     C_R   0.248198 0.443556 0.346480 -0.152701
C16   C     C_R   0.751809 0.556483 0.653481 -0.152769
C17   C     C_R   0.291383 0.494238 0.509873 -0.057540
C18   C     C_R   0.708616 0.505763 0.490111 -0.057533
C19   C     C_R   0.930078 0.509682 0.485876 0.455334
C20   C     C_R   0.069919 0.490390 0.513994 0.455322
Cu1   Cu    Cu3+1 0.507710 0.517380 0.684380 0.962187
Cu2   Cu    Cu3+1 0.492290 0.482620 0.315620 0.962184
H1    H     H_    0.294962 0.573095 0.806898 0.187264
H2    H     H_    0.705020 0.426848 0.193096 0.187266
H3    H     H_    0.144155 0.400570 0.223411 0.194913
H4    H     H_    0.855860 0.599524 0.776499 0.194961
H5    H     H_    0.269888 0.408625 0.213596 0.166528
H6    H     H_    0.730126 0.591431 0.786370 0.166520
H7    H     H_    0.491082 0.960160 0.286022 0.181304
H8    H     H_    0.508919 0.039840 0.713978 0.181304
H9    H     H_    0.445038 0.380016 0.949153 0.225899
H10   H     H_    0.554962 0.619984 0.050847 0.225902
N1    N     N_R   0.028829 0.373512 0.399600 -0.195630
N2    N     N_R   0.971169 0.626565 0.600258 -0.195629
N3    N     N_R   0.960041 0.382373 0.386950 -0.183275
N4    N     N_R   0.039956 0.617705 0.612907 -0.183264
N5    N     N_2   0.480680 0.456420 0.038530 -0.215354
N6    N     N_2   0.519320 0.543580 0.961470 -0.215353
O1    O     O_R   0.505010 0.286130 0.619770 -0.581386
O2    O     O_R   0.494990 0.713870 0.380230 -0.581384
O3    O     O_R   0.491990 0.256780 0.308370 -0.583307
O4    O     O_R   0.508010 0.743220 0.691630 -0.583306
O5    O     O_R   0.406650 0.514660 0.655750 -0.592186
O6    O     O_R   0.593350 0.485340 0.344250 -0.592192
O7    O     O_R   0.393640 0.485310 0.344340 -0.579513
O8    O     O_R   0.606360 0.514690 0.655660 -0.579507
C21   C     C_2   0.161006 0.569584 0.873693 0.835012
O9    O     O_2   0.106222 0.505577 0.900508 -0.566631
O10   O     O_R   0.198747 0.675863 0.020102 -0.764801
H11   H     H_    0.174555 0.692717 0.139393 0.344718
C22   C     C_2   0.838961 0.430406 0.126232 0.835051
O11   O     O_2   0.893719 0.494483 0.099354 -0.566665
O12   O     O_R   0.801225 0.324058 0.979871 -0.764796
H12   H     H_    0.825388 0.307222 0.860545 0.344731

loop_
_geom_bond_atom_site_label_1
_geom_bond_atom_site_label_2
_ccdc_geom_bond_type
C16   H6    S    
C2    C4    S    
N5    N6    D    
Cu1   O5    S    
H10   N6    S    
C11   C13   A    
C15   H5    S    
C21   O9    D    
Cu1   O1    S    
Cu2   O2    S    
C7    C9    A    
C8    C18   A    
C5    O5    A    
C21   O10   S    
C6    O6    A    
Cu1   Cu2   S    
C14   H4    S    
C9    C11   A    
C13   H3    S    
C10   C12   A    
C2    O4    A    
C7    H1    S    
C20   N1    A    
C12   C19   S    
C8    C10   A    
C8    H2    S    
C12   C14   A    
C19   N3    A    
C9    C21   S    
N2    N4    A    
C13   C15   A    
C6    C18   S    
O10   H11   S    
C14   C16   A    
C11   C20   S    
Cu2   O3    S    
C5    C17   S    
C1    O1    A    
C22   O11   D    
C20   N4    A    
C2    O2    A    
C10   C22   S    
Cu2   O7    S    
C16   C18   A    
Cu1   O8    S    
C1    O3    A    
C1    C3    S    
C15   C17   A    
C3    H7    S    
Cu2   O6    S    
Cu1   O4    S    
C6    O8    A    
N1    N3    A    
O12   H12   S    
Cu2   N5    S    
C5    O7    A    
C4    H8    S    
Cu1   N6    S    
C3    C4    D    
H9    N5    S    
C22   O12   S    
C19   N2    A    
C7    C17   A    
