data_mof_unit_13500.cif
_audit_creation_date              2012-12-10T17:56:43-0500
_audit_creation_method            fapswitch 2.2
_symmetry_space_group_name_H-M    P1
_symmetry_Int_Tables_number       1
_space_group_crystal_system       triclinic
_cell_length_a                    10.820921
_cell_length_b                    9.514524
_cell_length_c                    10.829243
_cell_angle_alpha                 89.72607
_cell_angle_beta                  89.570353
_cell_angle_gamma                 90.309507
_cell_volume                      1114.87402177

loop_
_atom_site_label
_atom_site_type_symbol
_atom_type_description
_atom_site_fract_x
_atom_site_fract_y
_atom_site_fract_z
_atom_type_partial_charge
C1    C     C_R   0.262258 0.499756 0.497960 0.841349
C2    C     C_R   0.737844 0.500272 0.498646 0.812308
C3    C     C_R   0.936378 0.605893 0.428693 0.122154
C4    C     C_R   0.065965 0.605571 0.427954 0.119488
C5    C     C_R   0.422056 0.074359 0.425100 -0.027909
C6    C     C_R   0.578420 0.074565 0.574364 -0.014124
C7    C     C_R   0.422145 0.925504 0.425030 -0.025295
C8    C     C_R   0.578618 0.925794 0.574076 -0.011011
C9    C     C_R   0.508198 0.501139 0.262340 0.799113
C10   C     C_R   0.507464 0.499704 0.737318 0.780708
C11   C     C_R   0.654600 0.718915 0.121240 -0.276771
C12   C     C_R   0.672039 0.695281 0.866026 -0.222087
C13   C     C_R   0.719237 0.821211 0.052557 0.151594
C14   C     C_R   0.730806 0.806680 0.924661 0.213761
C15   C     C_R   0.593710 0.601548 0.931879 0.050248
C16   C     C_R   0.588920 0.608632 0.062366 0.070861
C17   C     C_R   0.519830 0.503764 0.128191 -0.081209
C18   C     C_R   0.521927 0.498762 0.870613 -0.082284
C19   C     C_R   0.458834 0.396674 0.064604 -0.204712
C20   C     C_R   0.458525 0.395223 0.937455 -0.204879
C21   C     C_R   0.063067 0.393560 0.555480 -0.241939
C22   C     C_R   0.935261 0.394165 0.556256 -0.238655
C23   C     C_R   0.871755 0.500946 0.494856 -0.037681
C24   C     C_R   0.128531 0.499888 0.493504 -0.049448
Cu1   Cu    Cu3+1 0.500000 0.640660 0.500000 0.956295
Cu2   Cu    Cu3+1 0.500000 0.359340 0.500000 0.940162
H1    H     H_    0.406451 0.316274 0.113641 0.153099
H2    H     H_    0.405101 0.314861 0.891009 0.158057
N1    N     N_R   0.500000 0.852070 0.500000 -0.164592
N2    N     N_R   0.500000 0.147940 0.500000 -0.160380
O1    O     O_R   0.319640 0.618740 0.499990 -0.549047
O2    O     O_R   0.680360 0.618740 0.500010 -0.569999
O3    O     O_R   0.319620 0.381170 0.499990 -0.596683
O4    O     O_R   0.680380 0.381170 0.500010 -0.595605
O5    O     O_R   0.500000 0.618810 0.319650 -0.590472
O6    O     O_R   0.500000 0.618810 0.680350 -0.586437
O7    O     O_R   0.499970 0.381240 0.319640 -0.583316
O8    O     O_R   0.500030 0.381240 0.680360 -0.586627
H3    H     H_    0.657610 0.729601 0.219949 0.201974
H4    H     H_    0.689940 0.682661 0.768537 0.163892
N3    N     N_3   0.773215 0.940516 0.112200 -0.610176
H5    H     H_    0.703807 0.991341 0.162355 0.230301
H6    H     H_    0.839449 0.905452 0.174423 0.214001
N4    N     N_3   0.802614 0.904098 0.852446 -0.617699
H7    H     H_    0.765527 0.004398 0.864485 0.230187
H8    H     H_    0.892754 0.904853 0.886549 0.234823
H9    H     H_    0.110935 0.311574 0.605475 0.162946
H10   H     H_    0.885863 0.312451 0.606613 0.157507
N5    N     N_3   0.869931 0.707792 0.357982 -0.604511
H11   H     H_    0.894999 0.696087 0.265297 0.205372
H12   H     H_    0.894791 0.808387 0.387489 0.215807
N6    N     N_3   0.134413 0.708842 0.358084 -0.599556
H13   H     H_    0.111330 0.808819 0.390147 0.212116
H14   H     H_    0.110198 0.701233 0.265119 0.209138
H15   H     H_    0.359659 0.130414 0.365063 0.121589
H16   H     H_    0.641248 0.130710 0.633989 0.121841
H17   H     H_    0.360103 0.869378 0.364698 0.144326
H18   H     H_    0.642076 0.870127 0.632851 0.138087

loop_
_geom_bond_atom_site_label_1
_geom_bond_atom_site_label_2
_ccdc_geom_bond_type
Cu1   O1    S    
C15   C18   A    
C22   H10   S    
Cu2   O7    S    
C12   H4    S    
C7    N1    A    
C19   H1    S    
N3    H5    S    
Cu2   O3    S    
C3    C23   A    
C19   C20   A    
C12   C15   A    
C1    O1    A    
C10   O8    A    
C2    O4    A    
Cu1   O2    S    
C9    O7    A    
C3    N5    S    
C1    O3    A    
Cu2   O4    S    
C21   C22   A    
N4    H7    S    
C11   H3    S    
N3    H6    S    
Cu1   O5    S    
C8    N1    A    
C13   N3    S    
C6    N2    A    
C10   C18   S    
N6    H14   S    
Cu2   N2    S    
C14   N4    S    
C18   C20   A    
C4    N6    S    
C6    H16   S    
Cu1   N1    S    
C4    C24   A    
C7    H17   S    
Cu1   O6    S    
C9    O5    A    
C15   C16   A    
C12   C14   A    
C11   C13   A    
N6    H13   S    
C1    C24   S    
C2    O2    A    
N5    H11   S    
C11   C16   A    
C21   C24   A    
C9    C17   S    
C2    C23   S    
C5    C7    A    
C21   H9    S    
C22   C23   A    
C17   C19   A    
C6    C8    A    
C20   H2    S    
C8    H18   S    
Cu1   Cu2   S    
C13   C14   A    
C5    H15   S    
Cu2   O8    S    
C3    C4    A    
N5    H12   S    
C5    N2    A    
N4    H8    S    
C16   C17   A    
C10   O6    A    
