data_mof_unit_40665.cif
_audit_creation_date              2012-12-10T17:13:38-0500
_audit_creation_method            fapswitch 2.2
_symmetry_space_group_name_H-M    P1
_symmetry_Int_Tables_number       1
_space_group_crystal_system       triclinic
_cell_length_a                    10.821642
_cell_length_b                    13.029548
_cell_length_c                    11.800479
_cell_angle_alpha                 99.112602
_cell_angle_beta                  93.45825
_cell_angle_gamma                 92.821769
_cell_volume                      1636.96972633

loop_
_atom_site_label
_atom_site_type_symbol
_atom_type_description
_atom_site_fract_x
_atom_site_fract_y
_atom_site_fract_z
_atom_type_partial_charge
C1    C     C_R   0.499355 0.299384 0.479065 0.808615
C2    C     C_3   0.876762 0.501324 0.496763 -0.010461
C3    C     C_3   0.938992 0.598614 0.581241 -0.050712
C4    C     C_3   0.915952 0.508151 0.373864 -0.340859
C5    C     C_R   0.509802 0.812501 0.531668 -0.038241
C6    C     C_R   0.499449 0.185282 0.466103 -0.129337
C7    C     C_R   0.437532 0.015477 0.352632 0.133394
C8    C     C_R   0.433689 0.124239 0.368727 0.127541
C9    C     C_R   0.565801 0.136535 0.548268 0.080983
C10   C     C_R   0.547667 0.027794 0.542124 0.091084
C11   C     C_R   0.477549 0.967474 0.446406 0.029975
C12   C     C_R   0.259832 0.499676 0.499422 0.789909
C13   C     C_R   0.448899 0.860746 0.448353 0.114022
C14   C     C_R   0.583509 0.870793 0.622339 -0.271216
C15   C     C_R   0.598691 0.977542 0.629930 -0.181416
C16   C     C_R   0.403941 0.386958 0.026021 -0.320349
C17   C     C_R   0.409227 0.399654 0.145606 0.052598
C18   C     C_R   0.544076 0.550922 0.156304 0.319660
C19   C     C_R   0.544139 0.540034 0.033432 0.019617
C20   C     C_R   0.468392 0.458381 0.967841 -0.017628
C21   C     C_R   0.456929 0.450381 0.845641 0.323370
C22   C     C_R   0.602090 0.594366 0.851918 0.012067
C23   C     C_R   0.501696 0.699972 0.520852 0.808363
C24   C     C_R   0.615497 0.607509 0.972978 0.074892
C25   C     C_R   0.739398 0.501666 0.499344 0.786862
C26   C     C_3   0.066286 0.399407 0.546075 0.294055
C27   C     C_3   0.919853 0.397155 0.532935 -0.072305
C28   C     C_3   0.084018 0.599221 0.580484 -0.066743
C29   C     C_3   0.058962 0.505290 0.367205 0.373719
C30   C     C_3   0.120632 0.499836 0.496177 0.045690
Cu1   Cu    Cu3+1 0.509350 0.507730 0.615930 0.919117
Cu2   Cu    Cu3+1 0.490650 0.492270 0.384070 0.923317
H1    H     H_    0.880404 0.580399 0.348011 0.176564
H2    H     H_    0.629185 0.833678 0.688023 0.153175
H3    H     H_    0.651932 0.019244 0.705041 0.154214
H4    H     H_    0.654902 0.644945 0.805743 0.135466
H5    H     H_    0.349185 0.319645 0.980951 0.153926
H6    H     H_    0.359428 0.344003 0.187182 0.151598
H7    H     H_    0.883651 0.393945 0.618758 0.150668
H8    H     H_    0.121614 0.595684 0.669255 0.142732
H9    H     H_    0.913764 0.591246 0.669976 0.106979
H10   H     H_    0.865452 0.445669 0.310538 0.178391
N1    N     N_R   0.523430 0.519360 0.790130 -0.198620
N2    N     N_R   0.476570 0.480640 0.209880 -0.195493
O1    O     O_R   0.506640 0.354460 0.582000 -0.587596
O2    O     O_R   0.490840 0.341410 0.386200 -0.557798
O3    O     O_R   0.325590 0.506510 0.597900 -0.577199
O4    O     O_R   0.309790 0.493450 0.402100 -0.589588
O5    O     O_R   0.509160 0.658590 0.613800 -0.598551
O6    O     O_R   0.493360 0.645540 0.418000 -0.586966
O7    O     O_R   0.690210 0.506550 0.597900 -0.602815
O8    O     O_R   0.674410 0.493490 0.402100 -0.602460
N3    N     N_3   0.104456 0.408434 0.670368 -0.609126
H11   H     H_    0.085569 0.337489 0.698708 0.217238
H12   H     H_    0.051677 0.459503 0.721944 0.177280
N4    N     N_3   0.140190 0.697894 0.555960 -0.560688
H13   H     H_    0.127478 0.756995 0.624555 0.218288
H14   H     H_    0.236280 0.694043 0.555767 0.225124
N5    N     N_3   0.892527 0.696948 0.553754 -0.558188
H15   H     H_    0.795784 0.693786 0.550902 0.196397
H16   H     H_    0.919270 0.756079 0.622861 0.214788
N6    N     N_3   0.343534 0.804954 0.381993 -0.610733
H17   H     H_    0.269149 0.853101 0.380675 0.232370
H18   H     H_    0.365690 0.776307 0.298663 0.227303
C31   C     C_3   0.419340 0.954491 0.231742 -0.893750
H19   H     H_    0.448868 0.002858 0.167539 0.246043
H20   H     H_    0.480303 0.888082 0.221115 0.228611
H21   H     H_    0.320586 0.927381 0.210698 0.224862
N7    N     N_3   0.362846 0.173516 0.286911 -0.579458
H22   H     H_    0.309181 0.119568 0.226691 0.219029
H23   H     H_    0.297162 0.216391 0.331666 0.195407
C32   C     C_3   0.656607 0.197486 0.641519 -0.850838
H24   H     H_    0.685325 0.276364 0.626870 0.255575
H25   H     H_    0.616099 0.203439 0.726373 0.233448
H26   H     H_    0.744927 0.157800 0.644579 0.211437
C33   C     C_3   0.368260 0.364911 0.780574 -0.761270
H27   H     H_    0.277685 0.367813 0.819701 0.196128
H28   H     H_    0.344602 0.370092 0.691268 0.293156
H29   H     H_    0.406554 0.287906 0.784279 0.197454
C34   C     C_3   0.120368 0.295862 0.489634 -0.829874
H30   H     H_    0.092053 0.270554 0.398379 0.222308
H31   H     H_    0.222996 0.301444 0.500527 0.203725
H32   H     H_    0.089984 0.230048 0.532763 0.222405
C35   C     C_3   0.709414 0.692219 0.031020 -0.856454
H33   H     H_    0.762340 0.728001 0.967938 0.204558
H34   H     H_    0.661985 0.756019 0.081523 0.250981
H35   H     H_    0.778581 0.659366 0.086489 0.250146
N8    N     N_3   0.609722 0.640265 0.222747 -0.615770
H36   H     H_    0.665992 0.622082 0.290104 0.260500
H37   H     H_    0.548180 0.697162 0.248063 0.231378
C36   C     C_3   0.855713 0.298072 0.457330 -0.854990
H38   H     H_    0.753828 0.302124 0.450742 0.230979
H39   H     H_    0.884514 0.285618 0.368605 0.239050
H40   H     H_    0.875356 0.228041 0.496384 0.238713
C37   C     C_3   0.102131 0.606005 0.319259 -0.754721
H41   H     H_    0.062103 0.677144 0.362592 0.258849
H42   H     H_    0.203878 0.619738 0.322743 0.264545
H43   H     H_    0.067645 0.601858 0.227906 0.192399
C38   C     C_3   0.085968 0.411463 0.272081 -0.836177
H44   H     H_    0.085290 0.433444 0.184898 0.223683
H45   H     H_    0.175601 0.377459 0.286116 0.237405
H46   H     H_    0.015178 0.346331 0.261603 0.194267

loop_
_geom_bond_atom_site_label_1
_geom_bond_atom_site_label_2
_ccdc_geom_bond_type
C37   H41   S    
C19   C20   A    
C9    C32   S    
C12   O4    A    
C6    C9    A    
C28   N4    S    
C37   H43   S    
C7    C8    A    
N3    H11   S    
C7    C11   A    
C21   C33   S    
C26   C27   S    
N6    H17   S    
Cu1   N1    S    
C33   H28   S    
C3    C28   S    
C35   H34   S    
C10   C15   A    
C32   H26   S    
C1    O2    A    
C23   O5    A    
C36   H39   S    
C28   H8    S    
N4    H13   S    
C18   C19   A    
N7    H23   S    
Cu2   O8    S    
N6    H18   S    
C21   N1    A    
C13   N6    S    
Cu1   Cu2   S    
C27   H7    S    
C16   C17   A    
C31   H20   S    
C35   H35   S    
C27   C36   S    
C2    C27   S    
C9    C10   A    
C5    C13   A    
C4    C29   S    
C16   H5    S    
N5    H15   S    
Cu1   O3    S    
Cu2   O4    S    
Cu1   O5    S    
C12   O3    A    
C15   H3    S    
N3    H12   S    
N5    H16   S    
C29   C38   S    
C1    C6    S    
C35   H33   S    
C32   H25   S    
C36   H38   S    
C29   C37   S    
C8    N7    S    
C34   H30   S    
C23   O6    A    
C6    C8    A    
C26   C34   S    
C2    C4    S    
C25   O7    A    
C29   C30   S    
C18   N2    A    
C7    C31   S    
C38   H44   S    
C5    C23   S    
C16   C20   A    
C31   H21   S    
C38   H46   S    
Cu2   N2    S    
C33   H27   S    
Cu2   O6    S    
C5    C14   A    
C34   H31   S    
C38   H45   S    
N8    H37   S    
C26   C30   S    
C22   C24   A    
C26   N3    S    
C34   H32   S    
C4    H1    S    
C3    H9    S    
C12   C30   S    
C20   C21   A    
Cu2   O2    S    
Cu1   O7    S    
C32   H24   S    
C14   H2    S    
C37   H42   S    
C22   H4    S    
C28   C30   S    
C2    C3    S    
C24   C35   S    
C17   N2    A    
C36   H40   S    
C11   C13   A    
C1    O1    A    
C4    H10   S    
N4    H14   S    
C19   C24   A    
C2    C25   S    
C17   H6    S    
N7    H22   S    
C18   N8    S    
C25   O8    A    
C10   C11   A    
C33   H29   S    
N8    H36   S    
C31   H19   S    
Cu1   O1    S    
C14   C15   A    
C22   N1    A    
C3    N5    S    
