data_mof_unit_24307.cif
_audit_creation_date              2012-12-11T16:08:41-0500
_audit_creation_method            fapswitch 2.2
_symmetry_space_group_name_H-M    P1
_symmetry_Int_Tables_number       1
_space_group_crystal_system       triclinic
_cell_length_a                    13.056054
_cell_length_b                    13.251675
_cell_length_c                    27.761572
_cell_angle_alpha                 94.041397
_cell_angle_beta                  89.834321
_cell_angle_gamma                 119.379474
_cell_volume                      4172.23898903

loop_
_atom_site_label
_atom_site_type_symbol
_atom_type_description
_atom_site_fract_x
_atom_site_fract_y
_atom_site_fract_z
_atom_type_partial_charge
C1    C     C_R   0.628042 0.899560 0.426159 0.559783
C2    C     C_R   0.193792 0.757112 0.301184 0.021744
C3    C     C_R   0.190583 0.747686 0.200993 0.022574
C4    C     C_R   0.600842 0.221555 0.440222 0.568858
C5    C     C_R   0.225705 0.680272 0.225686 -0.079055
C6    C     C_R   0.215598 0.676423 0.275015 -0.087463
C7    C     C_R   0.146175 0.717484 0.152992 0.268656
C8    C     C_R   0.123357 0.798971 0.129011 -0.020477
C9    C     C_R   0.227345 0.956678 0.355143 -0.159062
C10   C     C_R   0.214673 0.951004 0.304674 0.011648
C11   C     C_R   0.199698 0.850706 0.277751 -0.019087
C12   C     C_R   0.567246 0.297756 0.223847 0.292583
C13   C     C_R   0.226433 0.045689 0.280105 0.270159
C14   C     C_R   0.205268 0.031787 0.229593 -0.035287
C15   C     C_R   0.182572 0.927854 0.203197 -0.023746
C16   C     C_R   0.268630 0.876711 0.426018 0.576788
C17   C     C_R   0.191609 0.842789 0.227113 0.002523
C18   C     C_R   0.150868 0.906563 0.153789 -0.155282
C19   C     C_R   0.212894 0.858936 0.378207 -0.025469
C20   C     C_R   0.761436 0.947108 0.353288 0.243988
C21   C     C_R   0.769443 0.917210 0.304260 -0.037804
C22   C     C_R   0.762582 0.904215 0.203832 0.005095
C23   C     C_R   0.563136 0.289858 0.274058 -0.094756
C24   C     C_R   0.866456 0.983835 0.229671 0.265088
C25   C     C_R   0.871970 0.978932 0.279091 -0.057922
C26   C     C_R   0.757671 0.902652 0.154430 -0.152194
C27   C     C_R   0.675401 0.803319 0.127092 -0.022366
C28   C     C_R   0.626716 0.897637 0.564600 0.535132
C29   C     C_R   0.570443 0.766259 0.352757 -0.167598
C30   C     C_R   0.573963 0.747679 0.302967 0.018519
C31   C     C_R   0.670311 0.827229 0.278348 0.014480
C32   C     C_R   0.481233 0.652477 0.277130 -0.148796
C33   C     C_R   0.481115 0.640127 0.226802 -0.131836
C34   C     C_R   0.659859 0.302192 0.300596 -0.006909
C35   C     C_R   0.571703 0.724896 0.200669 0.014828
C36   C     C_R   0.667969 0.818112 0.227499 -0.011853
C37   C     C_R   0.574491 0.717153 0.149200 0.223879
C38   C     C_R   0.657402 0.868992 0.377750 -0.013791
C39   C     C_R   0.741220 0.337763 0.650155 0.184204
C40   C     C_R   0.600560 0.223530 0.579004 0.589982
C41   C     C_R   0.757639 0.350706 0.701269 -0.060399
C42   C     C_R   0.785278 0.384034 0.803076 0.000522
C43   C     C_R   0.884797 0.426261 0.774388 0.245539
C44   C     C_R   0.870334 0.410936 0.724008 -0.097658
C45   C     C_R   0.670630 0.319696 0.200235 0.045239
C46   C     C_R   0.796653 0.411004 0.852940 -0.126185
C47   C     C_R   0.696659 0.377337 0.880857 -0.008256
C48   C     C_R   0.529680 0.216887 0.660022 -0.158771
C49   C     C_R   0.544201 0.234917 0.709708 0.021870
C50   C     C_R   0.658184 0.300512 0.730709 0.006895
C51   C     C_R   0.445646 0.186374 0.738598 -0.081363
C52   C     C_R   0.271419 0.878593 0.563352 0.560104
C53   C     C_R   0.459134 0.206672 0.788590 -0.071452
C54   C     C_R   0.571488 0.274051 0.810234 0.046873
C55   C     C_R   0.671881 0.318138 0.781351 0.010670
C56   C     C_1   0.682876 0.347951 0.150575 0.013855
C57   C     C_R   0.584625 0.304392 0.859931 -0.082454
C58   C     C_R   0.626275 0.265570 0.630063 0.001400
C59   C     C_1   0.221705 0.860003 0.610108 0.025415
C60   C     C_R   0.206237 0.770978 0.727318 -0.080433
C61   C     C_R   0.194856 0.767002 0.777275 -0.066064
C62   C     C_R   0.114589 0.897760 0.777476 -0.114921
C63   C     C_R   0.126359 0.902050 0.727420 -0.114761
C64   C     C_1   0.631643 0.265100 0.393341 0.046067
C65   C     C_R   0.171928 0.838323 0.702257 0.034313
C66   C     C_R   0.149438 0.830657 0.802506 0.034832
C67   C     C_1   0.649253 0.287263 0.351672 -0.000737
C68   C     C_1   0.128738 0.818346 0.853188 -0.039676
C69   C     C_1   0.193379 0.848732 0.651552 -0.024977
C70   C     C_1   0.102800 0.800304 0.894597 0.001135
C71   C     C_1   0.645221 0.859297 0.608949 0.021052
C72   C     C_R   0.758618 0.912601 0.728697 0.284270
C73   C     C_R   0.769679 0.896193 0.777316 -0.143655
C74   C     C_R   0.615107 0.694383 0.764454 0.226419
C75   C     C_R   0.605610 0.710607 0.715646 -0.142896
C76   C     C_R   0.760988 0.319162 0.276619 -0.082126
C77   C     C_R   0.677235 0.818689 0.697735 -0.002604
C78   C     C_1   0.695396 0.382697 0.110789 0.034654
C79   C     C_R   0.697287 0.788573 0.795535 -0.031624
C80   C     C_1   0.711086 0.776939 0.845943 0.010975
C81   C     C_1   0.660169 0.836572 0.648608 0.000887
C82   C     C_1   0.725779 0.767433 0.887823 0.042354
C83   C     C_R   0.060294 0.767966 0.080846 0.571979
C84   C     C_R   0.715311 0.438983 0.066641 0.548601
C85   C     C_R   0.717955 0.782441 0.080307 0.579498
C86   C     C_R   0.056965 0.767095 0.941289 0.539230
C87   C     C_R   0.711630 0.434764 0.929277 0.527183
C88   C     C_R   0.767240 0.330127 0.226714 -0.147180
C89   C     C_R   0.179398 0.753457 0.350713 0.246679
C90   C     C_R   0.748519 0.756063 0.936987 0.549764
C91   C     C_3   0.189846 0.183233 0.316518 -0.102510
C92   C     C_3   0.976440 0.167549 0.207935 -0.130234
C93   C     C_3   0.049649 0.421056 0.795460 -0.112234
C94   C     C_3   0.445633 0.368936 0.206835 -0.098819
C95   C     C_3   0.791779 0.096899 0.724924 -0.104076
Cr1   Cr    Cr6+3 0.416430 0.829200 0.492370 1.111409
Cr2   Cr    Cr6+3 0.674630 0.087020 0.504170 1.168165
Cr3   Cr    Cr6+3 0.408920 0.083740 0.503490 1.059918
Cr4   Cr    Cr6+3 0.914010 0.832750 0.013970 1.038911
Cr5   Cr    Cr6+3 0.922310 0.578600 0.003000 1.096485
Cr6   Cr    Cr6+3 0.656280 0.574630 0.003870 1.157991
H1    H     H_    0.834661 0.323914 0.296366 0.172053
H2    H     H_    0.883454 0.466757 0.869464 0.189677
H3    H     H_    0.949005 0.445761 0.703398 0.212577
H4    H     H_    0.507756 0.277410 0.881729 0.139356
H5    H     H_    0.381642 0.171674 0.810223 0.117395
H6    H     H_    0.357805 0.134774 0.722425 0.116516
H7    H     H_    0.441626 0.160743 0.644534 0.140955
H8    H     H_    0.242706 0.722297 0.708279 0.138366
H9    H     H_    0.220513 0.713573 0.796146 0.154889
H10   H     H_    0.077647 0.945929 0.796561 0.119775
H11   H     H_    0.100812 0.955438 0.708474 0.139887
H12   H     H_    0.210351 0.103243 0.211014 0.164481
H13   H     H_    0.834626 0.967892 0.800893 0.124305
H14   H     H_    0.541396 0.639559 0.691634 0.167981
H15   H     H_    0.484437 0.273608 0.292481 0.184705
H16   H     H_    0.258692 0.628625 0.207514 0.213548
H17   H     H_    0.230989 0.614511 0.292573 0.170422
H18   H     H_    0.138645 0.969896 0.135637 0.157533
H19   H     H_    0.232617 0.272172 0.334809 0.174005
H20   H     H_    0.130593 0.123163 0.342722 0.179380
H21   H     H_    0.140846 0.183957 0.284041 0.146068
H22   H     H_    0.857660 0.243071 0.406483 0.374926
H23   H     H_    0.252655 0.037810 0.376291 0.184740
H24   H     H_    0.901096 0.164729 0.188004 0.127191
H25   H     H_    0.058089 0.226905 0.190053 0.161171
H26   H     H_    0.982823 0.204778 0.245736 0.153138
H27   H     H_    0.281369 0.471448 0.127209 0.384037
H28   H     H_    0.889287 0.585032 0.641090 0.343136
H29   H     H_    0.996755 0.342355 0.815326 0.117673
H30   H     H_    0.064089 0.395726 0.758062 0.139651
H31   H     H_    0.137046 0.471639 0.814379 0.185072
H32   H     H_    0.523856 0.453398 0.199906 0.149508
H33   H     H_    0.416757 0.371477 0.244399 0.116103
H34   H     H_    0.829629 0.972236 0.137112 0.193246
H35   H     H_    0.372724 0.355774 0.182146 0.167728
H36   H     H_    0.801181 0.117443 0.764757 0.103059
H37   H     H_    0.699007 0.063445 0.712247 0.117874
H38   H     H_    0.846766 0.179259 0.707992 0.164222
H39   H     H_    0.671531 0.539738 0.807634 0.329102
H40   H     H_    0.919217 0.424740 0.112933 0.351953
H41   H     H_    0.996526 0.439333 0.353084 0.370896
H42   H     H_    0.956724 0.022821 0.297117 0.164941
H43   H     H_    0.410195 0.562106 0.209616 0.159890
H44   H     H_    0.408408 0.587299 0.295843 0.119705
H45   H     H_    0.847717 0.347991 0.208891 0.154000
H46   H     H_    0.493670 0.705726 0.371205 0.164875
O1    O     O_R   0.296680 0.802170 0.437540 -0.429214
O2    O     O_R   0.637200 0.461990 0.052510 -0.456085
O3    O     O_R   0.664790 0.681920 0.057970 -0.412724
O4    O     O_R   0.525380 0.838530 0.443500 -0.514252
O5    O     O_R   0.815840 0.852920 0.961840 -0.513372
O6    O     O_R   0.012100 0.822630 0.963670 -0.517559
O7    O     O_R   0.037010 0.668460 0.953040 -0.492311
O8    O     O_R   0.813390 0.478970 0.949660 -0.523987
O9    O     O_R   0.632250 0.456930 0.945520 -0.490516
O10   O     O_R   0.660200 0.677230 0.958780 -0.451361
O11   O     O_3   0.830870 0.661990 0.006950 -0.304338
O12   O     O_R   0.662610 0.183990 0.557860 -0.449036
O13   O     O_R   0.702130 0.995190 0.446810 -0.408314
O14   O     O_R   0.661770 0.181390 0.458760 -0.450066
O15   O     O_R   0.499820 0.198480 0.455280 -0.507639
O16   O     O_R   0.311660 0.976250 0.449080 -0.514453
O17   O     O_R   0.297580 0.804960 0.544440 -0.471957
O18   O     O_R   0.526220 0.841130 0.542590 -0.505333
O19   O     O_R   0.703030 0.997990 0.553710 -0.479337
O20   O     O_3   0.277452 0.155492 0.303729 -0.616934
O21   O     O_2   0.926145 0.082635 0.423460 -0.247847
O22   O     O_2   0.960465 0.166753 0.345759 -0.377955
O23   O     O_R   0.500730 0.201280 0.562180 -0.518283
O24   O     O_3   0.795867 0.165269 0.393173 -0.502099
O25   O     O_3   0.966986 0.056627 0.206360 -0.602929
O26   O     O_2   0.449364 0.644959 0.064142 -0.220880
O27   O     O_2   0.480135 0.503186 0.104890 -0.303078
O28   O     O_3   0.325486 0.555900 0.136827 -0.513429
O29   O     O_2   0.934964 0.359157 0.607982 -0.233434
O30   O     O_2   0.818776 0.421825 0.562397 -0.246465
O31   O     O_3   0.944480 0.554421 0.636119 -0.513479
O32   O     O_3   0.996561 0.491500 0.795382 -0.582916
O33   O     O_3   0.468271 0.276157 0.197122 -0.558446
O34   O     O_R   0.312500 0.978850 0.548170 -0.507001
O35   O     O_3   0.831971 0.018453 0.710657 -0.547099
O36   O     O_2   0.423483 0.560379 0.811820 -0.249686
O37   O     O_2   0.472606 0.464108 0.744436 -0.281413
O38   O     O_3   0.598520 0.523643 0.824335 -0.501884
O39   O     O_2   0.146459 0.561304 0.083449 -0.200156
O40   O     O_2   0.103512 0.490124 0.163865 -0.347371
O41   O     O_3   0.946018 0.508201 0.121147 -0.519575
O42   O     O_2   0.213120 0.588530 0.387106 -0.293413
O43   O     O_2   0.060338 0.623341 0.423459 -0.229401
O44   O     O_3   0.016399 0.512690 0.338586 -0.541362
O45   O     O_3   0.499990 0.999990 0.500010 -0.299803
O46   O     O_R   0.820790 0.857990 0.068830 -0.527429
O47   O     O_R   0.016700 0.827330 0.062850 -0.508793
O48   O     O_R   0.041970 0.673520 0.060040 -0.406782
O49   O     O_R   0.817980 0.483660 0.048840 -0.469870
S1    S     S_3+6 0.867158 0.091953 0.378870 -0.001664
S2    S     S_3+6 0.456738 0.603332 0.112340 0.013246
S3    S     S_3+6 0.860779 0.417095 0.612108 0.027314
S4    S     S_3+6 0.522576 0.556495 0.785702 0.014301
S5    S     S_3+6 0.090441 0.567327 0.130188 0.033636
S6    S     S_3+6 0.117793 0.617600 0.377110 0.027672

loop_
_geom_bond_atom_site_label_1
_geom_bond_atom_site_label_2
_ccdc_geom_bond_type
C15   C18   A    
C57   H4    S    
O31   S3    S    
C63   C65   A    
C8    C83   S    
O41   S5    S    
C40   O12   A    
C66   C68   S    
C35   C36   A    
C92   H24   S    
C9    H23   S    
C40   O23   A    
Cr3   O16   S    
C93   O32   S    
C7    C8    A    
C39   C41   A    
C25   H42   S    
C53   C54   A    
C21   C31   A    
Cr4   O47   S    
C43   O32   S    
C26   C27   A    
C29   C30   A    
H39   O38   S    
Cr2   O12   S    
C91   O20   S    
C35   C37   A    
C86   O6    A    
C27   C37   A    
C3    C7    A    
C31   C36   A    
C30   C31   A    
C13   O20   S    
C2    C11   A    
Cr2   O19   S    
Cr6   O3    S    
C94   H32   S    
C56   C78   T    
C42   C46   A    
C63   H11   S    
C27   C85   S    
C90   O10   A    
C85   O3    A    
C21   C25   A    
C60   H8    S    
C94   H33   S    
C23   H15   S    
C46   C47   A    
C61   C66   A    
C9    C19   A    
Cr2   O45   S    
C62   H10   S    
C45   C56   S    
C49   C51   A    
C91   H21   S    
C29   C38   A    
C94   H35   S    
C83   O47   A    
C1    O4    A    
C26   H34   S    
O44   S6    S    
C93   H31   S    
C9    C10   A    
C76   C88   A    
C28   O19   A    
C84   O2    A    
C89   S6    S    
Cr6   O10   S    
C33   H43   S    
C13   C14   A    
C76   H1    S    
C2    C6    A    
C61   H9    S    
C53   H5    S    
Cr3   O15   S    
Cr5   O49   S    
C16   O16   A    
C44   H3    S    
Cr1   O1    S    
C95   H36   S    
O27   S2    D    
C74   C75   A    
C62   C66   A    
C64   C67   T    
C45   C88   A    
C40   C58   S    
C52   O34   A    
Cr3   O45   S    
O21   S1    D    
O43   S6    D    
C32   H44   S    
Cr6   O9    S    
O37   S4    D    
Cr1   O4    S    
C8    C18   A    
C73   H13   S    
Cr1   O17   S    
O39   S5    D    
C5    H16   S    
C60   C61   A    
C51   C53   A    
C47   C87   S    
C2    C89   A    
C43   C44   A    
Cr2   O13   S    
O28   S2    S    
C29   H46   S    
C72   C77   A    
C19   C89   A    
C52   C59   S    
Cr5   O11   S    
C42   C55   A    
C47   C57   A    
C20   C38   A    
C12   C23   A    
C77   C81   S    
C23   C34   A    
C62   C63   A    
C14   C15   A    
C73   C79   A    
H40   O41   S    
C94   O33   S    
C37   S2    S    
C24   C25   A    
C75   C77   A    
C48   H7    S    
C1    C38   S    
C52   O17   A    
C28   O18   A    
Cr5   O8    S    
C90   O5    A    
C48   C49   A    
C12   O33   S    
C59   C69   T    
C60   C65   A    
Cr2   O14   S    
C74   C79   A    
C22   C26   A    
C92   O25   S    
C41   C44   A    
C4    O15   A    
C28   C71   S    
C75   H14   S    
C42   C43   A    
O29   S3    D    
C93   H29   S    
C70   C86   S    
C92   H26   S    
C3    C5    A    
C41   C50   A    
O22   S1    D    
C46   H2    S    
Cr5   O48   S    
Cr5   O7    S    
C15   C17   A    
C39   S3    S    
C54   C55   A    
C11   C17   A    
C95   H37   S    
H28   O31   S    
O26   S2    D    
C87   O9    A    
C1    O13   A    
C50   C55   A    
C74   S4    S    
C72   C73   A    
H27   O28   S    
C10   C13   A    
C92   H25   S    
C34   C67   S    
Cr6   O11   S    
C95   O35   S    
C48   C58   A    
C12   C45   A    
C87   O8    A    
O42   S6    D    
C14   H12   S    
C22   C36   A    
Cr4   O5    S    
C4    C64   S    
C95   H38   S    
O36   S4    D    
C82   C90   S    
C16   O1    A    
C32   C33   A    
Cr1   O45   S    
Cr3   O34   S    
C86   O7    A    
C72   O35   S    
C7    S5    S    
C30   C32   A    
C39   C58   A    
C85   O46   A    
O40   S5    D    
C5    C6    A    
Cr4   O46   S    
C84   O49   A    
C16   C19   S    
C65   C69   S    
H41   O44   S    
Cr4   O6    S    
Cr6   O2    S    
C33   C35   A    
C80   C82   T    
C3    C17   A    
C22   C24   A    
C4    O14   A    
O38   S4    S    
C83   O48   A    
C24   O25   S    
C20   S1    S    
C10   C11   A    
O30   S3    D    
C79   C80   S    
Cr3   O23   S    
C78   C84   S    
O24   S1    S    
C20   C21   A    
C51   H6    S    
C49   C50   A    
C91   H20   S    
Cr4   O11   S    
C68   C70   T    
C88   H45   S    
C91   H19   S    
Cr1   O18   S    
C93   H30   S    
C18   H18   S    
C6    H17   S    
H22   O24   S    
C34   C76   A    
C71   C81   T    
C54   C57   A    
