data_mof_unit_64479.cif
_audit_creation_date              2012-12-10T18:39:30-0500
_audit_creation_method            fapswitch 2.2
_symmetry_space_group_name_H-M    P1
_symmetry_Int_Tables_number       1
_space_group_crystal_system       triclinic
_cell_length_a                    15.772693
_cell_length_b                    11.574192
_cell_length_c                    10.787782
_cell_angle_alpha                 89.999699
_cell_angle_beta                  89.959631
_cell_angle_gamma                 89.997991
_cell_volume                      1969.37575167

loop_
_atom_site_label
_atom_site_type_symbol
_atom_type_description
_atom_site_fract_x
_atom_site_fract_y
_atom_site_fract_z
_atom_type_partial_charge
C1    C     C_R   0.500002 0.281182 0.500000 0.902535
C2    C     C_R   0.337741 0.500033 0.500041 0.907889
C3    C     C_R   0.662258 0.500034 0.499940 0.909077
C4    C     C_1   0.500015 0.059155 0.500000 0.019665
C5    C     C_1   0.500010 0.161048 0.500001 -0.171162
C6    C     C_1   0.500000 0.500014 0.069785 0.058695
C7    C     C_1   0.500000 0.500013 0.930215 0.056128
C8    C     C_R   0.500006 0.718815 0.499999 0.915065
C9    C     C_3   0.047893 0.468879 0.621539 -0.431275
C10   C     C_3   0.048835 0.445708 0.391347 -0.351760
C11   C     C_3   0.950997 0.456173 0.613170 -0.462261
C12   C     C_1   0.750838 0.506459 0.499620 -0.116920
C13   C     C_3   0.951964 0.458335 0.381542 -0.361343
C14   C     C_1   0.500018 0.940836 0.499999 0.024234
C15   C     C_1   0.500014 0.838944 0.499999 -0.160934
C16   C     C_2   0.093702 0.728812 0.582245 0.236352
C17   C     C_2   0.083762 0.698536 0.359974 0.389657
C18   C     C_2   0.920741 0.706119 0.623457 0.400593
C19   C     C_2   0.908343 0.727753 0.397890 0.592862
C20   C     C_1   0.249149 0.506240 0.500101 -0.166718
C21   C     C_3   0.082696 0.521768 0.499362 0.220620
C22   C     C_3   0.917248 0.522293 0.497545 0.215324
C23   C     C_3   0.949068 0.652945 0.499295 -0.105046
C24   C     C_3   0.051312 0.651659 0.484922 -0.113707
C25   C     C_1   0.825812 0.513679 0.498728 0.001711
C26   C     C_1   0.174167 0.513212 0.499938 -0.128290
H1    H     H_    0.934676 0.362786 0.605416 0.205885
H2    H     H_    0.140227 0.752319 0.356935 0.106011
H3    H     H_    0.952613 0.682111 0.708748 0.092446
H4    H     H_    0.925795 0.818358 0.391854 0.093782
H5    H     H_    0.923186 0.370737 0.373860 0.166923
H6    H     H_    0.076370 0.382224 0.638436 0.204873
H7    H     H_    0.064673 0.353388 0.409258 0.179059
H8    H     H_    0.079355 0.467284 0.301437 0.215195
H9    H     H_    0.064622 0.523364 0.702664 0.169232
H10   H     H_    0.935466 0.504981 0.295007 0.249326
H11   H     H_    0.920917 0.486739 0.700464 0.180353
H12   H     H_    0.135576 0.692873 0.652039 0.109731
N1    N     N_1   0.500000 0.500010 0.180630 -0.074399
N2    N     N_1   0.500000 0.500010 0.819370 -0.075123
O1    O     O_R   0.500000 0.334450 0.602530 -0.608428
O2    O     O_2   0.050632 0.672828 0.261456 -0.579531
O3    O     O_2   0.861839 0.774559 0.630261 -0.551611
O4    O     O_2   0.856765 0.689806 0.323983 -0.571623
O5    O     O_R   0.500000 0.334450 0.397470 -0.609785
O6    O     O_R   0.377140 0.500000 0.602580 -0.611889
O7    O     O_R   0.377140 0.500000 0.397420 -0.610865
O8    O     O_R   0.622860 0.500000 0.602580 -0.608447
O9    O     O_R   0.622860 0.500000 0.397420 -0.597867
O10   O     O_R   0.500000 0.665550 0.602530 -0.604726
O11   O     O_R   0.500000 0.665550 0.397470 -0.605219
O12   O     O_2   0.081274 0.833060 0.582710 -0.551625
Zn1   Zn    Zn3+2 0.500000 0.500000 0.636920 1.001618
Zn2   Zn    Zn3+2 0.500000 0.500000 0.363080 1.005709

loop_
_geom_bond_atom_site_label_1
_geom_bond_atom_site_label_2
_ccdc_geom_bond_type
C13   C22   S    
C19   C23   S    
C21   C26   S    
C10   C13   S    
C6    C7    S    
C2    O7    A    
C10   H7    S    
C7    N2    T    
C9    H6    S    
C11   H1    S    
C12   C25   T    
C23   C24   S    
O11   Zn2   S    
C1    O5    A    
C14   C15   T    
C3    O9    A    
C16   C24   S    
C18   H3    S    
C18   O3    D    
C2    O6    A    
C9    C11   S    
C8    O11   A    
C9    C21   S    
O10   Zn1   S    
C19   H4    S    
C20   C26   T    
O7    Zn2   S    
C1    C5    S    
O6    Zn1   S    
C1    O1    A    
O5    Zn2   S    
C8    C15   S    
C10   C21   S    
C4    C14   S    
O8    Zn1   S    
C9    H9    S    
C17   C24   S    
C2    C20   S    
C18   C23   S    
N1    Zn2   S    
C8    O10   A    
C3    O8    A    
C17   O2    D    
C19   O4    D    
C13   H10   S    
C10   H8    S    
N2    Zn1   S    
C21   C24   S    
C16   O12   D    
C11   H11   S    
C6    N1    T    
C3    C12   S    
C11   C22   S    
O1    Zn1   S    
C22   C23   S    
C17   H2    S    
C13   H5    S    
O9    Zn2   S    
C16   H12   S    
C4    C5    T    
C22   C25   S    
