data_mof_unit_51963.cif
_audit_creation_date              2012-12-10T19:35:26-0500
_audit_creation_method            fapswitch 2.2
_symmetry_space_group_name_H-M    P1
_symmetry_Int_Tables_number       1
_space_group_crystal_system       triclinic
_cell_length_a                    13.479674
_cell_length_b                    15.86319
_cell_length_c                    17.096876
_cell_angle_alpha                 84.735849
_cell_angle_beta                  88.178297
_cell_angle_gamma                 109.502617
_cell_volume                      3423.95640678

loop_
_atom_site_label
_atom_site_type_symbol
_atom_type_description
_atom_site_fract_x
_atom_site_fract_y
_atom_site_fract_z
_atom_type_partial_charge
C1    C     C_R   0.494801 0.508378 0.348647 0.905064
C2    C     C_R   0.976553 0.531975 0.494389 -0.084762
C3    C     C_R   0.870247 0.513182 0.521351 -0.267906
C4    C     C_R   0.023765 0.466304 0.514753 -0.123451
C5    C     C_R   0.961478 0.377475 0.542814 -0.307899
C6    C     C_R   0.859921 0.361702 0.576830 0.426237
C7    C     C_R   0.819137 0.432730 0.571764 0.557762
C8    C     C_R   0.132668 0.489542 0.520899 0.505487
C9    C     C_R   0.114889 0.332555 0.519798 0.310235
C10   C     C_R   0.818893 0.575327 0.497995 -0.253643
C11   C     C_R   0.485165 0.511052 0.262214 -0.379466
C12   C     C_R   0.702720 0.547502 0.501245 0.936419
C13   C     C_R   0.520403 0.454350 0.217881 0.308877
C14   C     C_R   0.534841 0.472128 0.135684 0.340784
C15   C     C_R   0.494648 0.534741 0.096681 0.063146
C16   C     C_R   0.447138 0.584129 0.140089 0.316734
C17   C     C_R   0.443158 0.572920 0.223427 0.317051
C18   C     C_R   0.558406 0.553561 0.855210 0.319933
C19   C     C_R   0.562920 0.556248 0.773219 0.420164
C20   C     C_R   0.480768 0.481095 0.901186 0.019970
C21   C     C_R   0.494535 0.485837 0.736799 -0.402397
C22   C     C_R   0.420052 0.413089 0.782376 0.431664
C23   C     C_R   0.498343 0.490016 0.651134 1.005316
C24   C     C_R   0.414948 0.409355 0.864506 0.325753
C25   C     C_R   0.543575 0.260387 0.452678 0.426327
C26   C     C_R   0.534030 0.168486 0.449629 0.185678
C27   C     C_R   0.480374 0.104159 0.513564 0.083414
C28   C     C_R   0.430199 0.132786 0.573574 0.305060
C29   C     C_R   0.428221 0.222200 0.568619 0.437154
C30   C     C_R   0.452346 0.830051 0.536661 -0.481013
C31   C     C_R   0.451487 0.740259 0.542261 0.579248
C32   C     C_R   0.527000 0.897103 0.485218 0.184115
C33   C     C_R   0.585770 0.778158 0.438676 0.490764
C34   C     C_R   0.296737 0.451977 0.505301 0.878056
C35   C     C_R   0.599043 0.871227 0.440083 0.240955
C36   C     C_R   0.007242 0.309589 0.542560 0.599080
C37   C     C_R   0.180442 0.423906 0.514291 -0.343808
C38   C     C_R   0.877583 0.659341 0.457481 0.483069
C39   C     C_R   0.980570 0.676567 0.427771 0.307951
C40   C     C_R   0.031693 0.613340 0.445485 0.379352
Cu1   Cu    Cu3+1 0.505120 0.585970 0.496130 1.090538
Cu2   Cu    Cu3+1 0.494880 0.414030 0.503870 1.067915
H1    H     H_    0.397638 0.847267 0.574358 0.220524
N1    N     N_2   0.498525 0.546569 0.013382 -0.112357
N2    N     N_2   0.471666 0.473603 0.984497 -0.129464
N3    N     N_R   0.487180 0.284900 0.509690 -0.293615
N4    N     N_2   0.468632 0.009908 0.518702 -0.118246
N5    N     N_2   0.537030 0.990880 0.479749 -0.137912
N6    N     N_R   0.512820 0.715120 0.490310 -0.270133
O1    O     O_R   0.504790 0.580580 0.382450 -0.542996
O2    O     O_R   0.496140 0.435390 0.388990 -0.534408
O3    O     O_R   0.657420 0.608020 0.495150 -0.493666
O4    O     O_R   0.648770 0.462830 0.501690 -0.568460
O5    O     O_R   0.503860 0.564610 0.611010 -0.550836
O6    O     O_R   0.495210 0.419420 0.617550 -0.486555
O7    O     O_R   0.351230 0.537170 0.498310 -0.518975
O8    O     O_R   0.342580 0.391980 0.504850 -0.549428
O9    O     O_3   0.156696 0.265008 0.512844 -0.546496
C41   C     C_3   0.151157 0.244771 0.434206 -0.257193
H2    H     H_    0.067845 0.217886 0.418162 0.170825
H3    H     H_    0.186962 0.191931 0.427856 0.173116
H4    H     H_    0.196688 0.304554 0.392645 0.137816
O10   O     O_3   0.628722 0.622850 0.889584 -0.525208
C42   C     C_3   0.719708 0.600303 0.903949 -0.176734
H5    H     H_    0.700711 0.536841 0.944082 0.175808
H6    H     H_    0.775287 0.654751 0.933291 0.174558
H7    H     H_    0.760515 0.594778 0.848010 0.183471
O11   O     O_3   0.394331 0.636131 0.102474 -0.543044
C43   C     C_3   0.466519 0.712064 0.056855 -0.256003
H8    H     H_    0.470556 0.698754 0.994448 0.216832
H9    H     H_    0.547397 0.734253 0.078682 0.125998
H10   H     H_    0.436655 0.769160 0.058466 0.164904
O12   O     O_3   0.385081 0.610833 0.268794 -0.534249
C44   C     C_3   0.416455 0.705077 0.250742 -0.147213
H11   H     H_    0.356615 0.722198 0.215653 0.191592
H12   H     H_    0.495594 0.735838 0.219063 0.103910
H13   H     H_    0.419293 0.736057 0.306557 0.125188
F1    F     F_    0.348519 0.348171 0.747234 -0.629084
O13   O     O_3   0.602262 0.440147 0.093785 -0.548501
C45   C     C_3   0.554097 0.348183 0.084522 -0.218541
H14   H     H_    0.589326 0.334504 0.029673 0.161862
H15   H     H_    0.467451 0.328159 0.078529 0.147555
H16   H     H_    0.571917 0.305757 0.133515 0.194548
O14   O     O_3   0.339124 0.339080 0.909613 -0.521164
C46   C     C_3   0.370654 0.262560 0.913438 -0.204916
H17   H     H_    0.451978 0.277364 0.933379 0.116025
H18   H     H_    0.364952 0.234533 0.855844 0.215228
H19   H     H_    0.316596 0.209899 0.957087 0.168795
O15   O     O_3   0.542452 0.381924 0.254015 -0.501135
C47   C     C_3   0.447269 0.307288 0.264765 -0.191156
H20   H     H_    0.394749 0.313855 0.313444 0.161565
H21   H     H_    0.466585 0.245446 0.280456 0.215720
H22   H     H_    0.402687 0.297062 0.210767 0.090824
O16   O     O_3   0.387232 0.675945 0.598904 -0.529825
C48   C     C_3   0.413787 0.700948 0.674766 -0.276945
H23   H     H_    0.378748 0.640844 0.718214 0.173702
H24   H     H_    0.379870 0.752597 0.690315 0.151935
H25   H     H_    0.500645 0.724930 0.680608 0.211547
F2    F     F_    0.382426 0.072684 0.636632 -0.648089
O17   O     O_3   0.813182 0.286217 0.630081 -0.500524
C49   C     C_3   0.720748 0.230435 0.600295 -0.146823
H26   H     H_    0.739845 0.203688 0.546179 0.136106
H27   H     H_    0.662889 0.265493 0.589377 0.145996
H28   H     H_    0.682595 0.171960 0.644757 0.197975
O18   O     O_3   0.374140 0.250169 0.625497 -0.498613
C50   C     C_3   0.269721 0.190262 0.642329 0.033376
H29   H     H_    0.266147 0.142461 0.694847 0.184237
H30   H     H_    0.235587 0.153042 0.591836 0.137695
H31   H     H_    0.219025 0.229707 0.657535 0.207915
O19   O     O_3   0.653282 0.748987 0.393868 -0.487911
C51   C     C_3   0.674924 0.791537 0.315919 -0.153906
H32   H     H_    0.755114 0.842862 0.310063 0.204439
H33   H     H_    0.616573 0.823115 0.295778 0.110171
H34   H     H_    0.674787 0.740330 0.275819 0.136338
O20   O     O_3   0.552572 0.139899 0.378042 -0.545474
C52   C     C_3   0.657412 0.141117 0.367805 -0.179918
H35   H     H_    0.655530 0.078250 0.343811 0.228846
H36   H     H_    0.700819 0.146225 0.422520 0.131620
H37   H     H_    0.701551 0.195615 0.321866 0.144761
O21   O     O_3   0.682287 0.936921 0.397329 -0.610497
C53   C     C_3   0.768616 0.961008 0.445098 -0.258896
H38   H     H_    0.794563 0.902649 0.462462 0.223483
H39   H     H_    0.749922 0.989958 0.498256 0.182176
H40   H     H_    0.835720 0.013581 0.410797 0.180939
O22   O     O_3   0.596946 0.323907 0.391273 -0.483056
C54   C     C_3   0.707521 0.346355 0.392993 -0.149172
H41   H     H_    0.740031 0.339267 0.334669 0.162446
H42   H     H_    0.734345 0.306742 0.439392 0.058626
H43   H     H_    0.743696 0.418528 0.400171 0.157065
F3    F     F_    0.948151 0.221611 0.561264 -0.629495
O23   O     O_3   0.189370 0.572868 0.543490 -0.526879
C55   C     C_3   0.159795 0.575571 0.623173 -0.220555
H44   H     H_    0.190917 0.531852 0.662568 0.170138
H45   H     H_    0.073104 0.556482 0.635316 0.141866
H46   H     H_    0.193931 0.645624 0.637913 0.199243
F4    F     F_    0.832471 0.722695 0.439221 -0.610032
O24   O     O_3   0.126762 0.622067 0.405234 -0.560868
C56   C     C_3   0.206033 0.705297 0.413429 -0.073614
H47   H     H_    0.193224 0.735922 0.467363 0.157962
H48   H     H_    0.214026 0.753139 0.360113 0.159290
H49   H     H_    0.282526 0.693777 0.417630 0.179598
O25   O     O_3   0.029908 0.754966 0.378805 -0.552046
C57   C     C_3   0.002813 0.739594 0.301051 -0.262156
H50   H     H_    0.916709 0.724147 0.295255 0.183081
H51   H     H_    0.028041 0.684707 0.280754 0.166984
H52   H     H_    0.044673 0.801778 0.261509 0.178886
F5    F     F_    0.734578 0.425272 0.620799 -0.645847
F6    F     F_    0.635952 0.626757 0.729352 -0.621202

loop_
_geom_bond_atom_site_label_1
_geom_bond_atom_site_label_2
_ccdc_geom_bond_type
C57   H52   S    
C34   O7    A    
C54   H41   S    
C34   C37   S    
Cu1   Cu2   S    
C48   H23   S    
C1    C11   S    
C4    C8    A    
C48   H25   S    
C46   H17   S    
O21   C53   S    
C26   C27   A    
C49   H26   S    
C44   H12   S    
C23   O5    A    
C28   C29   A    
C19   C21   A    
C15   N1    S    
C18   C19   A    
C3    C7    A    
Cu2   O4    S    
C5    C6    A    
C18   O10   S    
C50   H29   S    
C33   N6    A    
C57   H50   S    
C5    C36   A    
C52   H35   S    
C9    O9    S    
Cu2   N3    S    
C43   H9    S    
C25   O22   S    
O19   C51   S    
C53   H40   S    
C26   O20   S    
C20   C24   A    
O11   C43   S    
C44   H13   S    
C34   O8    A    
C16   O11   S    
C38   F4    S    
C1    O1    A    
Cu1   O3    S    
C20   N2    S    
Cu2   O2    S    
C41   H2    S    
C49   H27   S    
C21   C22   A    
C17   O12   S    
C32   N5    S    
C29   O18   S    
C35   O21   S    
C43   H8    S    
C31   N6    A    
C45   H16   S    
Cu2   O8    S    
Cu1   N6    S    
C12   O3    A    
C7    F5    S    
C46   H18   S    
O12   C44   S    
C38   C39   A    
C41   H3    S    
C44   H11   S    
C32   C35   A    
O14   C46   S    
C22   F1    S    
C45   H15   S    
C39   C40   A    
C16   C17   A    
C54   H43   S    
O9    C41   S    
O10   C42   S    
C42   H6    S    
C43   H10   S    
C2    C4    A    
C42   H7    S    
Cu1   O7    S    
C36   F3    S    
Cu2   O6    S    
C9    C36   A    
C47   H21   S    
N4    N5    D    
C39   O25   S    
C40   O24   S    
C8    O23   S    
C9    C37   A    
C51   H33   S    
C14   O13   S    
C1    O2    A    
C53   H38   S    
C10   C12   S    
C28   F2    S    
C49   H28   S    
C21   C23   S    
O22   C54   S    
C22   C24   A    
C30   H1    S    
C8    C37   A    
O23   C55   S    
Cu1   O1    S    
N1    N2    D    
C47   H22   S    
O24   C56   S    
C46   H19   S    
C27   N4    S    
C57   H51   S    
C11   C17   A    
C41   H4    S    
C54   H42   S    
C51   H32   S    
C13   O15   S    
O25   C57   S    
C12   O4    A    
C45   H14   S    
C56   H49   S    
C48   H24   S    
C23   O6    A    
C6    C7    A    
C56   H48   S    
C31   O16   S    
O18   C50   S    
C19   F6    S    
C52   H37   S    
C29   N3    A    
C10   C38   A    
C42   H5    S    
C2    C3    A    
C25   C26   A    
C3    C10   A    
C30   C32   A    
C11   C13   A    
C47   H20   S    
C30   C31   A    
C50   H30   S    
C55   H46   S    
C15   C16   A    
O17   C49   S    
C33   C35   A    
C52   H36   S    
C55   H44   S    
C51   H34   S    
C18   C20   A    
C24   O14   S    
O16   C48   S    
Cu1   O5    S    
C53   H39   S    
C56   H47   S    
O13   C45   S    
C2    C40   A    
C4    C5    A    
C55   H45   S    
C27   C28   A    
C14   C15   A    
C33   O19   S    
O15   C47   S    
C13   C14   A    
C25   N3    A    
O20   C52   S    
C6    O17   S    
C50   H31   S    
