data_mof_unit_42472.cif
_audit_creation_date              2012-12-11T15:17:38-0500
_audit_creation_method            fapswitch 2.2
_symmetry_space_group_name_H-M    P1
_symmetry_Int_Tables_number       1
_space_group_crystal_system       triclinic
_cell_length_a                    6.881843
_cell_length_b                    18.893773
_cell_length_c                    23.811479
_cell_angle_alpha                 90.006739
_cell_angle_beta                  90.016839
_cell_angle_gamma                 89.968505
_cell_volume                      3096.06263367

loop_
_atom_site_label
_atom_site_type_symbol
_atom_type_description
_atom_site_fract_x
_atom_site_fract_y
_atom_site_fract_z
_atom_type_partial_charge
O1    O     O_R   0.620180 0.810610 0.187990 -0.541470
O2    O     O_R   0.379820 0.189390 0.812010 -0.545613
O3    O     O_R   0.379820 0.189390 0.687990 -0.541312
O4    O     O_R   0.620180 0.810610 0.312010 -0.545639
O5    O     O_R   0.120180 0.689390 0.312010 -0.538139
O6    O     O_R   0.879820 0.310610 0.687990 -0.542703
O7    O     O_R   0.879820 0.310610 0.812010 -0.538165
O8    O     O_R   0.120180 0.689390 0.187990 -0.542636
O9    O     O_R   0.290420 0.818570 0.311590 -0.541931
O10   O     O_R   0.709580 0.181430 0.688410 -0.545253
O11   O     O_R   0.709580 0.181430 0.811590 -0.541916
O12   O     O_R   0.290420 0.818570 0.188410 -0.545229
O13   O     O_R   0.790420 0.681430 0.188410 -0.545072
O14   O     O_R   0.209580 0.318570 0.811590 -0.548099
O15   O     O_R   0.209580 0.318570 0.688410 -0.545065
O16   O     O_R   0.790420 0.681430 0.311590 -0.548026
C1    C     C_R   0.457569 0.832199 0.332249 0.766524
C2    C     C_R   0.543355 0.168316 0.667506 0.762354
C3    C     C_R   0.542456 0.167793 0.832247 0.766340
C4    C     C_R   0.456618 0.831692 0.167507 0.762219
C5    C     C_R   0.957229 0.668165 0.167604 0.764285
C6    C     C_R   0.043588 0.331969 0.832349 0.766751
C7    C     C_R   0.042740 0.331836 0.667603 0.764300
C8    C     C_R   0.956442 0.668028 0.332349 0.766925
O17   O     O_3   0.453640 0.707610 0.250000 -0.374520
O18   O     O_3   0.546360 0.292390 0.750000 -0.374617
O19   O     O_3   0.953640 0.792390 0.250000 -0.374736
O20   O     O_3   0.046360 0.207610 0.750000 -0.374609
V1    V     V_3+5 0.178800 0.757860 0.250000 1.435326
V2    V     V_3+5 0.821200 0.242140 0.750000 1.435401
V3    V     V_3+5 0.678800 0.742140 0.250000 1.426504
V4    V     V_3+5 0.321200 0.257860 0.750000 1.426709
C9    C     C_R   0.029243 0.354141 0.563462 0.178135
C10   C     C_R   0.948611 0.645540 0.436612 0.183031
C11   C     C_R   0.970799 0.645865 0.063467 0.178613
C12   C     C_R   0.051349 0.354454 0.936608 0.182900
C13   C     C_R   0.522861 0.146085 0.936548 0.180199
C14   C     C_R   0.455317 0.854379 0.063386 0.181718
C15   C     C_R   0.477102 0.853910 0.436542 0.179474
C16   C     C_R   0.544728 0.145627 0.563394 0.181672
C17   C     C_R   0.028299 0.381157 0.617678 -0.098585
C18   C     C_R   0.965742 0.618932 0.382467 -0.095068
C19   C     C_R   0.971657 0.618848 0.117678 -0.098396
C20   C     C_R   0.034299 0.381064 0.882467 -0.095892
C21   C     C_R   0.528337 0.118780 0.882395 -0.095919
C22   C     C_R   0.465801 0.881125 0.117626 -0.099752
C23   C     C_R   0.471696 0.881211 0.382395 -0.095929
C24   C     C_R   0.534163 0.118885 0.617626 -0.098187
C25   C     C_R   0.000773 0.453128 0.626794 0.179531
C26   C     C_R   0.984779 0.546883 0.373484 0.176786
C27   C     C_R   0.999259 0.546882 0.126791 0.179340
C28   C     C_R   0.015141 0.453106 0.873482 0.177759
C29   C     C_R   0.508146 0.046725 0.873501 0.177961
C30   C     C_R   0.476872 0.953564 0.126892 0.180218
C31   C     C_R   0.491808 0.953261 0.373500 0.178134
C32   C     C_R   0.523113 0.046449 0.626888 0.178781
C33   C     C_R   0.987461 0.502813 0.580386 0.023625
C34   C     C_R   0.995785 0.497172 0.419868 0.024255
C35   C     C_R   0.012578 0.497194 0.080384 0.023869
C36   C     C_R   0.004172 0.502819 0.919868 0.024070
C37   C     C_R   0.492674 0.997101 0.919738 0.025266
C38   C     C_R   0.490228 0.003142 0.080266 0.025323
C39   C     C_R   0.507281 0.002890 0.419740 0.024303
C40   C     C_R   0.509832 0.996867 0.580265 0.023886
C41   C     C_R   0.997284 0.475797 0.523706 -0.090541
C42   C     C_R   0.985091 0.524160 0.476518 -0.087553
C43   C     C_R   0.002717 0.524205 0.023706 -0.090517
C44   C     C_R   0.014936 0.475838 0.976517 -0.089733
C45   C     C_R   0.497288 0.024278 0.976388 -0.091722
C46   C     C_R   0.485067 0.975949 0.023573 -0.091393
C47   C     C_R   0.502706 0.975719 0.476387 -0.091351
C48   C     C_R   0.514982 0.024054 0.523575 -0.087898
C49   C     C_R   0.017094 0.400191 0.514664 -0.016963
C50   C     C_R   0.960858 0.599617 0.485493 -0.022133
C51   C     C_R   0.982943 0.599809 0.014668 -0.019506
C52   C     C_R   0.039138 0.400382 0.985490 -0.021984
C53   C     C_R   0.512169 0.100059 0.985358 -0.020864
C54   C     C_R   0.465996 0.900358 0.014526 -0.020426
C55   C     C_R   0.487876 0.899940 0.485354 -0.018328
C56   C     C_R   0.534009 0.099643 0.514532 -0.021079
C57   C     C_R   0.965664 0.577929 0.588810 0.254263
C58   C     C_R   0.018169 0.422177 0.411425 0.227148
C59   C     C_R   0.034410 0.422083 0.088808 0.253336
C60   C     C_R   0.981358 0.577854 0.911395 0.243898
C61   C     C_R   0.474156 0.921943 0.911138 0.256087
C62   C     C_R   0.509085 0.078298 0.088502 0.256356
C63   C     C_R   0.525769 0.078045 0.411146 0.256375
C64   C     C_R   0.490680 0.921668 0.588538 0.235711
C65   C     C_R   0.950505 0.625741 0.542814 0.274067
C66   C     C_R   0.024511 0.374010 0.457320 0.270869
C67   C     C_R   0.049522 0.374266 0.042809 0.274178
C68   C     C_R   0.975581 0.625980 0.957330 0.270979
C69   C     C_R   0.458469 0.874125 0.957143 0.267475
C70   C     C_R   0.516660 0.126398 0.042614 0.271685
C71   C     C_R   0.541506 0.125867 0.457154 0.267772
C72   C     C_R   0.483521 0.873614 0.542603 0.271358
N1    N     N_3   0.959217 0.607833 0.643719 -0.642542
H1    H     H_    0.989175 0.659516 0.654058 0.305099
H2    H     H_    0.924997 0.580420 0.678824 0.261899
N2    N     N_3   0.077612 0.393276 0.356540 -0.584288
H3    H     H_    0.045799 0.340676 0.346060 0.294427
H4    H     H_    0.985666 0.418076 0.321726 0.226296
N3    N     N_3   0.040917 0.392189 0.143716 -0.641081
H5    H     H_    0.005050 0.340509 0.154052 0.303468
H6    H     H_    0.075157 0.419601 0.178831 0.263147
N4    N     N_3   0.938953 0.606579 0.856487 -0.621569
H7    H     H_    0.947228 0.659267 0.846110 0.301771
H8    H     H_    0.009517 0.582053 0.822016 0.244359
N5    N     N_3   0.471010 0.892105 0.856094 -0.639690
H9    H     H_    0.456539 0.840175 0.845810 0.303856
H10   H     H_    0.435376 0.919342 0.820870 0.253882
N6    N     N_3   0.514316 0.107439 0.143233 -0.642900
H11   H     H_    0.527863 0.160163 0.153844 0.303067
H12   H     H_    0.470534 0.082383 0.177991 0.261603
N7    N     N_3   0.528861 0.107874 0.356105 -0.639598
H13   H     H_    0.543281 0.159804 0.345823 0.303691
H14   H     H_    0.564498 0.080627 0.320886 0.253025
N8    N     N_3   0.452350 0.892656 0.643325 -0.592006
H15   H     H_    0.502341 0.840003 0.653711 0.286760
H16   H     H_    0.521731 0.917456 0.677646 0.237998
N9    N     N_3   0.983106 0.471295 0.683782 -0.728434
H17   H     H_    0.879722 0.445923 0.707224 0.247929
H18   H     H_    0.085323 0.506743 0.703951 0.239518
N10   N     N_3   0.981847 0.528371 0.316373 -0.728902
H19   H     H_    0.862441 0.542772 0.293217 0.241860
H20   H     H_    0.103788 0.500638 0.296508 0.247347
N11   N     N_3   0.017042 0.528726 0.183778 -0.728424
H21   H     H_    0.120440 0.554109 0.207228 0.248173
H22   H     H_    0.914845 0.493288 0.203949 0.238571
N12   N     N_3   0.018019 0.471605 0.816369 -0.727192
H23   H     H_    0.137416 0.457206 0.793222 0.242765
H24   H     H_    0.896106 0.499339 0.796486 0.243927
N13   N     N_3   0.493236 0.028876 0.816609 -0.729558
H25   H     H_    0.381371 0.050898 0.794051 0.244837
H26   H     H_    0.595172 0.993378 0.796476 0.244290
N14   N     N_3   0.470893 0.972650 0.184102 -0.724351
H27   H     H_    0.359217 0.953751 0.208150 0.246399
H28   H     H_    0.593383 0.000272 0.203926 0.237396
N15   N     N_3   0.506628 0.971093 0.316606 -0.729806
H29   H     H_    0.618490 0.949074 0.294057 0.244520
H30   H     H_    0.404730 0.006596 0.296457 0.244615
N16   N     N_3   0.529269 0.027367 0.684096 -0.726212
H31   H     H_    0.640960 0.046283 0.708152 0.245317
H32   H     H_    0.406815 0.999761 0.703936 0.242920
Br1   Br    Br    0.922483 0.727437 0.568178 -0.481643
Br2   Br    Br    0.023009 0.271325 0.431737 -0.479683
Br3   Br    Br    0.078439 0.272574 0.068168 -0.478274
Br4   Br    Br    0.977211 0.728657 0.931750 -0.479084
Br5   Br    Br    0.388514 0.772300 0.931715 -0.478306
Br6   Br    Br    0.539185 0.229081 0.068093 -0.480094
Br7   Br    Br    0.611546 0.227680 0.431735 -0.479434
Br8   Br    Br    0.460782 0.770949 0.568079 -0.476214
N17   N     N_3   0.034045 0.279815 0.559234 -0.664587
H33   H     H_    0.074155 0.243336 0.590366 0.234939
H34   H     H_    0.035532 0.260534 0.520415 0.325022
N18   N     N_3   0.918989 0.719009 0.440733 -0.670477
H35   H     H_    0.919110 0.756745 0.409373 0.239064
H36   H     H_    0.910243 0.738374 0.479508 0.323716
N19   N     N_3   0.966143 0.720197 0.059247 -0.664709
H37   H     H_    0.926129 0.756674 0.090381 0.234838
H38   H     H_    0.964666 0.739476 0.020428 0.324906
N20   N     N_3   0.080823 0.280979 0.940723 -0.670565
H39   H     H_    0.080742 0.243243 0.909358 0.239082
H40   H     H_    0.089576 0.261615 0.979498 0.323730
N21   N     N_3   0.525772 0.220408 0.940662 -0.673295
H41   H     H_    0.535709 0.257195 0.909362 0.240620
H42   H     H_    0.526190 0.239958 0.979424 0.324097
N22   N     N_3   0.427321 0.780854 0.059191 -0.667458
H43   H     H_    0.433558 0.742854 0.090418 0.237337
H44   H     H_    0.419956 0.761486 0.020393 0.323695
N23   N     N_3   0.474057 0.779589 0.440646 -0.673172
H45   H     H_    0.463319 0.742796 0.409340 0.240607
H46   H     H_    0.473649 0.760039 0.479408 0.323914
N24   N     N_3   0.572868 0.219148 0.559211 -0.667434
H47   H     H_    0.566631 0.257154 0.590442 0.237284
H48   H     H_    0.580237 0.238516 0.520412 0.323830

loop_
_geom_bond_atom_site_label_1
_geom_bond_atom_site_label_2
_ccdc_geom_bond_type
O17   V3    S    
C47   C55   A    
N23   H45   S    
C64   C72   A    
O18   V4    S    
N21   H41   S    
O12   V1    S    
C46   C54   A    
C8    C18   S    
C45   C53   A    
C10   C18   A    
N6    H12   S    
N1    H1    S    
C31   N15   S    
O15   V4    S    
O16   V3    S    
C65   Br1   S    
N23   H46   S    
O11   C3    A    
C59   N3    S    
C28   C36   A    
O8    V1    S    
C50   C65   A    
C15   C23   A    
N18   H35   S    
C35   C59   A    
C49   C66   A    
C61   N5    S    
C34   C58   A    
N24   H47   S    
C9    N17   S    
O19   V1    S    
N4    H7    S    
C54   C69   A    
C37   C45   A    
N7    H13   S    
C42   C50   A    
C53   C70   A    
O1    V3    S    
C41   C49   A    
C38   C46   A    
O3    C2    A    
O2    V4    S    
C16   C24   A    
N8    H15   S    
C15   N23   S    
C12   C52   A    
C35   C43   A    
C5    C19   S    
C29   C37   A    
N18   H36   S    
C34   C42   A    
C6    C20   S    
O11   V2    S    
O20   V2    S    
N7    H14   S    
C31   C39   A    
C60   N4    S    
C16   C56   A    
C7    C17   S    
N17   H34   S    
C11   C19   A    
C11   C51   A    
C63   N7    S    
O9    V1    S    
O4    V3    S    
C57   C65   A    
C20   C28   A    
N22   H44   S    
C23   C31   A    
C30   N14   S    
O16   C8    A    
O7    V2    S    
C62   C70   A    
C12   N20   S    
O12   C4    A    
C45   C46   A    
C61   C69   A    
C17   C25   A    
N6    H11   S    
N1    H2    S    
O8    C5    A    
C27   C35   A    
N20   H40   S    
O17   V1    S    
N9    H18   S    
O19   V3    S    
C43   C44   A    
C26   C34   A    
O20   V4    S    
C26   N10   S    
N14   H28   S    
O14   V4    S    
C13   N21   S    
C30   C38   A    
C13   C53   A    
C67   Br3   S    
C48   C56   A    
C63   C71   A    
C15   C55   A    
N12   H24   S    
N11   H22   S    
C68   Br4   S    
C38   C62   A    
O10   V2    S    
C70   Br6   S    
N19   H37   S    
C25   N9    S    
C22   C30   A    
C32   C40   A    
C69   Br5   S    
C29   N13   S    
N3    H6    S    
C56   C71   A    
N9    H17   S    
C39   C47   A    
C37   C61   A    
C51   C68   A    
C18   C26   A    
O4    C1    A    
C9    C49   A    
N22   H43   S    
O6    V2    S    
N2    H4    S    
C10   C50   A    
O18   V2    S    
N13   H25   S    
N16   H32   S    
C12   C20   A    
C71   Br7   S    
C36   C60   A    
C64   N8    S    
N11   H21   S    
O5    V1    S    
N10   H20   S    
N20   H39   S    
O9    C1    A    
C24   C32   A    
O1    C4    A    
C39   C63   A    
O2    C3    A    
C58   N2    S    
O13   V3    S    
C1    C23   S    
C33   C41   A    
N14   H27   S    
C2    C24   S    
C25   C33   A    
N15   H29   S    
C3    C21   S    
C10   N18   S    
C44   C52   A    
O7    C6    A    
C59   C67   A    
C14   C54   A    
C58   C66   A    
C9    C17   A    
O14   C6    A    
N5    H10   S    
N12   H23   S    
C32   N16   S    
C47   C48   A    
C66   Br2   S    
N5    H9    S    
O13   C5    A    
C16   N24   S    
C28   N12   S    
N15   H30   S    
C19   C27   A    
C14   N22   S    
O5    C8    A    
N4    H8    S    
O10   C2    A    
O6    C7    A    
O15   C7    A    
N2    H3    S    
C57   N1    S    
N24   H48   S    
C33   C57   A    
C40   C48   A    
O3    V4    S    
N8    H16   S    
C14   C22   A    
C11   N19   S    
C52   C67   A    
C21   C29   A    
C62   N6    S    
C55   C72   A    
C43   C51   A    
C27   N11   S    
C36   C44   A    
N21   H42   S    
C41   C42   A    
N3    H5    S    
N13   H26   S    
N16   H31   S    
C60   C68   A    
N17   H33   S    
N19   H38   S    
C13   C21   A    
C40   C64   A    
C4    C22   S    
N10   H19   S    
C72   Br8   S    
