data_mof_unit_8446.cif
_audit_creation_date              2012-12-10T20:44:48-0500
_audit_creation_method            fapswitch 2.2
_symmetry_space_group_name_H-M    P1
_symmetry_Int_Tables_number       1
_space_group_crystal_system       triclinic
_cell_length_a                    9.901101
_cell_length_b                    10.707223
_cell_length_c                    16.803051
_cell_angle_alpha                 89.064933
_cell_angle_beta                  95.857137
_cell_angle_gamma                 90.793467
_cell_volume                      1771.6783022

loop_
_atom_site_label
_atom_site_type_symbol
_atom_type_description
_atom_site_fract_x
_atom_site_fract_y
_atom_site_fract_z
_atom_type_partial_charge
C1    C     C_R   0.498305 0.259744 0.497785 0.891837
C2    C     C_R   0.491742 0.128044 0.484359 -0.192564
C3    C     C_R   0.368009 0.059730 0.483385 0.205392
C4    C     C_R   0.518838 0.500399 0.652913 0.876254
C5    C     C_R   0.371082 0.930915 0.479222 -0.291337
C6    C     C_R   0.495796 0.870594 0.481660 -0.136525
C7    C     C_R   0.611038 0.938913 0.467009 0.076178
C8    C     C_3   0.754950 0.933996 0.503544 -0.473242
C9    C     C_3   0.752914 0.076550 0.501847 -0.009683
C10   C     C_R   0.079541 0.423612 0.551342 0.202162
C11   C     C_R   0.063133 0.566292 0.444266 -0.133683
C12   C     C_R   0.606841 0.617941 0.771260 -0.260141
C13   C     C_R   0.919362 0.565982 0.444095 -0.136922
C14   C     C_R   0.937833 0.425910 0.552866 0.173759
C15   C     C_3   0.954188 0.427527 0.643178 -0.067496
C16   C     C_R   0.499985 0.739713 0.496499 0.899612
C17   C     C_3   0.106956 0.422090 0.639862 -0.501128
C18   C     C_R   0.480749 0.504358 0.346673 0.861066
C19   C     C_R   0.530664 0.517302 0.737964 -0.069736
C20   C     C_R   0.452242 0.442606 0.784289 -0.249546
C21   C     C_R   0.450953 0.467366 0.864537 -0.180981
C22   C     C_R   0.527329 0.568536 0.899111 0.239913
C23   C     C_R   0.563609 0.586397 0.140916 -0.166654
C24   C     C_R   0.608839 0.642553 0.852609 0.230595
C25   C     C_3   0.842663 0.136636 0.442546 -0.865673
C26   C     C_3   0.911807 0.548006 0.681831 -0.795937
C27   C     C_3   0.832382 0.735357 0.884272 -0.805211
C28   C     C_3   0.207212 0.107971 0.575618 -0.780157
C29   C     C_R   0.576458 0.567654 0.222824 -0.233980
C30   C     C_R   0.439716 0.557749 0.095325 0.325906
C31   C     C_R   0.466040 0.521684 0.260535 -0.023127
C32   C     C_R   0.340983 0.498320 0.215958 -0.222573
C33   C     C_R   0.328417 0.515945 0.133506 -0.198487
C34   C     C_R   0.608233 0.066485 0.466805 0.100259
H1    H     H_    0.672985 0.589036 0.256522 0.155333
H2    H     H_    0.652027 0.619327 0.113438 0.148130
H3    H     H_    0.151448 0.332877 0.663730 0.169190
H4    H     H_    0.661048 0.679599 0.733402 0.153893
H5    H     H_    0.254151 0.464052 0.244505 0.160044
H6    H     H_    0.391347 0.406518 0.899844 0.160489
H7    H     H_    0.233199 0.493087 0.098885 0.138980
H8    H     H_    0.391454 0.365848 0.758122 0.146331
H9    H     H_    0.830502 0.088680 0.384015 0.243035
H10   H     H_    0.816929 0.236459 0.432325 0.265098
H11   H     H_    0.949602 0.131542 0.467785 0.232385
H12   H     H_    0.276987 0.879128 0.482891 0.179169
H13   H     H_    0.883554 0.622944 0.636980 0.249638
H14   H     H_    0.825515 0.525605 0.716355 0.248180
H15   H     H_    0.993450 0.584217 0.726029 0.220889
H16   H     H_    0.660862 0.776282 0.940087 0.235710
H17   H     H_    0.883624 0.820241 0.910563 0.240691
H18   H     H_    0.858548 0.728023 0.821856 0.245596
H19   H     H_    0.870628 0.652306 0.919742 0.243020
H20   H     H_    0.165066 0.085286 0.453510 0.212826
H21   H     H_    0.194291 0.008721 0.594079 0.229762
H22   H     H_    0.110013 0.156146 0.580050 0.222201
H23   H     H_    0.764080 0.893550 0.565222 0.179643
H24   H     H_    0.287381 0.153025 0.617053 0.243567
H25   H     H_    0.822906 0.891967 0.462767 0.205711
H26   H     H_    0.765111 0.118848 0.562256 0.161427
H27   H     H_    0.110370 0.622225 0.400350 0.141547
H28   H     H_    0.858608 0.621572 0.399982 0.141677
H29   H     H_    0.912808 0.341122 0.669868 0.157544
H30   H     H_    0.164553 0.506454 0.662200 0.234593
N1    N     N_2   0.533086 0.589235 0.981836 -0.217264
N2    N     N_2   0.427851 0.555221 0.011091 -0.204127
N3    N     N_R   0.142860 0.499130 0.500540 -0.098760
N4    N     N_R   0.857210 0.499170 0.500530 -0.108069
N5    N     N_2   0.687101 0.745391 0.886012 -0.309051
N6    N     N_2   0.242561 0.116548 0.494176 -0.268479
O1    O     O_R   0.614690 0.316790 0.499990 -0.625780
O2    O     O_R   0.385350 0.316760 0.500000 -0.576261
O3    O     O_R   0.627460 0.498860 0.616130 -0.615661
O4    O     O_R   0.398120 0.498820 0.616130 -0.618273
O5    O     O_R   0.614650 0.683240 0.500000 -0.620857
O6    O     O_R   0.385310 0.683210 0.500010 -0.625426
O7    O     O_R   0.601880 0.501180 0.383870 -0.624629
O8    O     O_R   0.372540 0.501140 0.383870 -0.624907
Zn1   Zn    Zn3+2 0.653130 0.500020 0.499990 0.931071
Zn2   Zn    Zn3+2 0.346870 0.499980 0.500010 0.952023

loop_
_geom_bond_atom_site_label_1
_geom_bond_atom_site_label_2
_ccdc_geom_bond_type
C16   O5    A    
C19   C20   A    
C25   H9    S    
O1    Zn1   S    
C28   H22   S    
C9    C25   S    
C7    C8    S    
C10   N3    A    
C1    O1    A    
C23   C29   A    
H16   N5    S    
C17   H30   S    
C5    C6    A    
O8    Zn2   S    
C10   C17   S    
C1    C2    S    
C32   H5    S    
C8    H25   S    
C4    C19   S    
C13   H28   S    
C27   H17   S    
C8    C9    S    
C4    O4    A    
C27   N5    S    
C26   H14   S    
C2    C34   A    
N4    Zn1   S    
O4    Zn2   S    
C21   C22   A    
C25   H10   S    
C28   H21   S    
C11   N3    A    
C24   N5    S    
O7    Zn1   S    
C1    O2    A    
C23   C30   A    
C3    N6    S    
C10   C14   A    
C26   H15   S    
C15   C26   S    
C3    C5    A    
C22   N1    S    
C8    H23   S    
C31   C32   A    
H20   N6    S    
C18   O8    A    
O3    Zn1   S    
C17   H3    S    
C4    O3    A    
C30   N2    S    
C26   H13   S    
N1    N2    D    
C9    C34   S    
C7    C34   A    
C22   C24   A    
C25   H11   S    
C27   H18   S    
C15   C17   S    
C12   C24   A    
C15   H29   S    
C30   C33   A    
C16   O6    A    
C28   N6    S    
N3    Zn2   S    
O6    Zn2   S    
C11   H27   S    
C20   H8    S    
C27   H19   S    
C6    C7    A    
C28   H24   S    
C5    H12   S    
C29   H1    S    
C9    H26   S    
C33   H7    S    
C32   C33   A    
C2    C3    A    
O2    Zn2   S    
C11   C13   A    
C21   H6    S    
C18   O7    A    
C12   C19   A    
C12   H4    S    
C6    C16   S    
C20   C21   A    
C29   C31   A    
C23   H2    S    
C14   N4    A    
C14   C15   S    
C18   C31   S    
O5    Zn1   S    
C13   N4    A    
