data_mof_unit_16503.cif
_audit_creation_date              2012-12-10T17:24:43-0500
_audit_creation_method            fapswitch 2.2
_symmetry_space_group_name_H-M    P1
_symmetry_Int_Tables_number       1
_space_group_crystal_system       triclinic
_cell_length_a                    23.477089
_cell_length_b                    10.861638
_cell_length_c                    9.574167
_cell_angle_alpha                 90.334848
_cell_angle_beta                  89.926968
_cell_angle_gamma                 92.392708
_cell_volume                      2439.23766447

loop_
_atom_site_label
_atom_site_type_symbol
_atom_type_description
_atom_site_fract_x
_atom_site_fract_y
_atom_site_fract_z
_atom_type_partial_charge
C1    C     C_R   0.504519 0.263022 0.500410 0.812464
C2    C     C_R   0.968644 0.455724 0.234764 -0.089571
C3    C     C_R   0.028875 0.454761 0.234864 -0.089687
C4    C     C_R   0.060159 0.484498 0.358654 -0.066724
C5    C     C_R   0.030134 0.516949 0.480793 -0.022199
C6    C     C_R   0.060398 0.548520 0.604489 -0.007238
C7    C     C_R   0.030766 0.581259 0.725465 -0.152200
C8    C     C_R   0.971701 0.581500 0.725619 -0.153825
C9    C     C_R   0.120603 0.482531 0.366302 0.544040
C10   C     C_R   0.119919 0.546649 0.605083 0.550033
C11   C     C_R   0.243426 0.591662 0.412176 -0.082222
C12   C     C_R   0.391114 0.498099 0.500031 0.838105
C13   C     C_R   0.302604 0.586480 0.415080 -0.239656
C14   C     C_R   0.328798 0.499975 0.499229 -0.083270
C15   C     C_R   0.294907 0.416465 0.579209 0.113119
C16   C     C_R   0.235590 0.422023 0.575290 -0.100895
C17   C     C_R   0.209671 0.509538 0.492312 0.303845
C18   C     C_R   0.759123 0.401271 0.478092 -0.082301
C19   C     C_R   0.699747 0.397941 0.481194 -0.224855
C20   C     C_R   0.670790 0.506972 0.499314 -0.056100
C21   C     C_R   0.701568 0.620468 0.514061 -0.052139
C22   C     C_R   0.761159 0.623189 0.510409 -0.121521
C23   C     C_R   0.496792 0.737601 0.501485 0.790489
C24   C     C_R   0.790054 0.513801 0.492317 0.330331
C25   C     C_R   0.535638 0.121702 0.756084 -0.142947
C26   C     C_R   0.528233 0.063643 0.884536 -0.147117
C27   C     C_R   0.499947 0.949077 0.890871 -0.130918
C28   C     C_R   0.484415 0.887296 0.767818 -0.147563
C29   C     C_R   0.497559 0.939364 0.635322 0.107012
C30   C     C_R   0.514756 0.065052 0.631365 0.110189
C31   C     C_R   0.509589 0.129154 0.503351 -0.117569
C32   C     C_R   0.501450 0.063079 0.378592 -0.194724
C33   C     C_R   0.496566 0.935907 0.379922 -0.197499
C34   C     C_R   0.608655 0.500986 0.499867 0.780636
C35   C     C_R   0.494505 0.872279 0.506788 -0.098287
C36   C     C_R   0.575267 0.664926 0.145033 -0.142739
C37   C     C_R   0.611706 0.745999 0.073024 -0.208398
C38   C     C_R   0.611735 0.745824 0.929164 -0.172445
C39   C     C_R   0.575240 0.664748 0.856524 -0.131611
C40   C     C_R   0.536863 0.581304 0.925526 0.184261
C41   C     C_R   0.536873 0.581290 0.075267 0.204151
C42   C     C_R   0.465301 0.421969 0.073582 -0.055228
C43   C     C_R   0.465427 0.421842 0.925580 -0.044819
C44   C     C_R   0.881197 0.547716 0.605650 0.545793
C45   C     C_R   0.878055 0.487910 0.365470 0.537462
C46   C     C_R   0.938536 0.486655 0.358398 -0.065325
C47   C     C_R   0.969811 0.517715 0.480770 -0.021872
C48   C     C_R   0.940790 0.549435 0.604655 -0.006821
Cu1   Cu    Cu3+1 0.500000 0.499990 0.640660 0.946438
Cu2   Cu    Cu3+1 0.500000 0.500010 0.359340 0.945821
H1    H     H_    0.676312 0.310395 0.469538 0.141481
H2    H     H_    0.785287 0.710065 0.520538 0.149113
H3    H     H_    0.498838 0.109612 0.279155 0.161451
H4    H     H_    0.558907 0.209635 0.755949 0.161948
H5    H     H_    0.542985 0.109187 0.979485 0.137738
H6    H     H_    0.491124 0.906642 0.991080 0.138077
H7    H     H_    0.460399 0.801181 0.779621 0.171029
H8    H     H_    0.493443 0.887490 0.280786 0.161247
H9    H     H_    0.436897 0.357984 0.128632 0.152196
H10   H     H_    0.579486 0.671966 0.255049 0.206668
H11   H     H_    0.640351 0.809057 0.129617 0.168025
H12   H     H_    0.640292 0.808951 0.873075 0.176269
H13   H     H_    0.579027 0.672138 0.746592 0.211253
H14   H     H_    0.437359 0.357383 0.869952 0.176663
H15   H     H_    0.053113 0.606452 0.821009 0.193833
H16   H     H_    0.950349 0.606864 0.821277 0.193903
H17   H     H_    0.223719 0.659453 0.347637 0.158216
H18   H     H_    0.328087 0.650967 0.352693 0.162253
H19   H     H_    0.209401 0.357049 0.635196 0.171901
H20   H     H_    0.781212 0.316464 0.464477 0.149264
N1    N     N_R   0.851251 0.516926 0.487637 -0.466634
N2    N     N_R   0.148609 0.513447 0.487662 -0.464966
N3    N     N_R   0.500540 0.501210 0.147910 -0.202526
N4    N     N_R   0.500560 0.501290 0.852040 -0.208246
O1    O     O_R   0.500000 0.319640 0.618810 -0.582489
O2    O     O_2   0.845860 0.461251 0.251887 -0.515750
O3    O     O_2   0.151513 0.448518 0.254834 -0.510730
O4    O     O_2   0.149114 0.578240 0.722216 -0.514572
O5    O     O_R   0.500000 0.319660 0.381240 -0.581682
O6    O     O_R   0.417880 0.499950 0.618810 -0.555272
O7    O     O_R   0.417880 0.499980 0.381240 -0.573763
O8    O     O_R   0.500000 0.680340 0.618760 -0.615826
O9    O     O_R   0.500000 0.680360 0.381190 -0.603884
O10   O     O_R   0.582120 0.500020 0.618760 -0.596718
O11   O     O_R   0.582120 0.500050 0.381190 -0.589715
O12   O     O_2   0.853190 0.575299 0.724301 -0.518165
C49   C     C_1   0.938813 0.423576 0.105743 0.335863
N5    N     N_1   0.915353 0.397768 0.002713 -0.217006
C50   C     C_1   0.672802 0.734688 0.530433 0.187263
N6    N     N_1   0.649673 0.826092 0.543387 -0.307540
C51   C     C_1   0.057477 0.423146 0.105500 0.338646
N7    N     N_1   0.079956 0.397813 0.002197 -0.216359
I1    I     I_    0.329582 0.272997 0.697609 -0.356362

loop_
_geom_bond_atom_site_label_1
_geom_bond_atom_site_label_2
_ccdc_geom_bond_type
C18   H20   S    
C49   N5    T    
C8    H16   S    
C33   H8    S    
C23   O8    A    
C45   N1    A    
C19   C20   A    
C9    N2    A    
Cu2   O5    S    
C10   O4    S    
C7    C8    A    
C21   C50   S    
C28   H7    S    
C2    C46   A    
C5    C47   A    
C26   C27   A    
C37   C38   A    
C23   O9    A    
C45   O2    S    
C18   C24   A    
C5    C6    A    
Cu1   O10   S    
C36   C37   A    
C30   C31   A    
C15   C16   A    
C1    C31   S    
C44   N1    A    
C3    C51   S    
C18   C19   A    
Cu2   O11   S    
C11   C17   A    
C31   C32   A    
C16   C17   A    
Cu2   O9    S    
Cu1   O1    S    
C20   C34   S    
C43   N4    A    
C21   C22   A    
C26   H5    S    
C36   C41   A    
C34   O10   A    
C44   O12   S    
C11   H17   S    
C43   H14   S    
C1    O1    A    
C25   H4    S    
Cu2   N3    S    
C51   N7    T    
C27   H6    S    
C25   C26   A    
C45   C46   A    
C34   O11   A    
Cu1   O8    S    
C8    C48   A    
C15   I1    S    
C29   C30   A    
C7    H15   S    
C47   C48   A    
C2    C49   S    
C9    O3    S    
C40   C41   A    
C12   C14   S    
C23   C35   S    
C1    O5    A    
C22   C24   A    
C42   C43   A    
C3    C4    A    
C32   H3    S    
C39   C40   A    
C22   H2    S    
C25   C30   A    
C46   C47   A    
C28   C29   A    
C42   N3    A    
Cu1   N4    S    
C16   H19   S    
C4    C5    A    
C36   H10   S    
C42   H9    S    
C6    C10   A    
C37   H11   S    
C6    C7    A    
C39   H13   S    
C29   C35   A    
Cu1   O6    S    
C32   C33   A    
C2    C3    A    
C4    C9    A    
C11   C13   A    
C38   C39   A    
C12   O6    A    
C33   C35   A    
C40   N4    A    
C12   O7    A    
C41   N3    A    
C19   H1    S    
C20   C21   A    
Cu2   O7    S    
C17   N2    S    
Cu1   Cu2   S    
C27   C28   A    
C14   C15   A    
C50   N6    T    
C13   C14   A    
C44   C48   A    
C24   N1    S    
C38   H12   S    
C13   H18   S    
C10   N2    A    
