data_mof_unit_36533.cif
_audit_creation_date              2012-12-10T17:50:40-0500
_audit_creation_method            fapswitch 2.2
_symmetry_space_group_name_H-M    P1
_symmetry_Int_Tables_number       1
_space_group_crystal_system       triclinic
_cell_length_a                    15.732351
_cell_length_b                    10.720088
_cell_length_c                    9.911234
_cell_angle_alpha                 90.672065
_cell_angle_beta                  90.014909
_cell_angle_gamma                 91.84447
_cell_volume                      1670.56995627

loop_
_atom_site_label
_atom_site_type_symbol
_atom_type_description
_atom_site_fract_x
_atom_site_fract_y
_atom_site_fract_z
_atom_type_partial_charge
C1    C     C_R   0.507120 0.260709 0.499966 0.861260
C2    C     C_R   0.546974 0.065909 0.869327 0.075117
C3    C     C_R   0.501220 0.952970 0.877848 -0.194496
C4    C     C_R   0.338047 0.499510 0.499957 0.887113
C5    C     C_R   0.475039 0.890372 0.760037 -0.173404
C6    C     C_R   0.494201 0.940546 0.631218 0.104729
C7    C     C_R   0.523778 0.064426 0.625281 0.076266
C8    C     C_R   0.514314 0.127594 0.501654 -0.111401
C9    C     C_R   0.495612 0.062197 0.382160 -0.195703
C10   C     C_R   0.485075 0.935150 0.384259 -0.197596
C11   C     C_R   0.486012 0.873058 0.507316 -0.127874
C12   C     C_3   0.083131 0.497606 0.499746 0.148976
C13   C     C_R   0.391057 0.332687 0.138122 -0.195723
C14   C     C_R   0.338516 0.247853 0.067037 0.018840
C15   C     C_R   0.338059 0.248660 0.927121 -0.235729
C16   C     C_R   0.493268 0.739602 0.501755 0.893304
C17   C     C_R   0.390187 0.333450 0.858095 -0.155361
C18   C     C_R   0.445930 0.417959 0.926770 0.140819
C19   C     C_R   0.446151 0.417763 0.071220 0.139240
C20   C     C_R   0.552309 0.578481 0.072882 -0.031229
C21   C     C_R   0.552569 0.578017 0.928941 -0.049312
C22   C     C_R   0.661945 0.500269 0.500042 0.919097
C23   C     C_3   0.974300 0.568006 0.598953 0.120154
C24   C     C_3   0.969881 0.378487 0.516909 -0.215254
C25   C     C_3   0.027280 0.422827 0.397710 -0.201875
C26   C     C_1   0.249177 0.498732 0.499886 -0.179288
C27   C     C_1   0.750748 0.498698 0.500084 -0.162738
C28   C     C_3   0.027954 0.452416 0.619043 -0.155050
C29   C     C_1   0.608738 0.663282 0.146698 0.242908
C30   C     C_1   0.284478 0.160023 0.138498 0.136786
C31   C     C_1   0.610230 0.660790 0.857012 0.258173
C32   C     C_1   0.578868 0.127913 0.989583 0.135977
C33   C     C_3   0.916746 0.495525 0.500210 0.169213
C34   C     C_3   0.030940 0.615744 0.482800 -0.220752
C35   C     C_3   0.973581 0.539353 0.384574 0.123710
C36   C     C_1   0.173914 0.498099 0.499801 -0.054979
C37   C     C_1   0.825944 0.497065 0.500152 -0.038671
C38   C     C_R   0.558806 0.121233 0.743639 -0.191719
H1    H     H_    0.050847 0.364539 0.313189 0.148462
H2    H     H_    0.052136 0.418451 0.716767 0.140851
H3    H     H_    0.488360 0.108949 0.286765 0.183975
H4    H     H_    0.595733 0.208076 0.739430 0.165359
H5    H     H_    0.994476 0.605843 0.196220 0.186771
H6    H     H_    0.906815 0.513668 0.210616 0.191142
H7    H     H_    0.996489 0.685450 0.757919 0.182190
H8    H     H_    0.910639 0.718298 0.666045 0.193853
H9    H     H_    0.487444 0.911794 0.975103 0.135847
H10   H     H_    0.437639 0.805009 0.772212 0.169752
H11   H     H_    0.475874 0.885763 0.289055 0.170776
H12   H     H_    0.387028 0.329637 0.245190 0.206573
H13   H     H_    0.296843 0.183952 0.870807 0.155300
H14   H     H_    0.384791 0.329861 0.751147 0.213378
H15   H     H_    0.943368 0.282281 0.530791 0.152636
H16   H     H_    0.056621 0.712404 0.468898 0.144272
N1    N     N_R   0.499210 0.498800 0.142780 -0.137076
N2    N     N_R   0.499180 0.498720 0.857170 -0.146963
N3    N     N_1   0.654187 0.731635 0.205149 -0.195532
N4    N     N_1   0.241159 0.089459 0.196049 -0.213422
N5    N     N_1   0.656756 0.727376 0.800060 -0.193786
N6    N     N_3   0.941795 0.586437 0.257589 -0.445270
N7    N     N_3   0.943309 0.645279 0.709039 -0.449567
N8    N     N_1   0.604625 0.178107 0.085920 -0.199312
O1    O     O_R   0.500000 0.316780 0.614690 -0.651963
O2    O     O_R   0.499990 0.316750 0.385360 -0.634744
O3    O     O_R   0.376780 0.500000 0.614650 -0.638583
O4    O     O_R   0.376770 0.499980 0.385310 -0.632860
O5    O     O_R   0.500010 0.683250 0.614640 -0.627678
O6    O     O_R   0.500000 0.683220 0.385310 -0.616277
O7    O     O_R   0.623230 0.500020 0.614690 -0.612377
O8    O     O_R   0.623220 0.500000 0.385350 -0.600658
Zn1   Zn    Zn3+2 0.500010 0.500020 0.653130 0.935296
Zn2   Zn    Zn3+2 0.499990 0.499980 0.346870 0.956112

loop_
_geom_bond_atom_site_label_1
_geom_bond_atom_site_label_2
_ccdc_geom_bond_type
C1    C8    S    
C7    C8    A    
C21   C31   S    
C12   C28   S    
H6    N6    S    
C38   H4    S    
C4    O3    A    
C28   H2    S    
C31   N5    T    
C2    C32   S    
C34   C35   S    
C3    H9    S    
O7    Zn1   S    
O4    Zn2   S    
C8    C9    A    
C23   C33   S    
C16   O6    A    
C15   H13   S    
C12   C36   S    
C9    C10   A    
C22   O7    A    
N1    Zn2   S    
C18   N2    A    
C23   C34   S    
C13   C14   A    
C14   C30   S    
C20   N1    A    
C1    O1    A    
C17   H14   S    
C20   C29   S    
C5    H10   S    
C13   C19   A    
H8    N7    S    
C24   C25   S    
C6    C11   A    
C18   C19   A    
C24   H15   S    
O3    Zn1   S    
C33   C37   S    
C35   N6    S    
C11   C16   S    
C2    C38   A    
O6    Zn2   S    
N2    Zn1   S    
C17   C18   A    
C16   O5    A    
C23   C28   S    
H5    N6    S    
C25   C35   S    
C26   C36   T    
C29   N3    T    
C34   H16   S    
C22   C27   S    
C12   C34   S    
C1    O2    A    
C19   N1    A    
C15   C17   A    
C24   C28   S    
O1    Zn1   S    
C3    C5    A    
C21   N2    A    
C4    C26   S    
C6    C7    A    
C9    H3    S    
C24   C33   S    
C12   C25   S    
C2    C3    A    
C32   N8    T    
C25   H1    S    
C4    O4    A    
C5    C6    A    
C27   C37   T    
C30   N4    T    
H7    N7    S    
C33   C35   S    
C7    C38   A    
O5    Zn1   S    
O2    Zn2   S    
C10   C11   A    
C13   H12   S    
C23   N7    S    
C20   C21   A    
C14   C15   A    
O8    Zn2   S    
C10   H11   S    
C22   O8    A    
