data_mof_unit_49081.cif
_audit_creation_date              2012-12-10T21:00:44-0500
_audit_creation_method            fapswitch 2.2
_symmetry_space_group_name_H-M    P1
_symmetry_Int_Tables_number       1
_space_group_crystal_system       triclinic
_cell_length_a                    18.091788
_cell_length_b                    18.173023
_cell_length_c                    18.342128
_cell_angle_alpha                 120.035535
_cell_angle_beta                  89.815435
_cell_angle_gamma                 119.899445
_cell_volume                      4275.23680879

loop_
_atom_site_label
_atom_site_type_symbol
_atom_type_description
_atom_site_fract_x
_atom_site_fract_y
_atom_site_fract_z
_atom_type_partial_charge
C1    C     C_R   0.109775 0.220131 0.609841 0.787632
C2    C     C_R   0.890105 0.779962 0.390235 0.812872
C3    C     C_3   0.946075 0.405315 0.427131 0.211665
C4    C     C_3   0.054461 0.595454 0.572681 0.206645
C5    C     C_3   0.411554 0.962925 0.981640 -0.206267
C6    C     C_3   0.588805 0.037268 0.017983 -0.172330
C7    C     C_3   0.482331 0.034695 0.959365 0.275913
C8    C     C_3   0.518054 0.965423 0.040230 0.275343
C9    C     C_3   0.550217 0.103238 0.052600 -0.017518
C10   C     C_3   0.450038 0.896826 0.946997 -0.039535
C11   C     C_3   0.480654 0.032047 0.076643 -0.278421
C12   C     C_3   0.519743 0.968047 0.922974 -0.284288
C13   C     C_3   0.441867 0.516806 0.477983 -0.164804
C14   C     C_3   0.557966 0.483237 0.521880 -0.164604
C15   C     C_3   0.446920 0.424034 0.414552 -0.104876
C16   C     C_3   0.552949 0.576030 0.585320 -0.104210
C17   C     C_3   0.550116 0.499436 0.448685 0.054600
C18   C     C_3   0.449763 0.500636 0.551209 0.053728
C19   C     C_3   0.545910 0.592117 0.511146 -0.211656
C20   C     C_3   0.453943 0.407943 0.488722 -0.212298
C21   C     C_R   0.087944 0.161367 0.835220 -0.131993
C22   C     C_R   0.922480 0.854341 0.168044 -0.134971
C23   C     C_R   0.392781 0.780996 0.888343 0.785803
C24   C     C_R   0.607267 0.219026 0.111501 0.803825
C25   C     C_R   0.079166 0.114798 0.744842 -0.164441
C26   C     C_R   0.932523 0.902978 0.258694 -0.193172
C27   C     C_R   0.014601 0.099980 0.686915 0.110453
C28   C     C_R   0.984641 0.901297 0.313690 0.115605
C29   C     C_R   0.957812 0.131574 0.720481 0.247458
C30   C     C_R   0.028727 0.851892 0.277058 0.277879
C31   C     C_R   0.966279 0.176652 0.811242 -0.184186
C32   C     C_R   0.017877 0.803150 0.185699 -0.187257
C33   C     C_R   0.031512 0.192129 0.868346 -0.155994
C34   C     C_R   0.964952 0.804368 0.131559 -0.148023
C35   C     C_R   0.956230 0.943918 0.535736 -0.259801
C36   C     C_R   0.040794 0.056446 0.464333 -0.278978
C37   C     C_R   0.947035 0.892419 0.445043 -0.030051
C38   C     C_R   0.051289 0.107888 0.555166 -0.031174
C39   C     C_R   0.990085 0.949379 0.408734 0.025548
C40   C     C_R   0.007592 0.051137 0.591461 0.026971
C41   C     C_R   0.601864 0.523746 0.746819 -0.206288
C42   C     C_R   0.396472 0.474456 0.252298 -0.207996
C43   C     C_R   0.554008 0.496319 0.798838 -0.178756
C44   C     C_R   0.444998 0.503080 0.201119 -0.180717
C45   C     C_R   0.109226 0.499026 0.888025 0.801817
C46   C     C_R   0.890067 0.500106 0.111225 0.804521
C47   C     C_R   0.585033 0.568088 0.891504 0.133267
C48   C     C_R   0.415005 0.431956 0.108425 0.134541
C49   C     C_R   0.664281 0.668125 0.931455 -0.266091
C50   C     C_R   0.336252 0.331480 0.067623 -0.266788
C51   C     C_R   0.713519 0.696195 0.879887 0.191637
C52   C     C_R   0.286419 0.302256 0.118300 0.193428
C53   C     C_R   0.682323 0.622865 0.786432 0.278085
C54   C     C_R   0.316455 0.374755 0.211751 0.276833
C55   C     C_R   0.589885 0.537661 0.006479 -0.257211
C56   C     C_R   0.410443 0.463330 0.994138 -0.260687
C57   C     C_R   0.550816 0.502413 0.058038 -0.054164
C58   C     C_R   0.449405 0.498252 0.942384 -0.053736
C59   C     C_R   0.460134 0.465216 0.052631 0.014925
C60   C     C_R   0.540182 0.535709 0.947922 0.015297
C61   C     C_R   0.055200 0.744694 0.910273 0.292381
C62   C     C_R   0.923303 0.250137 0.090903 0.291255
C63   C     C_R   0.055967 0.698597 0.952772 -0.233265
C64   C     C_R   0.926486 0.296201 0.046977 -0.142627
C65   C     C_R   0.004376 0.590283 0.906452 0.109687
C66   C     C_R   0.990257 0.402985 0.088499 0.073400
C67   C     C_R   0.392486 0.500213 0.607905 0.766844
C68   C     C_R   0.607494 0.499831 0.392079 0.764157
C69   C     C_R   0.951262 0.527210 0.816926 -0.095086
C70   C     C_R   0.051079 0.464096 0.174263 -0.116031
C71   C     C_R   0.949225 0.572257 0.774441 -0.165159
C72   C     C_R   0.047910 0.418955 0.218376 -0.136657
C73   C     C_R   0.000379 0.680127 0.820608 -0.175082
C74   C     C_R   0.984367 0.312734 0.177172 -0.190402
C75   C     C_R   0.951829 0.542976 0.009002 -0.279845
C76   C     C_R   0.044046 0.451611 0.986851 -0.268981
C77   C     C_R   0.946040 0.498161 0.054221 -0.054656
C78   C     C_R   0.050903 0.497874 0.942654 -0.058233
C79   C     C_R   0.992244 0.451134 0.042542 0.007008
C80   C     C_R   0.003490 0.543272 0.953145 0.007344
C81   C     C_R   0.393922 0.498403 0.887055 0.797355
C82   C     C_R   0.606111 0.501709 0.113021 0.800627
C83   C     C_R   0.109998 0.501213 0.608021 0.883066
C84   C     C_R   0.890251 0.499060 0.391943 0.873200
C85   C     C_3   0.050127 0.468962 0.455111 -0.309991
C86   C     C_3   0.950358 0.531589 0.544658 -0.343343
C87   C     C_3   0.052206 0.564545 0.477580 0.016311
C88   C     C_3   0.948314 0.435967 0.522083 -0.009908
C89   C     C_3   0.948295 0.499495 0.448315 -0.061442
C90   C     C_3   0.052342 0.501208 0.551554 -0.066402
H1    H     H_    0.038189 0.227844 0.938306 0.142596
H2    H     H_    0.956583 0.766322 0.061197 0.141358
H3    H     H_    0.138498 0.173467 0.879566 0.134580
H4    H     H_    0.881159 0.854817 0.125973 0.135085
H5    H     H_    0.123236 0.091057 0.719982 0.131848
H6    H     H_    0.898366 0.940515 0.285886 0.139234
H7    H     H_    0.922556 0.200273 0.837603 0.127869
H8    H     H_    0.050638 0.764328 0.156733 0.126559
H9    H     H_    0.922558 0.900657 0.563708 0.168637
H10   H     H_    0.074429 0.099693 0.436331 0.173918
H11   H     H_    0.576219 0.467316 0.675292 0.144304
H12   H     H_    0.421271 0.530345 0.323861 0.144751
H13   H     H_    0.493500 0.418512 0.767032 0.121690
H14   H     H_    0.505160 0.581246 0.233562 0.122330
H15   H     H_    0.689050 0.723562 0.003228 0.139696
H16   H     H_    0.312291 0.276551 0.995823 0.137481
H17   H     H_    0.090650 0.443073 0.418609 0.150460
H18   H     H_    0.910068 0.557842 0.581247 0.157469
H19   H     H_    0.659079 0.563768 0.009353 0.175957
H20   H     H_    0.341217 0.437128 0.991197 0.175084
H21   H     H_    0.995827 0.712457 0.786280 0.142115
H22   H     H_    0.983021 0.279155 0.212380 0.144843
H23   H     H_    0.096756 0.747012 0.022063 0.116014
H24   H     H_    0.878139 0.250075 0.981725 0.123237
H25   H     H_    0.910682 0.443462 0.780623 0.141266
H26   H     H_    0.100333 0.546622 0.207043 0.142183
H27   H     H_    0.906754 0.523579 0.705945 0.150123
H28   H     H_    0.094725 0.466416 0.284724 0.144693
H29   H     H_    0.914826 0.576915 0.016032 0.173656
H30   H     H_    0.080584 0.417098 0.979489 0.175902
H31   H     H_    0.339025 0.932633 0.966299 0.163691
H32   H     H_    0.661513 0.068238 0.033298 0.172330
H33   H     H_    0.465798 0.058389 0.140322 0.144630
H34   H     H_    0.534649 0.941646 0.859322 0.142565
H35   H     H_    0.405214 0.360961 0.343537 0.157433
H36   H     H_    0.594661 0.639126 0.656333 0.156971
H37   H     H_    0.393471 0.531306 0.462115 0.142152
H38   H     H_    0.606198 0.468437 0.537463 0.142891
H39   H     H_    0.584639 0.667477 0.519073 0.129900
H40   H     H_    0.415222 0.332584 0.480799 0.130393
O1    O     O_3   0.251620 0.500000 0.748430 -0.482583
O2    O     O_3   0.748380 0.500000 0.251570 -0.485997
O3    O     O_R   0.134680 0.560740 0.864590 -0.628159
O4    O     O_R   0.865320 0.439260 0.135410 -0.626159
O5    O     O_R   0.306670 0.439270 0.571150 -0.645254
O6    O     O_R   0.693330 0.560730 0.428850 -0.646357
O7    O     O_R   0.135450 0.268370 0.694460 -0.640094
O8    O     O_R   0.864550 0.731630 0.305540 -0.642683
O9    O     O_R   0.429670 0.731610 0.863510 -0.643487
O10   O     O_R   0.570330 0.268390 0.136490 -0.642692
O11   O     O_R   0.134680 0.268390 0.572240 -0.642698
O12   O     O_R   0.865320 0.731610 0.427760 -0.643018
O13   O     O_R   0.306670 0.731630 0.863510 -0.649674
O14   O     O_R   0.693330 0.268370 0.136490 -0.649424
O15   O     O_R   0.135450 0.439270 0.865360 -0.641710
O16   O     O_R   0.864550 0.560730 0.134640 -0.647623
O17   O     O_R   0.429670 0.560710 0.692610 -0.647271
O18   O     O_R   0.570330 0.439290 0.307390 -0.648998
O19   O     O_R   0.308540 0.439240 0.865360 -0.651026
O20   O     O_R   0.691460 0.560760 0.134640 -0.651456
O21   O     O_R   0.133580 0.439310 0.571150 -0.638801
O22   O     O_R   0.866420 0.560690 0.428850 -0.641575
O23   O     O_R   0.430770 0.560690 0.864590 -0.637233
O24   O     O_R   0.569230 0.439310 0.135410 -0.634300
O25   O     O_R   0.133580 0.560760 0.692610 -0.644585
O26   O     O_R   0.866420 0.439240 0.307390 -0.623721
Zn1   Zn    Zn3+2 0.207400 0.586780 0.791530 0.981686
Zn2   Zn    Zn3+2 0.792600 0.413220 0.208470 0.998982
Zn3   Zn    Zn3+2 0.208510 0.413230 0.792630 0.969950
Zn4   Zn    Zn3+2 0.791490 0.586770 0.207370 0.975817
Zn5   Zn    Zn3+2 0.383150 0.586740 0.791530 0.954880
Zn6   Zn    Zn3+2 0.616850 0.413260 0.208470 0.958906
Zn7   Zn    Zn3+2 0.207400 0.413250 0.618010 0.969007
Zn8   Zn    Zn3+2 0.792600 0.586750 0.381990 0.971300
C91   C     C_2   0.112613 0.636525 0.453671 0.344339
H41   H     H_    0.185135 0.677366 0.478888 0.062435
O27   O     O_2   0.081034 0.649583 0.406134 -0.592596
C92   C     C_2   0.887751 0.362072 0.544151 0.333348
H42   H     H_    0.815254 0.321589 0.519247 0.053937
O28   O     O_2   0.919192 0.346933 0.589742 -0.603317
N1    N     N_2   0.890445 0.114944 0.662724 -0.337539
H43   H     H_    0.826906 0.073288 0.665251 0.210656
C93   C     C_3   0.910506 0.208162 0.673447 -0.705528
H44   H     H_    0.856840 0.187355 0.622964 0.254002
H45   H     H_    0.975825 0.247638 0.663465 0.252063
H46   H     H_    0.913305 0.262415 0.740950 0.215342
N2    N     N_2   0.080702 0.847402 0.330776 -0.309084
H47   H     H_    0.079296 0.780910 0.296447 0.231870
C94   C     C_3   0.171669 0.939917 0.382701 -0.817456
H48   H     H_    0.205902 0.931560 0.425301 0.253240
H49   H     H_    0.171135 0.009181 0.426784 0.250546
H50   H     H_    0.210449 0.951577 0.337873 0.231253
N3    N     N_2   0.728910 0.648993 0.731389 -0.313685
H51   H     H_    0.770087 0.727172 0.758281 0.247584
C95   C     C_3   0.770670 0.595463 0.689092 -0.851361
H52   H     H_    0.800343 0.616383 0.643793 0.248634
H53   H     H_    0.720366 0.510049 0.649141 0.236903
H54   H     H_    0.825023 0.618388 0.740236 0.246996
N4    N     N_2   0.269396 0.347027 0.265858 -0.313412
H55   H     H_    0.229048 0.268641 0.238322 0.249140
C96   C     C_3   0.225910 0.398501 0.307534 -0.847926
H56   H     H_    0.197748 0.378130 0.353604 0.249340
H57   H     H_    0.169995 0.372939 0.256070 0.245536
H58   H     H_    0.274767 0.484122 0.346651 0.236449
N5    N     N_2   0.794643 0.797607 0.922539 -0.331827
H59   H     H_    0.796915 0.853916 0.981322 0.219060
C97   C     C_3   0.877886 0.803990 0.927737 -0.781053
H60   H     H_    0.924443 0.861797 0.997646 0.233697
H61   H     H_    0.911582 0.829575 0.886386 0.253677
H62   H     H_    0.865926 0.728284 0.904398 0.246604
N6    N     N_2   0.205765 0.200436 0.074668 -0.320925
H63   H     H_    0.204907 0.144927 0.016456 0.221215
C98   C     C_3   0.122095 0.192846 0.066840 -0.804951
H64   H     H_    0.079049 0.138548 0.995735 0.226258
H65   H     H_    0.133755 0.269140 0.093284 0.247349
H66   H     H_    0.084967 0.162139 0.103995 0.252622
N7    N     N_2   0.106509 0.855197 0.959724 -0.307676
H67   H     H_    0.146354 0.894922 0.023981 0.220845
C99   C     C_3   0.149783 0.901890 0.913718 -0.835955
H68   H     H_    0.197405 0.987203 0.962592 0.234668
H69   H     H_    0.098887 0.887284 0.865373 0.246555
H70   H     H_    0.188204 0.870930 0.878923 0.243714
N8    N     N_2   0.855957 0.142786 0.051082 -0.317083
H71   H     H_    0.850722 0.120236 0.093574 0.217422
C100  C     C_3   0.853920 0.070817 0.964842 -0.834158
H72   H     H_    0.840346 0.084070 0.915114 0.243928
H73   H     H_    0.798959 0.990111 0.940616 0.248428
H74   H     H_    0.919025 0.078898 0.970191 0.246754
N9    N     N_2   0.885056 0.302049 0.346379 -0.293625
H75   H     H_    0.818322 0.276355 0.336158 0.211011
C101  C     C_3   0.899787 0.225597 0.333065 -0.787457
H76   H     H_    0.854915 0.152282 0.266091 0.225431
H77   H     H_    0.884214 0.209632 0.384200 0.252900
H78   H     H_    0.970741 0.252837 0.336460 0.246005
N10   N     N_2   0.114745 0.699438 0.653036 -0.319242
H79   H     H_    0.118916 0.701076 0.709867 0.254677
C102  C     C_3   0.100731 0.775125 0.662695 -0.799075
H80   H     H_    0.154308 0.853172 0.722443 0.233856
H81   H     H_    0.034032 0.755818 0.671138 0.236912
H82   H     H_    0.104283 0.778115 0.603768 0.270170
N11   N     N_2   0.465158 0.073669 0.914057 -0.313501
H83   H     H_    0.450575 0.027753 0.846045 0.220094
C103  C     C_3   0.403778 0.103820 0.938336 -0.790853
H84   H     H_    0.408622 0.149673 0.913011 0.240246
H85   H     H_    0.420561 0.152171 0.011767 0.275237
H86   H     H_    0.333421 0.033714 0.908033 0.223757
N12   N     N_2   0.535573 0.927294 0.086227 -0.309943
H87   H     H_    0.477661 0.872984 0.087410 0.211507
C104  C     C_3   0.598775 0.899564 0.064200 -0.785155
H88   H     H_    0.605819 0.870321 0.102472 0.232105
H89   H     H_    0.666281 0.968695 0.082589 0.235862
H90   H     H_    0.574845 0.837973 0.992017 0.267826

loop_
_geom_bond_atom_site_label_1
_geom_bond_atom_site_label_2
_ccdc_geom_bond_type
C19   H39   S    
C38   C40   A    
N1    H43   S    
C63   C65   A    
C91   H41   S    
N5    C97   S    
C54   N4    S    
O25   Zn1   S    
C41   C43   A    
N6    H63   S    
C104  H88   S    
C76   C79   A    
C98   H64   S    
N7    C99   S    
C6    C9    S    
O2    Zn8   S    
C44   H14   S    
C81   O23   A    
C47   C49   A    
C4    C87   S    
C46   O16   A    
C8    N12   S    
C24   O10   A    
C66   C79   S    
C98   H65   S    
C76   H30   S    
O20   Zn4   S    
C13   C18   S    
C45   O15   A    
C23   O9    A    
C35   C37   A    
C76   C78   A    
C5    C11   S    
C101  H78   S    
C53   N3    S    
O12   Zn8   S    
O15   Zn3   S    
C86   C88   S    
C95   H53   S    
C83   O25   A    
O1    Zn5   S    
C58   C60   A    
C5    H31   S    
C65   C69   A    
C99   H70   S    
C14   H38   S    
C27   C29   A    
C99   H68   S    
C97   H61   S    
C52   N6    S    
C49   C51   A    
O1    Zn1   S    
C62   C64   A    
N10   C102  S    
C47   C60   S    
O2    Zn6   S    
C87   C89   S    
O26   Zn2   S    
C32   H8    S    
C28   C30   A    
N2    C94   S    
C50   C52   A    
C103  H85   S    
O13   Zn1   S    
C45   C78   S    
C21   C33   A    
O1    Zn7   S    
C75   C80   A    
C4    C90   S    
C68   O18   A    
C9    C11   S    
C94   H50   S    
C92   O28   D    
C91   O27   D    
C65   C80   S    
N12   H87   S    
C55   H19   S    
C22   H4    S    
C14   C17   S    
C23   O13   A    
C15   C20   S    
C42   C44   A    
N6    C98   S    
C35   H9    S    
C42   H12   S    
C6    C12   S    
C56   H20   S    
C26   C28   A    
C52   C54   A    
C73   H21   S    
C83   O21   A    
N8    C100  S    
C26   H6    S    
C7    C12   S    
C22   C34   A    
C98   H66   S    
C11   H33   S    
C69   C71   A    
O7    Zn3   S    
C85   C87   S    
N7    H67   S    
C2    O8    A    
C14   C20   S    
O9    Zn5   S    
C74   H22   S    
C75   H29   S    
C72   C74   A    
O17   Zn5   S    
C100  H74   S    
N9    H75   S    
C5    C7    S    
C71   H27   S    
C17   C19   S    
C95   H54   S    
C49   H15   S    
N5    H59   S    
C28   C39   S    
C88   C92   S    
C18   C67   S    
C93   H44   S    
C36   C39   A    
O2    Zn2   S    
C96   H56   S    
O23   Zn5   S    
C51   C53   A    
C64   C66   A    
C97   H62   S    
C67   O5    A    
C100  H72   S    
C96   H57   S    
N3    H51   S    
C101  H76   S    
C13   H37   S    
O8    Zn4   S    
N9    C101  S    
N3    C95   S    
N1    C93   S    
O10   Zn6   S    
C102  H80   S    
C12   H34   S    
C13   C15   S    
N8    H71   S    
C27   C40   S    
C31   C33   A    
N10   H79   S    
C77   C79   A    
N4    H55   S    
C104  H89   S    
C55   C57   A    
O2    Zn4   S    
C4    N10   S    
C29   N1    S    
C68   O6    A    
O1    Zn3   S    
C15   H35   S    
O19   Zn3   S    
C41   C53   A    
C82   O20   A    
C93   H45   S    
C10   C12   S    
C1    C38   S    
C61   N7    S    
C84   O22   A    
C8    C10   S    
C92   H42   S    
C102  H81   S    
C88   C90   S    
C25   H5    S    
O21   Zn7   S    
N11   C103  S    
N12   C104  S    
C67   O17   A    
C2    O12   A    
C62   N8    S    
C14   C16   S    
C3    C85   S    
C58   C81   S    
C57   C59   A    
C84   C89   S    
C6    H32   S    
O14   Zn2   S    
C36   C38   A    
C78   C80   A    
C4    C86   S    
C1    O7    A    
C48   C59   S    
C71   C73   A    
O6    Zn8   S    
C93   H46   S    
C41   H11   S    
C15   C17   S    
C83   C90   S    
C21   C25   A    
C69   H25   S    
C17   C68   S    
C61   C73   A    
C3    C88   S    
O5    Zn7   S    
O24   Zn6   S    
C61   C63   A    
C86   H18   S    
C20   H40   S    
O22   Zn8   S    
C86   C89   S    
C46   C77   S    
C6    C8    S    
C85   C90   S    
C36   H10   S    
C9    C24   S    
O11   Zn7   S    
C18   C20   S    
C46   O4    A    
C31   H7    S    
C10   C23   S    
C25   C27   A    
C45   O3    A    
C56   C59   A    
C3    C89   S    
C101  H77   S    
C70   H26   S    
C16   C18   S    
C85   H17   S    
C33   H1    S    
C35   C40   A    
C96   H58   S    
O18   Zn6   S    
C5    C10   S    
C29   C31   A    
C51   N5    S    
C42   C54   A    
C30   C32   A    
C84   O26   A    
C2    C37   S    
C95   H52   S    
C66   C70   A    
C21   H3    S    
C24   O14   A    
C8    C11   S    
C81   O19   A    
C7    N11   S    
C48   C50   A    
C99   H69   S    
C30   N2    S    
C56   C58   A    
C63   H23   S    
C104  H90   S    
O3    Zn1   S    
O4    Zn2   S    
C97   H60   S    
C103  H86   S    
C43   H13   S    
C16   H36   S    
C100  H73   S    
C1    O11   A    
C87   C91   S    
C94   H48   S    
C82   O24   A    
C7    C9    S    
C37   C39   A    
C102  H82   S    
O16   Zn4   S    
C64   H24   S    
C3    N9    S    
N2    H47   S    
C22   C26   A    
C75   C77   A    
C72   H28   S    
N11   H83   S    
C50   H16   S    
C13   C19   S    
C57   C82   S    
C62   C74   A    
C70   C72   A    
N4    C96   S    
C55   C60   A    
C43   C47   A    
C44   C48   A    
C103  H84   S    
C32   C34   A    
C94   H49   S    
C34   H2    S    
C16   C19   S    
