data_mof_unit_44492.cif
_audit_creation_date              2013-03-05T16:08:07-0500
_audit_creation_method            fapswitch 2.2
_symmetry_space_group_name_H-M    P1
_symmetry_Int_Tables_number       1
_space_group_crystal_system       triclinic
_cell_length_a                    6.957121
_cell_length_b                    14.522799
_cell_length_c                    15.962197
_cell_angle_alpha                 90.453942
_cell_angle_beta                  89.981619
_cell_angle_gamma                 90.039375
_cell_volume                      1612.71934368

loop_
_atom_site_label
_atom_site_type_symbol
_atom_site_description
_atom_site_fract_x
_atom_site_fract_y
_atom_site_fract_z
_atom_type_partial_charge
O1    O     O_R   0.494400 0.415450 0.412630 -0.591917
O2    O     O_R   0.823940 0.405730 0.586760 -0.563878
O3    O     O_R   0.994240 0.584550 0.587370 -0.599741
C1    C     C_R   0.655104 0.383004 0.614797 0.974051
O4    O     O_R   0.824110 0.404430 0.413240 -0.590053
O5    O     O_R   0.994420 0.583240 0.412620 -0.602628
C2    C     C_R   0.655292 0.382052 0.384386 0.955404
O6    O     O_R   0.494230 0.416760 0.587380 -0.602417
O7    O     O_3   0.660800 0.558670 0.500000 -0.285509
V1    V     V_3+5 0.935650 0.489120 0.500000 1.193755
O8    O     O_R   0.324140 0.594270 0.413240 -0.599272
C3    C     C_R   0.155156 0.615878 0.384055 0.925918
O9    O     O_R   0.323960 0.595570 0.586760 -0.596867
C4    C     C_R   0.155209 0.617627 0.615514 0.936582
V2    V     V_3+5 0.435660 0.510880 0.500000 1.172826
O10   O     O_3   0.160640 0.441330 0.500000 -0.241846
C5    C     C_3   0.051841 0.667000 0.771736 -0.215809
C6    C     C_3   0.223927 0.714958 0.813814 0.414173
H1    H     H_    0.986925 0.600733 0.791394 0.144412
C7    C     C_3   0.121507 0.808046 0.811199 -0.235416
C8    C     C_3   0.947509 0.761564 0.767945 -0.117841
C9    C     C_3   0.040374 0.780140 0.681227 -0.087681
C10   C     C_3   0.214459 0.827016 0.725091 -0.178558
C11   C     C_3   0.319890 0.732737 0.728762 -0.196901
C12   C     C_3   0.145045 0.686713 0.685951 -0.129229
H2    H     H_    0.794263 0.773656 0.783989 0.143928
H3    H     H_    0.964066 0.806893 0.625428 0.117708
H4    H     H_    0.280638 0.893199 0.705983 0.142284
H5    H     H_    0.473406 0.720218 0.713504 0.137363
C13   C     C_R   0.273210 0.814977 0.239021 0.155220
C14   C     C_R   0.118495 0.814966 0.182811 -0.216403
C15   C     C_R   0.966801 0.753208 0.198631 -0.129140
H6    H     H_    0.844231 0.750655 0.157156 0.148720
C16   C     C_R   0.977939 0.689560 0.264673 -0.152731
H7    H     H_    0.862963 0.640193 0.272251 0.134101
C17   C     C_R   0.141465 0.685458 0.316713 -0.222717
C18   C     C_R   0.284695 0.751725 0.304132 0.180817
C19   C     C_3   0.495255 0.738924 0.291785 -0.478007
C20   C     C_3   0.482862 0.808196 0.221187 -0.445895
H8    H     H_    0.530549 0.668118 0.269825 0.192719
H9    H     H_    0.580105 0.764171 0.346317 0.198871
H10   H     H_    0.511730 0.777808 0.158294 0.218419
H11   H     H_    0.559802 0.873680 0.235046 0.185171
C21   C     C_R   0.503386 0.244271 0.681891 0.100017
C22   C     C_R   0.648024 0.311423 0.680107 -0.244560
C23   C     C_R   0.795801 0.304304 0.740238 -0.081346
H12   H     H_    0.914783 0.352321 0.739827 0.116460
C24   C     C_R   0.784764 0.239001 0.805056 -0.162682
H13   H     H_    0.896100 0.238281 0.852379 0.130534
C25   C     C_R   0.624997 0.179614 0.811821 -0.201877
C26   C     C_R   0.490945 0.181204 0.746634 0.147442
C27   C     C_3   0.276694 0.182112 0.746842 -0.601582
C28   C     C_3   0.289642 0.250040 0.674366 0.205214
H14   H     H_    0.218361 0.213531 0.805170 0.182887
H15   H     H_    0.214674 0.113892 0.729874 0.222591
H16   H     H_    0.231046 0.319625 0.688632 0.071586
C29   C     C_R   0.492565 0.315009 0.257114 0.159758
C30   C     C_R   0.647245 0.315890 0.313310 -0.227412
C31   C     C_R   0.798922 0.253963 0.297529 -0.127576
H17   H     H_    0.921384 0.252103 0.339069 0.161297
C32   C     C_R   0.787838 0.189306 0.231434 -0.155932
H18   H     H_    0.902725 0.139837 0.223839 0.135443
C33   C     C_R   0.624398 0.184395 0.179364 -0.223431
C34   C     C_R   0.481131 0.250748 0.191942 0.182228
C35   C     C_3   0.270586 0.237923 0.204302 -0.479421
C36   C     C_3   0.282932 0.308303 0.274992 -0.447813
H19   H     H_    0.235402 0.167426 0.226166 0.192772
H20   H     H_    0.185653 0.262233 0.149819 0.200032
H21   H     H_    0.254141 0.278866 0.337847 0.218165
H22   H     H_    0.205879 0.373495 0.261244 0.186821
O11   O     O_R   0.771650 0.079500 0.908680 -0.598703
O12   O     O_R   0.441690 0.091800 0.082800 -0.599776
O13   O     O_R   0.271460 0.912980 0.083410 -0.580965
C37   C     C_R   0.610699 0.113824 0.112004 0.929743
O14   O     O_R   0.441930 0.090510 0.909280 -0.597579
O15   O     O_R   0.271690 0.911670 0.908660 -0.573107
C38   C     C_R   0.611161 0.112820 0.880950 0.946126
O16   O     O_R   0.771410 0.080810 0.083440 -0.601169
O17   O     O_3   0.605100 0.937580 0.996050 -0.255501
V3    V     V_3+5 0.330220 0.007110 0.996030 1.176677
O18   O     O_R   0.941980 0.900620 0.909250 -0.597623
C39   C     C_R   0.110833 0.878182 0.880833 1.004940
O19   O     O_R   0.941740 0.901920 0.082770 -0.606144
C40   C     C_R   0.110505 0.880024 0.111693 0.975352
V4    V     V_3+5 0.830220 0.985300 0.996000 1.171745
O20   O     O_3   0.105210 0.054870 0.996020 -0.288918
N1    N     N_R   0.325482 0.676348 0.885231 0.224942
O21   O     O_R   0.410594 0.597019 0.877717 -0.417073
O22   O     O_R   0.327912 0.719211 0.957047 -0.425309
N2    N     N_R   0.220336 0.210706 0.595196 0.253709
O23   O     O_R   0.290478 0.133845 0.565830 -0.407038
O24   O     O_R   0.083701 0.251626 0.554352 -0.385930

loop_
_geom_bond_atom_site_label_1
_geom_bond_atom_site_label_2
_geom_bond_distance
_ccdc_geom_bond_type
C8    H2    1.110173 S    
C7    C39   1.503516 S    
O11   C38   1.296607 A    
C29   C36   1.489282 S    
C1    O6    1.299606 A    
O18   C39   1.299916 A    
N2    O23   1.302364 A    
C36   H22   1.111731 S    
V4    O20   2.162925 S    
C27   C28   1.528915 S    
C6    C11   1.536322 S    
C17   C18   1.400385 A    
O5    C3    1.298246 A    
C13   C14   1.401499 A    
C36   H21   1.111789 S    
V2    O10   2.162976 S    
C16   H7    1.081206 S    
C32   C33   1.410109 A    
C11   H5    1.110157 S    
V3    O20   1.712639 S    
O11   V4    2.002915 S    
O8    V2    2.003763 S    
C21   C28   1.494387 S    
O19   C40   1.302307 A    
C35   H19   1.111394 S    
C9    C12   1.542709 S    
C10   C11   1.555247 S    
O1    V2    2.000626 S    
C3    C17   1.484261 S    
O14   V3    2.003262 S    
O13   C40   1.299673 A    
C16   C17   1.410446 A    
C27   H15   1.111903 S    
C24   C25   1.411045 A    
C31   H17   1.080249 S    
C8    C9    1.552832 S    
C27   H14   1.110423 S    
C25   C26   1.397871 A    
C20   H10   1.111717 S    
C1    C22   1.478830 S    
C23   C24   1.411100 A    
C31   C32   1.408889 A    
C26   C27   1.490642 S    
C11   C12   1.544538 S    
C19   H9    1.111556 S    
O12   C37   1.303699 A    
O15   C39   1.297056 A    
O4    C2    1.301771 A    
C20   H11   1.111723 S    
C30   C31   1.408313 A    
C22   C23   1.411133 A    
C5    C8    1.555409 S    
C14   C40   1.483780 S    
O17   V3    2.163207 S    
C13   C18   1.394875 A    
C15   C16   1.409718 A    
O2    C1    1.300153 A    
C18   C19   1.489603 S    
N2    O24   1.299668 A    
C14   C15   1.408570 A    
C7    C10   1.545450 S    
C35   H20   1.111566 S    
C5    C6    1.536725 S    
C10   H4    1.110323 S    
O14   C38   1.302726 A    
O3    C4    1.297260 A    
C21   C26   1.388949 A    
C24   H13   1.082222 S    
O19   V4    2.003787 S    
O6    V2    2.002788 S    
C9    H3    1.110036 S    
O9    V2    2.002040 S    
O2    V1    2.003285 S    
C25   C38   1.478053 S    
O17   V4    1.712234 S    
C21   C22   1.401273 A    
O16   V4    2.002295 S    
C29   C34   1.394278 A    
O7    V1    2.163158 S    
C28   H16   1.111819 S    
C23   H12   1.082037 S    
C2    C30   1.481985 S    
O1    C2    1.299381 A    
O15   V3    2.000220 S    
O5    V1    2.002507 S    
O8    C3    1.304153 A    
C33   C37   1.482574 S    
C6    N1    1.457508 S    
C5    C12   1.543643 S    
C15   H6    1.080160 S    
N1    O22   1.300213 A    
O7    V2    1.712771 S    
O4    V1    2.001300 S    
O12   V3    2.001219 S    
O3    V1    2.000205 S    
V1    O10   1.712689 S    
C34   C35   1.489711 S    
C19   H8    1.111370 S    
C29   C30   1.401163 A    
C19   C20   1.519068 S    
C5    H1    1.110272 S    
O13   V3    2.002590 S    
C13   C20   1.489182 S    
C6    C7    1.529488 S    
C4    C12   1.502641 S    
C32   H18   1.081220 S    
C33   C34   1.400179 A    
C7    C8    1.545894 S    
N1    O21   1.300378 A    
C35   C36   1.518872 S    
C37   O16   1.298007 A    
C28   N2    1.464366 S    
C9    C10   1.553184 S    
O9    C4    1.299785 A    
O18   V4    2.002007 S    
