data_mof_unit_41552.cif
_audit_creation_date              2012-12-11T14:54:20-0500
_audit_creation_method            fapswitch 2.2
_symmetry_space_group_name_H-M    P1
_symmetry_Int_Tables_number       1
_space_group_crystal_system       triclinic
_cell_length_a                    18.996242
_cell_length_b                    10.899478
_cell_length_c                    18.844902
_cell_angle_alpha                 89.89141
_cell_angle_beta                  90.216659
_cell_angle_gamma                 90.289981
_cell_volume                      3901.73567359

loop_
_atom_site_label
_atom_site_type_symbol
_atom_type_description
_atom_site_fract_x
_atom_site_fract_y
_atom_site_fract_z
_atom_type_partial_charge
C1    C     C_R   0.728128 0.372217 0.643883 0.551946
C2    C     C_R   0.269638 0.377906 0.353594 0.544533
C3    C     C_R   0.230414 0.877981 0.646475 0.551446
C4    C     C_R   0.771930 0.872046 0.356226 0.546310
C5    C     C_3   0.462729 0.368117 0.470617 -0.262384
C6    C     C_3   0.485411 0.366506 0.547897 -0.256123
C7    C     C_3   0.014969 0.866837 0.451951 -0.255347
C8    C     C_3   0.037556 0.868536 0.529256 -0.263019
C9    C     C_R   0.703966 0.843031 0.542199 0.192624
C10   C     C_R   0.306070 0.870098 0.465000 0.215875
C11   C     C_R   0.193503 0.369849 0.535096 0.215225
C12   C     C_R   0.795291 0.342971 0.457888 0.192820
C13   C     C_R   0.706577 0.834566 0.468398 -0.118892
C14   C     C_R   0.302500 0.858496 0.538377 -0.093546
C15   C     C_R   0.197218 0.358315 0.461713 -0.094959
C16   C     C_R   0.792910 0.334632 0.531694 -0.118147
C17   C     C_R   0.759575 0.896754 0.430740 -0.008385
C18   C     C_R   0.249693 0.919043 0.576125 -0.014845
C19   C     C_R   0.250714 0.418343 0.424053 -0.014988
C20   C     C_R   0.740609 0.397356 0.569410 -0.009273
C21   C     C_R   0.811948 0.960968 0.467572 -0.118743
C22   C     C_R   0.203643 0.997915 0.541123 -0.145702
C23   C     C_R   0.297580 0.496200 0.459197 -0.144583
C24   C     C_R   0.688744 0.462233 0.532678 -0.120792
C25   C     C_R   0.810253 0.968225 0.539873 -0.164233
C26   C     C_R   0.204444 0.005484 0.468632 -0.179522
C27   C     C_R   0.296611 0.503628 0.531674 -0.179392
C28   C     C_R   0.690143 0.469215 0.460381 -0.164389
C29   C     C_R   0.753954 0.916897 0.577752 0.041265
C30   C     C_R   0.254874 0.941384 0.429228 0.032065
C31   C     C_R   0.245257 0.440491 0.570972 0.031979
C32   C     C_R   0.745801 0.417216 0.422386 0.041211
C33   C     C_R   0.534712 0.053108 0.973580 -0.189594
C34   C     C_R   0.517448 0.052938 0.044123 -0.181875
C35   C     C_R   0.034710 0.553109 0.973580 -0.189693
C36   C     C_R   0.017453 0.552937 0.044124 -0.182478
C37   C     C_R   0.508789 0.163463 0.080973 -0.008583
C38   C     C_R   0.544693 0.163315 0.937002 -0.019481
C39   C     C_R   0.008782 0.663467 0.080969 -0.010122
C40   C     C_R   0.044665 0.663317 0.936995 -0.017871
C41   C     C_R   0.526657 0.274944 0.047872 0.256114
C42   C     C_R   0.541488 0.276085 0.974895 0.236117
C43   C     C_R   0.026627 0.774952 0.047860 0.255058
C44   C     C_R   0.041436 0.776090 0.974880 0.236433
C45   C     C_R   0.565011 0.151084 0.639200 0.547881
C46   C     C_R   0.469109 0.155244 0.353353 0.540432
C47   C     C_R   0.030894 0.655057 0.646655 0.549787
C48   C     C_R   0.935141 0.650648 0.360812 0.545205
C49   C     C_R   0.806646 0.985817 0.965723 -0.096147
C50   C     C_R   0.221488 0.038832 0.024578 -0.048401
C51   C     C_R   0.306620 0.485906 0.965737 -0.095440
C52   C     C_R   0.721560 0.538895 0.024569 -0.048914
C53   C     C_R   0.808805 0.987006 0.038288 0.220641
C54   C     C_R   0.220894 0.024236 0.951715 0.259997
C55   C     C_R   0.308780 0.487067 0.038302 0.221110
C56   C     C_R   0.720963 0.524263 0.951706 0.259268
C57   C     C_R   0.755005 0.925781 0.077063 0.017833
C58   C     C_R   0.251237 0.919263 0.922327 0.037498
C59   C     C_R   0.254996 0.425791 0.077068 0.018702
C60   C     C_R   0.751231 0.419202 0.922339 0.036045
C61   C     C_R   0.694641 0.883981 0.041672 -0.181298
C62   C     C_R   0.289475 0.837801 0.965638 -0.166586
C63   C     C_R   0.194643 0.383960 0.041671 -0.180649
C64   C     C_R   0.789383 0.337632 0.965671 -0.167280
C65   C     C_R   0.690060 0.895718 0.968463 -0.113176
C66   C     C_R   0.291754 0.855178 0.038444 -0.144029
C67   C     C_R   0.190063 0.395709 0.968464 -0.113174
C68   C     C_R   0.791655 0.355021 0.038477 -0.143893
C69   C     C_R   0.747384 0.941817 0.929972 0.004013
C70   C     C_R   0.255026 0.952280 0.068290 -0.006253
C71   C     C_R   0.247376 0.441854 0.929980 0.004392
C72   C     C_R   0.755016 0.452258 0.068299 -0.006628
C73   C     C_R   0.742105 0.966422 0.648360 0.574194
C74   C     C_R   0.259960 0.973082 0.354388 0.573498
C75   C     C_R   0.240052 0.472696 0.645686 0.579889
C76   C     C_R   0.757804 0.466587 0.351658 0.567578
C77   C     C_R   0.730411 0.379037 0.851976 0.579605
C78   C     C_R   0.270347 0.381035 0.148118 0.556311
C79   C     C_R   0.230412 0.879049 0.851974 0.577464
C80   C     C_R   0.770347 0.881036 0.148119 0.558708
C81   C     C_R   0.562325 0.153887 0.861259 0.558592
C82   C     C_R   0.470505 0.157170 0.148231 0.564922
C83   C     C_R   0.062312 0.653888 0.861259 0.555555
C84   C     C_R   0.970505 0.657171 0.148231 0.574690
C85   C     C_R   0.740362 0.974208 0.855741 0.569283
C86   C     C_R   0.260202 0.977780 0.143393 0.559282
C87   C     C_R   0.240358 0.474222 0.855746 0.567629
C88   C     C_R   0.760196 0.477763 0.143399 0.561076
C89   C     C_R   0.512123 0.163660 0.418072 0.018836
C90   C     C_R   0.553022 0.158897 0.562330 0.005147
C91   C     C_R   0.947237 0.658233 0.437637 0.006639
C92   C     C_R   0.987946 0.663084 0.581913 0.018338
C93   C     C_R   0.516760 0.272107 0.457543 0.012903
C94   C     C_R   0.537356 0.269969 0.528305 0.014211
C95   C     C_R   0.962910 0.769436 0.471579 0.014380
C96   C     C_R   0.983429 0.771628 0.542356 0.011517
C97   C     C_R   0.560136 0.053992 0.519924 -0.143402
C98   C     C_R   0.540585 0.056301 0.448263 -0.123591
C99   C     C_R   0.959516 0.555353 0.551767 -0.123095
C100  C     C_R   0.940092 0.552991 0.480086 -0.143329
Cr1   Cr    Cr6+3 0.771950 0.169480 0.750100 1.034969
Cr2   Cr    Cr6+3 0.228050 0.169480 0.249900 1.059979
Cr3   Cr    Cr6+3 0.271950 0.669480 0.750100 1.045438
Cr4   Cr    Cr6+3 0.728050 0.669480 0.249900 1.050066
Cr5   Cr    Cr6+3 0.614930 0.323340 0.749170 1.123919
Cr6   Cr    Cr6+3 0.385070 0.323340 0.250830 1.125010
Cr7   Cr    Cr6+3 0.114930 0.823340 0.749170 1.118779
Cr8   Cr    Cr6+3 0.885070 0.823340 0.250830 1.129112
Cr9   Cr    Cr6+3 0.616590 0.010620 0.750610 1.107491
Cr10  Cr    Cr6+3 0.383410 0.010620 0.249390 1.104632
Cr11  Cr    Cr6+3 0.116590 0.510620 0.750610 1.112828
Cr12  Cr    Cr6+3 0.883410 0.510620 0.249390 1.098496
H1    H     H_    0.575508 0.968018 0.543349 0.196611
H2    H     H_    0.541189 0.970951 0.418927 0.173551
H3    H     H_    0.958860 0.469859 0.581164 0.174691
H4    H     H_    0.924775 0.466818 0.456699 0.197463
H5    H     H_    0.850389 0.027148 0.937479 0.194654
H6    H     H_    0.196696 0.119149 0.046894 0.172785
H7    H     H_    0.350351 0.527285 0.937500 0.194991
H8    H     H_    0.696833 0.619292 0.046871 0.172667
H9    H     H_    0.652163 0.839397 0.070150 0.155301
H10   H     H_    0.314134 0.756867 0.943918 0.165541
H11   H     H_    0.152174 0.339342 0.070144 0.155855
H12   H     H_    0.813973 0.256612 0.943968 0.165452
H13   H     H_    0.642285 0.867255 0.941880 0.190846
H14   H     H_    0.320523 0.792114 0.071751 0.199616
H15   H     H_    0.142292 0.367234 0.941877 0.190759
H16   H     H_    0.820342 0.291859 0.071804 0.200245
H17   H     H_    0.988975 0.953120 0.434797 0.165177
H18   H     H_    0.091884 0.834045 0.537678 0.156314
H19   H     H_    0.408379 0.332777 0.462294 0.157020
H20   H     H_    0.511508 0.453117 0.564922 0.165208
H21   H     H_    0.475333 0.455810 0.443166 0.166562
H22   H     H_    0.443706 0.332044 0.584210 0.162852
H23   H     H_    0.056694 0.833125 0.415724 0.161904
H24   H     H_    0.024978 0.955951 0.556598 0.167073
H25   H     H_    0.668566 0.777210 0.440952 0.159835
H26   H     H_    0.338886 0.797805 0.565309 0.163591
H27   H     H_    0.160278 0.298306 0.434685 0.162231
H28   H     H_    0.830489 0.276837 0.559094 0.161015
H29   H     H_    0.856182 0.003220 0.440881 0.202116
H30   H     H_    0.162564 0.045835 0.569161 0.206804
H31   H     H_    0.339318 0.543520 0.431291 0.205994
H32   H     H_    0.645022 0.504992 0.559438 0.203086
H33   H     H_    0.851525 0.021406 0.565324 0.161148
H34   H     H_    0.165598 0.064244 0.443903 0.165774
H35   H     H_    0.336024 0.561700 0.556469 0.165796
H36   H     H_    0.649203 0.522734 0.435017 0.161572
H37   H     H_    0.537117 0.965337 0.947066 0.168206
H38   H     H_    0.506767 0.964644 0.068407 0.180155
H39   H     H_    0.037138 0.465334 0.947070 0.168125
H40   H     H_    0.006794 0.464638 0.068416 0.180530
O1    O     O_R   0.787510 0.042610 0.670410 -0.531463
O2    O     O_R   0.212490 0.042610 0.329590 -0.530631
O3    O     O_R   0.287510 0.542610 0.670410 -0.531242
O4    O     O_R   0.712490 0.542610 0.329590 -0.530668
O5    O     O_R   0.556450 0.252890 0.823790 -0.433162
O6    O     O_R   0.443550 0.252890 0.176210 -0.435023
O7    O     O_R   0.056450 0.752890 0.823790 -0.439588
O8    O     O_R   0.943550 0.752890 0.176210 -0.431257
O9    O     O_R   0.545750 0.051070 0.830560 -0.505780
O10   O     O_R   0.454250 0.051070 0.169440 -0.529238
O11   O     O_R   0.045750 0.551070 0.830560 -0.514353
O12   O     O_R   0.954250 0.551070 0.169440 -0.523202
O13   O     O_R   0.681210 0.959150 0.825320 -0.491080
O14   O     O_R   0.318790 0.959150 0.174680 -0.494264
O15   O     O_R   0.181210 0.459150 0.825320 -0.493824
O16   O     O_R   0.818790 0.459150 0.174680 -0.491304
O17   O     O_3   0.667820 0.167810 0.749960 -0.330142
O18   O     O_3   0.332180 0.167810 0.250040 -0.288768
O19   O     O_3   0.167820 0.667810 0.749960 -0.308825
O20   O     O_3   0.832180 0.667810 0.250040 -0.309741
O21   O     O_R   0.765670 0.292090 0.675090 -0.511151
O22   O     O_R   0.234330 0.292090 0.324910 -0.510547
O23   O     O_R   0.265670 0.792090 0.675090 -0.507472
O24   O     O_R   0.734330 0.792090 0.324910 -0.514358
O25   O     O_R   0.670220 0.409020 0.668560 -0.500160
O26   O     O_R   0.329780 0.409020 0.331440 -0.512743
O27   O     O_R   0.170220 0.909020 0.668560 -0.508140
O28   O     O_R   0.829780 0.909020 0.331440 -0.504503
O29   O     O_R   0.556580 0.251590 0.674980 -0.497254
O30   O     O_R   0.443420 0.251590 0.325020 -0.503983
O31   O     O_R   0.056580 0.751590 0.674980 -0.501786
O32   O     O_R   0.943420 0.751590 0.325020 -0.501879
O33   O     O_R   0.545890 0.049670 0.670030 -0.475874
O34   O     O_R   0.454110 0.049670 0.329970 -0.486578
O35   O     O_R   0.045890 0.549670 0.670030 -0.481287
O36   O     O_R   0.954110 0.549670 0.329970 -0.484534
O37   O     O_R   0.681340 0.957860 0.676500 -0.454778
O38   O     O_R   0.318660 0.957860 0.323500 -0.433156
O39   O     O_R   0.181340 0.457860 0.676500 -0.428568
O40   O     O_R   0.818660 0.457860 0.323500 -0.459082
O41   O     O_R   0.787380 0.044010 0.830940 -0.522018
O42   O     O_R   0.212620 0.044010 0.169060 -0.486364
O43   O     O_R   0.287380 0.544010 0.830940 -0.522061
O44   O     O_R   0.712620 0.544010 0.169060 -0.486137
O45   O     O_R   0.765540 0.293390 0.823910 -0.525310
O46   O     O_R   0.234460 0.293390 0.176090 -0.520718
O47   O     O_R   0.265540 0.793390 0.823910 -0.526781
O48   O     O_R   0.734460 0.793390 0.176090 -0.519232
O49   O     O_R   0.670090 0.410410 0.829090 -0.408026
O50   O     O_R   0.329910 0.410410 0.170910 -0.426425
O51   O     O_R   0.170090 0.910410 0.829090 -0.410687
O52   O     O_R   0.829910 0.910410 0.170910 -0.423590
Cl1   Cl    Cl    0.881806 0.066410 0.075137 -0.518398
Cl2   Cl    Cl    0.180452 0.136964 0.898689 -0.552960
Cl3   Cl    Cl    0.381769 0.566487 0.075163 -0.520985
Cl4   Cl    Cl    0.680614 0.637050 0.898642 -0.548479
Cl5   Cl    Cl    0.639194 0.757693 0.587673 -0.632416
Cl6   Cl    Cl    0.374901 0.792566 0.421756 -0.624109
Cl7   Cl    Cl    0.123726 0.293207 0.578232 -0.619990
Cl8   Cl    Cl    0.859097 0.256960 0.412357 -0.639072
Cl9   Cl    Cl    0.533939 0.412050 0.097495 -0.449705
Cl10  Cl    Cl    0.549847 0.420632 0.933272 -0.444248
Cl11  Cl    Cl    0.033922 0.912065 0.097476 -0.446970
Cl12  Cl    Cl    0.049737 0.920633 0.933243 -0.445590

loop_
_geom_bond_atom_site_label_1
_geom_bond_atom_site_label_2
_ccdc_geom_bond_type
C58   C62   A    
C49   C53   A    
Cr11  O39   S    
C93   C94   A    
C55   C59   A    
C63   H11   S    
C8    H24   S    
C34   C37   A    
Cr4   O48   S    
C41   C42   A    
C88   O44   A    
Cr1   O21   S    
C95   C96   A    
C8    C96   S    
C43   Cl11  S    
C97   C98   A    
Cr10  O10   S    
C45   O29   A    
C7    C8    S    
Cr4   O24   S    
C46   C89   S    
Cr7   O19   S    
C15   C19   A    
C1    O21   A    
C50   C54   A    
C35   H39   S    
C37   C41   A    
C42   Cl10  S    
C64   C68   A    
Cr9   O17   S    
C39   C84   S    
C48   O36   A    
C83   O11   A    
Cr2   O46   S    
C99   H3    S    
C5    C6    S    
C30   C74   S    
Cr1   O45   S    
C98   H2    S    
C44   Cl12  S    
C80   O48   A    
C14   H26   S    
Cr5   O49   S    
C92   C96   A    
Cr8   O28   S    
C3    C18   S    
C61   H9    S    
C47   C92   S    
C4    O24   A    
C78   O50   A    
C26   H34   S    
C3    O27   A    
Cr6   O30   S    
C9    C13   A    
C52   H8    S    
C11   Cl7   S    
C74   O38   A    
C11   C15   A    
C10   Cl6   S    
C87   O15   A    
C35   C36   A    
Cr9   O37   S    
C88   O16   A    
C48   C91   S    
C86   O14   A    
C51   H7    S    
C40   C44   A    
Cr1   O17   S    
C2    O26   A    
C23   C27   A    
C91   C100  A    
Cr2   O2    S    
C90   C97   A    
C67   C71   A    
C84   O12   A    
C9    C29   A    
Cr6   O26   S    
Cr4   O20   S    
C11   C31   A    
C49   C69   A    
C12   C32   A    
Cr3   O19   S    
Cr6   O18   S    
C40   C83   S    
C23   H31   S    
C16   H28   S    
Cr3   O43   S    
C4    O28   A    
C85   O41   A    
C75   O39   A    
Cr2   O42   S    
C59   C78   S    
C72   C88   S    
Cr1   O41   S    
C90   C94   A    
C15   H27   S    
C25   C29   A    
Cr12  O12   S    
Cr7   O7    S    
Cr5   O5    S    
C60   C77   S    
C28   H36   S    
C81   O5    A    
Cr8   O32   S    
C27   C31   A    
C12   C16   A    
C28   C32   A    
Cr11  O11   S    
C12   Cl8   S    
C6    H20   S    
C10   C14   A    
C9    Cl5   S    
C48   O32   A    
C62   C66   A    
C36   H40   S    
C39   C43   A    
C82   O10   A    
C51   C55   A    
Cr9   O33   S    
Cr6   O6    S    
C76   O4    A    
C17   C21   A    
C56   C60   A    
Cr7   O31   S    
C68   C72   A    
C74   O2    A    
C13   H25   S    
C19   C23   A    
C43   C44   A    
C63   C67   A    
Cr7   O51   S    
C76   O40   A    
C67   H15   S    
Cr6   O50   S    
C41   Cl9   S    
C10   C30   A    
C31   C75   S    
C99   C100  A    
C56   Cl4   S    
Cr1   O1    S    
C16   C20   A    
C52   C72   A    
C22   H30   S    
Cr3   O23   S    
C33   C34   A    
C5    H21   S    
C83   O7    A    
C82   O6    A    
Cr3   O47   S    
C87   O43   A    
C46   O34   A    
C45   C90   S    
Cr5   O17   S    
Cr12  O40   S    
C49   H5    S    
C71   C87   S    
C4    C17   S    
C58   C79   S    
C47   O31   A    
C57   C80   S    
C26   C30   A    
Cr9   O13   S    
C79   O51   A    
C50   H6    S    
Cr8   O20   S    
C38   C81   S    
C8    H18   S    
C68   H16   S    
C64   H12   S    
C37   C82   S    
Cr4   O4    S    
Cr11  O15   S    
C97   H1    S    
C70   C86   S    
Cr10  O18   S    
C62   H10   S    
C47   O35   A    
C69   C85   S    
C3    O23   A    
Cr12  O36   S    
C54   C58   A    
Cr3   O3    S    
C59   C63   A    
C21   C25   A    
Cr10  O34   S    
C1    C20   S    
C53   C57   A    
C79   O47   A    
Cr7   O27   S    
C2    C19   S    
C18   C22   A    
C81   O9    A    
C14   C18   A    
C36   C39   A    
C24   C28   A    
Cr5   O25   S    
C77   O49   A    
C32   C76   S    
C5    C93   S    
C51   C71   A    
C57   C61   A    
C84   O8    A    
Cr8   O8    S    
Cr2   O22   S    
C7    C95   S    
Cr11  O35   S    
C33   C38   A    
C13   C17   A    
C89   C98   A    
C60   C64   A    
C85   O13   A    
C100  H4    S    
C46   O30   A    
C35   C40   A    
C50   C70   A    
C66   H14   S    
C21   H29   S    
C55   Cl3   S    
C6    H22   S    
C27   H35   S    
Cr9   O9    S    
C86   O42   A    
Cr10  O14   S    
C45   O33   A    
C65   H13   S    
C66   C70   A    
C77   O45   A    
Cr2   O18   S    
C24   H32   S    
C65   C69   A    
Cr10  O38   S    
Cr11  O19   S    
C34   H38   S    
C61   C65   A    
C89   C93   A    
C73   O37   A    
C7    H17   S    
C54   Cl2   S    
C7    H23   S    
C91   C95   A    
C53   Cl1   S    
C38   C42   A    
C75   O3    A    
C5    H19   S    
C29   C73   S    
Cr8   O52   S    
C22   C26   A    
C6    C94   S    
C73   O1    A    
C25   H33   S    
C33   H37   S    
C78   O46   A    
Cr5   O29   S    
C80   O52   A    
C1    O25   A    
C20   C24   A    
C2    O22   A    
C52   C56   A    
C92   C99   A    
Cr4   O44   S    
Cr12  O20   S    
Cr12  O16   S    
