data_mof_unit_63067.cif
_audit_creation_date              2012-10-26T17:43:53-0400
_audit_creation_method            fapswitch 2.2
_symmetry_space_group_name_H-M    P1
_symmetry_Int_Tables_number       1
_space_group_crystal_system       triclinic
_cell_length_a                    18.382074
_cell_length_b                    18.38551
_cell_length_c                    38.883263
_cell_angle_alpha                 90.005641
_cell_angle_beta                  89.994996
_cell_angle_gamma                 90.013633
_cell_volume                      13141.135042

loop_
_atom_site_label
_atom_site_type_symbol
_atom_type_description
_atom_site_fract_x
_atom_site_fract_y
_atom_site_fract_z
_atom_type_partial_charge
C1    C     C_R   0.500007 0.139775 0.499999 0.544154
C2    C     C_R   0.999985 0.499988 0.215563 0.429559
C3    C     C_3   0.841847 0.409774 0.407059 -0.425111
C4    C     C_3   0.571298 0.880448 0.396924 -0.271654
C5    C     C_3   0.653489 0.890412 0.400581 -0.401922
C6    C     C_3   0.138059 0.511938 0.397859 -0.283306
C7    C     C_3   0.158149 0.590208 0.407044 -0.425143
C8    C     C_3   0.428645 0.880448 0.603064 -0.271615
C9    C     C_3   0.346459 0.890422 0.599415 -0.402238
C10   C     C_3   0.874443 0.561266 0.602378 -0.273132
C11   C     C_3   0.878067 0.644026 0.599247 -0.403577
C12   C     C_3   0.571336 0.119560 0.603070 -0.271917
C13   C     C_R   0.500004 0.999991 0.785329 0.435122
C14   C     C_3   0.653524 0.109593 0.599415 -0.401333
C15   C     C_3   0.124236 0.438993 0.603296 -0.273368
C16   C     C_3   0.120857 0.356254 0.599957 -0.402854
C17   C     C_3   0.994085 0.636730 0.896899 -0.282303
C18   C     C_3   0.916678 0.665300 0.901298 -0.412024
C19   C     C_3   0.361975 0.987620 0.897870 -0.282574
C20   C     C_3   0.342077 0.909286 0.907022 -0.426082
C21   C     C_3   0.003301 0.359744 0.898809 -0.284010
C22   C     C_3   0.080786 0.337246 0.908209 -0.428497
C23   C     C_3   0.638031 0.012360 0.897861 -0.283043
C24   C     C_R   0.994474 0.495228 0.785224 0.426867
C25   C     C_3   0.657931 0.090696 0.907014 -0.424760
C26   C     C_3   0.928763 0.380373 0.103057 -0.271772
C27   C     C_3   0.846568 0.390259 0.099400 -0.401686
C28   C     C_3   0.361927 0.011705 0.102138 -0.283405
C29   C     C_3   0.341750 0.089932 0.092939 -0.424943
C30   C     C_3   0.071225 0.619620 0.103069 -0.271724
C31   C     C_3   0.153421 0.609733 0.099409 -0.401729
C32   C     C_3   0.638080 0.988319 0.102122 -0.283437
C33   C     C_3   0.658260 0.910091 0.092917 -0.424887
C34   C     C_2   0.414465 0.107185 0.322018 0.243883
C35   C     C_R   0.996454 0.498426 0.715444 0.430620
C36   C     C_2   0.863820 0.478306 0.322517 0.241590
C37   C     C_2   0.585563 0.892835 0.322001 0.243883
C38   C     C_2   0.136165 0.521654 0.322503 0.241591
C39   C     C_2   0.414434 0.892797 0.677992 0.242731
C40   C     C_2   0.882171 0.573284 0.677619 0.244890
C41   C     C_2   0.585551 0.107208 0.677995 0.243816
C42   C     C_2   0.113612 0.426142 0.678401 0.241766
C43   C     C_2   0.978393 0.631905 0.821420 0.242652
C44   C     C_2   0.363889 0.977971 0.822511 0.240748
C45   C     C_2   0.010240 0.358732 0.823494 0.240994
C46   C     C_R   0.499998 0.999997 0.715564 0.430317
C47   C     C_2   0.636120 0.021997 0.822502 0.243706
C48   C     C_2   0.914496 0.392728 0.177983 0.243907
C49   C     C_2   0.363810 0.021479 0.177494 0.241617
C50   C     C_2   0.085476 0.607256 0.177992 0.243899
C51   C     C_2   0.636205 0.978554 0.177478 0.241625
C52   C     C_R   0.999989 0.499984 0.285328 0.435207
C53   C     C_R   0.500013 0.000010 0.284435 0.429538
C54   C     C_R   0.500003 0.000001 0.433793 0.542381
C55   C     C_R   1.000000 0.499997 0.433905 0.548202
C56   C     C_R   0.499997 0.000001 0.566207 0.542327
C57   C     C_R   0.860229 0.499990 0.499976 0.543375
C58   C     C_R   0.999889 0.500008 0.566185 0.542217
C59   C     C_R   0.000012 0.499199 0.933898 0.545877
C60   C     C_R   0.500001 0.999997 0.933905 0.548230
C61   C     C_R   0.999997 0.499999 0.066206 0.542019
C62   C     C_R   0.500001 0.000003 0.066094 0.548193
C63   C     C_1   0.500019 0.217189 0.499997 -0.059220
C64   C     C_1   0.782819 0.499975 0.499969 -0.061768
C65   C     C_1   0.499982 0.782811 0.500003 -0.059227
C66   C     C_1   0.217181 0.500025 0.499980 -0.061731
C67   C     C_1   0.000015 0.717187 0.999983 -0.060996
C68   C     C_R   0.499993 0.860224 0.500001 0.544177
C69   C     C_1   0.282821 0.999981 0.999997 -0.063144
C70   C     C_1   0.999982 0.282814 0.999995 -0.061482
C71   C     C_1   0.717179 0.000019 0.000002 -0.062748
C72   C     C_1   0.500015 0.282403 0.499996 -0.049726
C73   C     C_1   0.717602 0.499976 0.499979 -0.052115
C74   C     C_1   0.499985 0.717597 0.500003 -0.049760
C75   C     C_1   0.282398 0.500025 0.499987 -0.052277
C76   C     C_1   0.000010 0.782400 0.999982 -0.051974
C77   C     C_1   0.217606 0.999985 0.999997 -0.054393
C78   C     C_1   0.999989 0.217601 0.999991 -0.052450
C79   C     C_R   0.139770 0.500010 0.499990 0.543924
C80   C     C_1   0.782394 0.000016 0.000003 -0.053791
C81   C     C_R   0.463771 0.056431 0.377456 -0.032963
C82   C     C_R   0.933451 0.491867 0.377932 -0.034974
C83   C     C_R   0.536250 0.943582 0.377447 -0.032969
C84   C     C_R   0.066542 0.508107 0.377925 -0.034971
C85   C     C_R   0.463733 0.943574 0.622548 -0.032585
C86   C     C_R   0.939451 0.530928 0.622241 -0.033431
C87   C     C_R   0.536251 0.056432 0.622550 -0.032816
C88   C     C_R   0.058450 0.469063 0.622678 -0.033361
C89   C     C_R   0.995071 0.564514 0.877449 -0.035334
C90   C     C_R   0.000005 0.639776 0.000007 0.543603
C91   C     C_R   0.433482 0.991663 0.877931 -0.034911
C92   C     C_R   0.002113 0.430677 0.878348 -0.035089
C93   C     C_R   0.566525 0.008315 0.877926 -0.035089
C94   C     C_R   0.963780 0.443536 0.122543 -0.032976
C95   C     C_R   0.433448 0.008011 0.122073 -0.034976
C96   C     C_R   0.036201 0.556456 0.122549 -0.032955
C97   C     C_R   0.566561 0.992013 0.122065 -0.034971
C98   C     C_R   0.460744 0.054079 0.340996 0.001460
C99   C     C_R   0.933557 0.490726 0.341432 -0.004549
C100  C     C_R   0.539281 0.945938 0.340987 0.001460
C101  C     C_R   0.360230 0.999993 1.000000 0.544856
C102  C     C_R   0.066431 0.509240 0.341425 -0.004549
C103  C     C_R   0.460713 0.945921 0.659008 0.002499
C104  C     C_R   0.940417 0.533362 0.658738 -0.001469
C105  C     C_R   0.539273 0.054083 0.659011 0.001594
C106  C     C_R   0.055983 0.466109 0.659152 0.002393
C107  C     C_R   0.989062 0.562886 0.841038 -0.001680
C108  C     C_R   0.433594 0.990542 0.841431 -0.004781
C109  C     C_R   0.000409 0.429404 0.841862 -0.004016
C110  C     C_R   0.566415 0.009432 0.841427 -0.005436
C111  C     C_R   0.960748 0.445883 0.159003 0.001494
C112  C     C_R   0.999995 0.360224 0.000013 0.543732
C113  C     C_R   0.433558 0.009160 0.158572 -0.004498
C114  C     C_R   0.039227 0.554104 0.159008 0.001497
C115  C     C_R   0.566454 0.990869 0.158564 -0.004495
C116  C     C_R   0.500013 0.000009 0.322742 0.020924
C117  C     C_R   0.999993 0.499982 0.323326 0.018775
C118  C     C_R   0.499994 0.000000 0.677258 0.021184
C119  C     C_R   0.997731 0.499449 0.677169 0.020833
C120  C     C_R   0.992759 0.495486 0.823323 0.021452
C121  C     C_R   0.500004 0.999987 0.823326 0.018386
C122  C     C_R   0.999986 0.499992 0.177255 0.020956
C123  C     C_R   0.639770 0.000007 0.000001 0.544876
C124  C     C_R   0.500007 0.000014 0.176672 0.018803
C125  C     C_R   0.359836 0.500012 0.499998 0.559098
C126  C     C_R   0.500005 0.359838 0.499999 0.559403
C127  C     C_R   0.640164 0.499988 0.499995 0.559173
C128  C     C_R   0.499995 0.640162 0.500001 0.559362
C129  C     C_R   0.859834 0.000006 0.000001 0.558806
C130  C     C_R   0.000001 0.859837 0.999996 0.558745
C131  C     C_R   0.140165 0.999995 0.999999 0.558392
C132  C     C_R   0.000000 0.140164 0.999998 0.558796
C133  C     C_R   0.500009 0.000004 0.395633 0.022107
C134  C     C_R   0.500009 0.000013 0.214669 0.435181
C135  C     C_R   0.999997 0.499989 0.395930 0.032784
C136  C     C_R   0.499992 0.000003 0.604368 0.022056
C137  C     C_R   0.999284 0.500034 0.604315 0.023949
C138  C     C_R   0.999898 0.498210 0.895906 0.031552
C139  C     C_R   0.500003 0.999990 0.895930 0.032800
C140  C     C_R   0.999992 0.499998 0.104366 0.022128
C141  C     C_R   0.500003 0.000010 0.104068 0.032782
C142  C     C_3   0.428722 0.119564 0.396942 -0.271643
C143  C     C_3   0.346530 0.109603 0.400602 -0.401924
C144  C     C_3   0.861936 0.488042 0.397874 -0.283316
Cu1   Cu    Cu3+1 0.572410 0.000000 0.500000 0.921581
Cu2   Cu    Cu3+1 0.500000 0.500000 0.534090 0.961711
Cu3   Cu    Cu3+1 0.000000 1.000000 0.965910 0.964055
Cu4   Cu    Cu3+1 1.000000 0.000000 0.034090 0.964836
Cu5   Cu    Cu3+1 1.000000 0.572410 0.500000 0.922932
Cu6   Cu    Cu3+1 0.427590 0.000000 0.500000 0.921295
Cu7   Cu    Cu3+1 0.000000 0.427590 0.500000 0.923661
Cu8   Cu    Cu3+1 0.072410 0.500000 0.000000 0.921605
Cu9   Cu    Cu3+1 0.500000 0.072410 0.000000 0.924028
Cu10  Cu    Cu3+1 0.927590 0.500000 0.000000 0.929280
Cu11  Cu    Cu3+1 0.500000 0.927590 0.000000 0.924254
Cu12  Cu    Cu3+1 0.500000 0.500000 0.465910 0.964465
H1    H     H_    0.319414 0.110524 0.375132 0.170135
H2    H     H_    0.816822 0.513295 0.383141 0.144898
H3    H     H_    0.680609 0.889498 0.375110 0.170139
H4    H     H_    0.666078 0.942810 0.413440 0.183097
H5    H     H_    0.676130 0.845483 0.416373 0.142364
H6    H     H_    0.547490 0.873438 0.422909 0.164582
H7    H     H_    0.559315 0.827974 0.384064 0.123842
H8    H     H_    0.162772 0.624233 0.383586 0.146787
H9    H     H_    0.116581 0.614557 0.424180 0.190846
H10   H     H_    0.211224 0.590801 0.420679 0.148683
H11   H     H_    0.135233 0.479200 0.421803 0.161151
H12   H     H_    0.333937 0.057203 0.413454 0.183096
H13   H     H_    0.183171 0.486679 0.383121 0.144902
H14   H     H_    0.319350 0.889507 0.624889 0.169860
H15   H     H_    0.333896 0.942824 0.586565 0.183414
H16   H     H_    0.323785 0.845499 0.583619 0.141879
H17   H     H_    0.452440 0.873443 0.577075 0.164609
H18   H     H_    0.440604 0.827969 0.615914 0.122884
H19   H     H_    0.874966 0.670244 0.624895 0.171144
H20   H     H_    0.929446 0.660841 0.586531 0.182375
H21   H     H_    0.831623 0.663591 0.583510 0.143534
H22   H     H_    0.870462 0.537839 0.576179 0.163235
H23   H     H_    0.323890 0.154530 0.416402 0.142358
H24   H     H_    0.822558 0.544771 0.614639 0.124143
H25   H     H_    0.680632 0.110514 0.624887 0.170891
H26   H     H_    0.666092 0.057191 0.586561 0.183431
H27   H     H_    0.676195 0.154516 0.583620 0.142318
H28   H     H_    0.547543 0.126563 0.577084 0.164549
H29   H     H_    0.559372 0.172038 0.615926 0.122990
H30   H     H_    0.123116 0.329797 0.625566 0.172261
H31   H     H_    0.069956 0.339469 0.586812 0.182848
H32   H     H_    0.167873 0.336912 0.584537 0.142892
H33   H     H_    0.129139 0.462665 0.577177 0.162227
H34   H     H_    0.452527 0.126569 0.422927 0.164592
H35   H     H_    0.175616 0.455423 0.616041 0.123542
H36   H     H_    0.891055 0.675833 0.875946 0.174801
H37   H     H_    0.883173 0.625257 0.915668 0.180724
H38   H     H_    0.917883 0.716996 0.916062 0.146517
H39   H     H_    0.019008 0.631828 0.922754 0.161955
H40   H     H_    0.028478 0.677904 0.883923 0.127471
H41   H     H_    0.337534 0.875286 0.883551 0.144765
H42   H     H_    0.383706 0.885011 0.924142 0.190966
H43   H     H_    0.289005 0.908542 0.920662 0.147903
H44   H     H_    0.364717 0.020324 0.921829 0.161200
H45   H     H_    0.440711 0.172039 0.384087 0.123838
H46   H     H_    0.316801 0.012793 0.883147 0.145085
H47   H     H_    0.114534 0.330418 0.884774 0.146719
H48   H     H_    0.106666 0.378594 0.924960 0.189841
H49   H     H_    0.079454 0.284756 0.922322 0.149917
H50   H     H_    0.970456 0.364611 0.922649 0.163424
H51   H     H_    0.976702 0.314936 0.884392 0.148117
H52   H     H_    0.662473 0.124691 0.883544 0.147435
H53   H     H_    0.616304 0.114976 0.924139 0.190777
H54   H     H_    0.711004 0.091442 0.920649 0.149299
H55   H     H_    0.635286 0.979662 0.921819 0.161518
H56   H     H_    0.837221 0.375743 0.383601 0.146787
H57   H     H_    0.683204 0.987182 0.883134 0.146544
H58   H     H_    0.819449 0.389318 0.124872 0.170196
H59   H     H_    0.833955 0.442645 0.086547 0.183280
H60   H     H_    0.823949 0.345309 0.083603 0.142604
H61   H     H_    0.952574 0.373395 0.077070 0.164741
H62   H     H_    0.940773 0.327907 0.115908 0.123920
H63   H     H_    0.337084 0.123975 0.116391 0.146851
H64   H     H_    0.383294 0.114326 0.075801 0.191051
H65   H     H_    0.288677 0.090424 0.079301 0.148881
H66   H     H_    0.364791 0.978942 0.078200 0.161292
H67   H     H_    0.883419 0.385431 0.424189 0.190861
H68   H     H_    0.316841 0.986394 0.116880 0.144923
H69   H     H_    0.180534 0.610672 0.124880 0.170185
H70   H     H_    0.166036 0.557346 0.086550 0.183324
H71   H     H_    0.176045 0.654682 0.083616 0.142453
H72   H     H_    0.047421 0.626602 0.077083 0.164680
H73   H     H_    0.059213 0.672085 0.115927 0.123895
H74   H     H_    0.662928 0.876052 0.116366 0.146866
H75   H     H_    0.616716 0.885692 0.075782 0.191105
H76   H     H_    0.711332 0.909599 0.079274 0.148939
H77   H     H_    0.635211 0.021077 0.078187 0.161295
H78   H     H_    0.788775 0.409186 0.420700 0.148710
H79   H     H_    0.683166 0.013635 0.116861 0.144943
H80   H     H_    0.414169 0.164240 0.328935 0.111374
H81   H     H_    0.821914 0.443954 0.333453 0.114947
H82   H     H_    0.585862 0.835779 0.328911 0.111377
H83   H     H_    0.178074 0.556007 0.333435 0.114945
H84   H     H_    0.414117 0.835745 0.671070 0.108741
H85   H     H_    0.825730 0.568800 0.669944 0.110754
H86   H     H_    0.585863 0.164260 0.671080 0.109451
H87   H     H_    0.170392 0.431584 0.671441 0.108852
H88   H     H_    0.005119 0.681704 0.829201 0.111077
H89   H     H_    0.864765 0.520788 0.421818 0.161184
H90   H     H_    0.322056 0.943522 0.833440 0.113963
H91   H     H_    0.046027 0.317501 0.833973 0.115346
H92   H     H_    0.677955 0.056445 0.833430 0.116543
H93   H     H_    0.914225 0.335675 0.171062 0.111381
H94   H     H_    0.321868 0.055764 0.166560 0.114952
H95   H     H_    0.085744 0.664311 0.171080 0.111376
H96   H     H_    0.678147 0.944269 0.166537 0.114953
N1    N     N_R   0.485839 0.938018 0.266614 -0.167955
N2    N     N_R   0.486165 0.062075 0.767646 -0.154996
N3    N     N_R   0.935817 0.472708 0.766878 -0.112730
N4    N     N_R   0.513839 0.937909 0.767636 -0.154424
N5    N     N_R   0.985771 0.561964 0.233386 -0.167949
N6    N     N_R   0.486236 0.937909 0.232355 -0.153923
N7    N     N_R   0.014201 0.438010 0.233376 -0.167949
N8    N     N_R   0.513784 0.062115 0.232360 -0.153905
N9    N     N_R   0.986172 0.562072 0.267645 -0.153967
N10   N     N_R   0.514186 0.062004 0.266619 -0.167949
N11   N     N_R   0.013804 0.437898 0.267635 -0.153953
N12   N     N_R   0.485766 0.061968 0.733387 -0.168778
N13   N     N_R   0.054627 0.522138 0.733865 -0.177507
N14   N     N_R   0.514232 0.938022 0.733377 -0.167650
N15   N     N_R   0.936986 0.473809 0.732624 -0.161873
N16   N     N_R   0.053649 0.520581 0.768126 -0.202277
O1    O     O_R   0.561130 0.105710 0.500120 -0.503264
O2    O     O_R   0.394290 0.061130 0.000120 -0.505216
O3    O     O_R   0.938870 0.394290 0.000120 -0.507176
O4    O     O_R   0.605710 0.938870 0.000120 -0.504951
O5    O     O_R   0.061130 0.394290 0.999880 -0.502784
O6    O     O_R   0.394290 0.938870 0.999880 -0.505734
O7    O     O_R   0.938870 0.605710 0.999880 -0.499366
O8    O     O_R   0.605710 0.061130 0.999880 -0.505584
O9    O     O_R   0.561130 0.999920 0.450200 -0.509119
O10   O     O_R   0.000080 0.561130 0.450200 -0.511088
O11   O     O_R   0.438870 0.000080 0.450200 -0.509123
O12   O     O_R   0.894290 0.561130 0.500120 -0.505758
O13   O     O_R   0.999920 0.438870 0.450200 -0.511130
O14   O     O_R   0.561130 0.000080 0.549800 -0.509064
O15   O     O_R   0.000080 0.438870 0.549800 -0.507951
O16   O     O_R   0.438870 0.999920 0.549800 -0.509191
O17   O     O_R   0.999920 0.561130 0.549800 -0.508436
O18   O     O_R   0.061130 0.499920 0.950200 -0.513508
O19   O     O_R   0.500080 0.061130 0.950200 -0.510845
O20   O     O_R   0.938870 0.500080 0.950200 -0.505154
O21   O     O_R   0.499920 0.938870 0.950200 -0.510596
O22   O     O_R   0.061130 0.500080 0.049800 -0.508882
O23   O     O_R   0.438870 0.894290 0.500120 -0.503319
O24   O     O_R   0.500080 0.938870 0.049800 -0.510852
O25   O     O_R   0.938870 0.499920 0.049800 -0.509269
O26   O     O_R   0.499920 0.061130 0.049800 -0.510818
O27   O     O_R   0.394020 0.499870 0.471240 -0.504995
O28   O     O_R   0.500130 0.394020 0.471240 -0.503927
O29   O     O_R   0.605980 0.500130 0.471240 -0.505029
O30   O     O_R   0.499870 0.605980 0.471240 -0.503927
O31   O     O_R   0.394020 0.500130 0.528760 -0.504368
O32   O     O_R   0.500130 0.605980 0.528760 -0.504533
O33   O     O_R   0.605980 0.499870 0.528760 -0.504108
O34   O     O_R   0.105710 0.438870 0.500120 -0.505432
O35   O     O_R   0.499870 0.394020 0.528760 -0.504484
O36   O     O_R   0.894020 0.999870 0.971240 -0.503976
O37   O     O_R   0.000130 0.894020 0.971240 -0.505576
O38   O     O_R   0.105980 0.000130 0.971240 -0.504960
O39   O     O_R   0.999870 0.105980 0.971240 -0.505211
O40   O     O_R   0.894020 0.000130 0.028760 -0.504758
O41   O     O_R   0.000130 0.105980 0.028760 -0.503371
O42   O     O_R   0.105980 0.999870 0.028760 -0.504649
O43   O     O_R   0.999870 0.894020 0.028760 -0.503412
O44   O     O_2   0.374273 0.086966 0.298907 -0.450167
O45   O     O_R   0.561130 0.894290 0.499880 -0.503403
O46   O     O_2   0.851309 0.507542 0.294969 -0.446433
O47   O     O_2   0.625754 0.913056 0.298888 -0.450167
O48   O     O_2   0.148672 0.492411 0.294953 -0.446436
O49   O     O_2   0.374266 0.912996 0.701116 -0.451459
O50   O     O_2   0.897200 0.613548 0.701570 -0.440064
O51   O     O_2   0.625723 0.087008 0.701113 -0.447913
O52   O     O_2   0.097741 0.384786 0.701805 -0.455768
O53   O     O_2   0.937882 0.634251 0.796557 -0.438498
O54   O     O_2   0.351321 0.007191 0.794964 -0.445933
O55   O     O_2   0.977182 0.344608 0.797127 -0.446500
O56   O     O_R   0.894290 0.438870 0.499880 -0.503093
O57   O     O_2   0.648687 0.992774 0.794953 -0.442217
O58   O     O_2   0.874299 0.412902 0.201100 -0.450094
O59   O     O_2   0.351333 0.992233 0.205045 -0.446450
O60   O     O_2   0.125674 0.587078 0.201103 -0.450113
O61   O     O_2   0.648685 0.007805 0.205029 -0.446445
O62   O     O_R   0.438870 0.105710 0.499880 -0.503474
O63   O     O_R   0.105710 0.561130 0.499880 -0.503246
O64   O     O_R   0.061130 0.605710 0.000120 -0.507380

loop_
_geom_bond_atom_site_label_1
_geom_bond_atom_site_label_2
_ccdc_geom_bond_type
C123  O4    A    
C49   C113  S    
C26   H62   S    
C19   C20   S    
C43   O53   D    
C66   C79   S    
C18   H36   S    
C19   H44   S    
C37   O47   D    
C41   C105  S    
C22   H47   S    
C38   O48   D    
N7    N11   A    
Cu7   O13   S    
Cu11  O24   S    
C45   C109  S    
C92   C109  A    
C57   O56   A    
C94   C111  A    
Cu5   O12   S    
C71   C80   T    
C30   C96   S    
N1    N6    A    
C126  O35   A    
C97   C115  A    
C33   H76   S    
C85   C103  A    
C93   C110  A    
Cu2   O35   S    
C60   O21   A    
C21   C22   S    
Cu11  O21   S    
C96   C114  A    
C125  O27   A    
C128  O32   A    
C126  O28   A    
Cu8   O22   S    
C24   C120  S    
C142  H45   S    
C30   H72   S    
C17   C89   S    
C112  O5    A    
C16   H32   S    
C50   C114  S    
C5    H5    S    
C52   N9    A    
C44   O54   D    
C134  N6    A    
C65   C68   S    
Cu7   O34   S    
C42   C106  S    
C20   H42   S    
C70   C112  S    
C49   H94   S    
C7    H10   S    
C69   C101  S    
C83   C100  A    
C27   H60   S    
N5    N9    A    
C105  C118  A    
C9    H15   S    
C132  O39   A    
C107  C120  A    
C23   H57   S    
C36   H81   S    
C52   N11   A    
C15   H35   S    
Cu8   O64   S    
C87   C136  A    
Cu1   O9    S    
C4    C5    S    
C6    C7    S    
Cu2   O32   S    
C43   H88   S    
C113  C124  A    
C12   H29   S    
C62   O26   A    
C36   C99   S    
Cu8   O18   S    
Cu2   O33   S    
C28   H66   S    
C89   C138  A    
C58   O15   A    
C68   O23   A    
C55   O13   A    
C35   N15   A    
C109  C120  A    
C21   C92   S    
C84   C135  A    
C18   H38   S    
C84   C102  A    
Cu5   O63   S    
C69   C77   T    
Cu3   Cu4   S    
C86   C104  A    
Cu11  O4    S    
C11   H20   S    
C71   C123  S    
Cu5   Cu7   S    
C110  C121  A    
C8    H18   S    
C1    O1    A    
C48   H93   S    
C77   C131  S    
C78   C132  S    
Cu6   O11   S    
C76   C130  S    
C51   O61   D    
Cu9   O19   S    
C27   H58   S    
C64   C73   T    
Cu10  O20   S    
C11   H21   S    
C143  H23   S    
C132  O41   A    
C25   H52   S    
Cu1   Cu6   S    
C104  C119  A    
C52   C117  S    
C2    N7    A    
C15   H33   S    
N2    N12   A    
C144  H89   S    
C111  C122  A    
Cu11  O6    S    
C112  O3    A    
C56   C136  S    
C88   C137  A    
Cu12  O29   S    
C82   C144  S    
C59   C138  S    
C67   C90   S    
C62   O24   A    
C65   C74   T    
C23   C93   S    
C21   H50   S    
C34   O44   D    
C99   C117  A    
C13   C121  S    
C87   C105  A    
C28   H68   S    
C5    H4    S    
C17   C18   S    
C4    H7    S    
C35   N13   A    
C51   H96   S    
C79   O34   A    
C102  C117  A    
C81   C142  S    
C101  O6    A    
C40   O50   D    
C50   O60   D    
C10   C86   S    
C3    H67   S    
C80   C129  S    
Cu12  O27   S    
C12   C14   S    
C96   C140  A    
C61   C140  S    
C81   C133  A    
Cu9   O26   S    
C59   O20   A    
C124  C134  S    
C37   H82   S    
N3    N15   A    
C13   N2    A    
C68   O45   A    
C25   H54   S    
C10   C11   S    
Cu6   O62   S    
C85   C136  A    
C57   O12   A    
C2    N5    A    
C31   H70   S    
C17   H40   S    
C33   H75   S    
C37   C100  S    
Cu4   O41   S    
C26   C94   S    
C54   O11   A    
C106  C119  A    
C94   C140  A    
C82   C99   A    
Cu9   O2    S    
C100  C116  A    
C108  C121  A    
C92   C138  A    
C14   H27   S    
C129  O36   A    
C29   H65   S    
Cu3   O38   S    
C26   C27   S    
C30   H73   S    
C28   C29   S    
C90   O64   A    
Cu8   O5    S    
C30   C31   S    
C81   C98   A    
C61   O22   A    
C142  H34   S    
C42   O52   D    
C42   H87   S    
C46   C118  S    
C56   O14   A    
C82   C135  A    
C86   C137  A    
C14   H26   S    
C29   H64   S    
Cu9   Cu11  S    
C40   H85   S    
C44   H90   S    
C7    H9    S    
C24   N16   A    
C26   H61   S    
C27   H59   S    
C9    H14   S    
C53   N1    A    
C47   H92   S    
C32   H77   S    
C2    C122  S    
C6    C84   S    
C73   C127  S    
C13   N4    A    
C51   C115  S    
C72   C126  S    
C75   C125  S    
C45   O55   D    
C127  O29   A    
C46   N14   A    
C89   C107  A    
C43   C107  S    
C97   C141  A    
Cu4   O43   S    
C91   C139  A    
C1    O62   A    
C95   C141  A    
C54   O9    A    
C61   O25   A    
C4    H6    S    
C103  C118  A    
Cu10  O3    S    
C14   H25   S    
Cu3   O36   S    
C115  C124  A    
C91   C108  A    
C3    C144  S    
C16   H31   S    
C39   C103  S    
C130  O37   A    
C22   H48   S    
C7    H8    S    
C11   H19   S    
C60   O19   A    
C56   O16   A    
C10   H24   S    
C32   C33   S    
C54   C133  S    
C12   H28   S    
C4    C83   S    
C23   H55   S    
C66   C75   T    
C34   C98   S    
C79   O63   A    
C39   O49   D    
C20   H41   S    
C19   C91   S    
C63   C72   T    
C55   O10   A    
C142  C143  S    
C9    H16   S    
C50   H95   S    
C32   H79   S    
Cu10  O25   S    
C31   H71   S    
C70   C78   T    
C35   C119  S    
C34   H80   S    
C45   H91   S    
Cu4   O40   S    
Cu2   O31   S    
C28   C95   S    
C93   C139  A    
Cu12  O30   S    
C3    H78   S    
C125  O31   A    
C129  O40   A    
C41   O51   D    
C46   N12   A    
C15   C16   S    
Cu3   O39   S    
C32   C97   S    
Cu1   O1    S    
C8    C85   S    
C38   H83   S    
C74   C128  S    
Cu1   O45   S    
C8    C9    S    
C5    H3    S    
C90   O7    A    
C53   C116  S    
C18   H37   S    
Cu6   O23   S    
C59   O18   A    
Cu1   O14   S    
C1    C63   S    
C39   H84   S    
C143  H1    S    
C130  O43   A    
C44   C108  S    
C131  O42   A    
Cu12  O28   S    
C10   H22   S    
N8    N10   A    
C49   O59   D    
C48   O58   D    
C8    H17   S    
Cu6   O16   S    
C19   H46   S    
C53   N10   A    
C22   H49   S    
C24   N3    A    
C20   H43   S    
Cu7   O15   S    
C40   C104  S    
C88   C106  A    
C98   C116  A    
Cu5   O10   S    
C25   H53   S    
C58   C137  S    
Cu8   Cu10  S    
C31   H69   S    
C17   H39   S    
C62   C141  S    
C144  H2    S    
C33   H74   S    
C123  O8    A    
C57   C64   S    
Cu4   O42   S    
C3    H56   S    
N4    N14   A    
C6    H11   S    
C47   O57   D    
C12   C87   S    
Cu5   O17   S    
C131  O38   A    
Cu7   O56   S    
C127  O33   A    
C128  O30   A    
C47   C110  S    
C101  O2    A    
Cu3   O37   S    
C36   O46   D    
C41   H86   S    
C21   H51   S    
C38   C102  S    
C16   H30   S    
C95   C113  A    
C55   C135  S    
Cu9   O8    S    
C23   C25   S    
Cu10  O7    S    
N13   N16   A    
C143  H12   S    
C83   C133  A    
C60   C139  S    
C114  C122  A    
C29   H63   S    
C48   C111  S    
Cu2   Cu12  S    
C134  N8    A    
C15   C88   S    
C67   C76   T    
C6    H13   S    
C58   O17   A    
