data_mof_unit_45089.cif
_audit_creation_date              2012-12-11T16:22:17-0500
_audit_creation_method            fapswitch 2.2
_symmetry_space_group_name_H-M    P1
_symmetry_Int_Tables_number       1
_space_group_crystal_system       triclinic
_cell_length_a                    13.486211
_cell_length_b                    14.046147
_cell_length_c                    30.050825
_cell_angle_alpha                 98.057366
_cell_angle_beta                  90.065262
_cell_angle_gamma                 118.697719
_cell_volume                      4928.60058814

loop_
_atom_site_label
_atom_site_type_symbol
_atom_type_description
_atom_site_fract_x
_atom_site_fract_y
_atom_site_fract_z
_atom_type_partial_charge
C1    C     C_R   0.720865 0.098958 0.569200 0.546578
C2    C     C_1   0.357216 0.665786 0.764896 -0.035661
C3    C     C_1   0.360371 0.672812 0.725583 -0.034597
C4    C     C_R   0.383958 0.789676 0.551502 0.554395
C5    C     C_R   0.303969 0.601252 0.898031 0.018363
C6    C     C_3   0.229304 0.151019 0.724470 -0.103651
C7    C     C_3   0.228656 0.067407 0.753311 -0.103906
C8    C     C_1   0.297108 0.197021 0.876642 -0.017781
C9    C     C_1   0.364981 0.135605 0.613945 -0.027403
C10   C     C_3   0.313864 0.247198 0.760372 -0.098661
C11   C     C_3   0.313535 0.163451 0.788403 0.052924
C12   C     C_R   0.358617 0.683556 0.679105 -0.009622
C13   C     C_3   0.414943 0.247017 0.736171 -0.095534
C14   C     C_3   0.330286 0.151115 0.701002 0.050466
C15   C     C_3   0.414416 0.163520 0.764863 -0.099751
C16   C     C_R   0.397385 0.118701 0.569600 0.543227
C17   C     C_3   0.329906 0.067251 0.728965 -0.107332
C18   C     C_1   0.305168 0.177012 0.837039 -0.060253
C19   C     C_1   0.345348 0.144307 0.652831 -0.071254
C20   C     C_3   0.898481 0.271783 0.734337 -0.098505
C21   C     C_3   0.804438 0.249327 0.767460 -0.102349
C22   C     C_1   0.895297 0.203812 0.878531 -0.014015
C23   C     C_R   0.266008 0.685846 0.659738 -0.099984
C24   C     C_1   0.768668 0.131454 0.614738 -0.014169
C25   C     C_3   0.939511 0.205279 0.758653 -0.099569
C26   C     C_3   0.845021 0.182540 0.790958 0.050838
C27   C     C_3   0.857485 0.098501 0.726737 -0.101975
C28   C     C_R   0.719917 0.094973 0.442723 0.543046
C29   C     C_3   0.816883 0.165163 0.703168 0.051394
C30   C     C_3   0.763476 0.075993 0.759738 -0.099276
C31   C     C_3   0.722355 0.142429 0.735444 -0.100594
C32   C     C_1   0.866776 0.192743 0.839429 -0.058093
C33   C     C_1   0.795911 0.150581 0.654411 -0.057522
C34   C     C_R   0.269527 0.715049 0.616849 0.272813
C35   C     C_3   0.250798 0.594714 0.258271 -0.103254
C36   C     C_3   0.256256 0.679003 0.228903 -0.108757
C37   C     C_1   0.309835 0.608529 0.111140 -0.031380
C38   C     C_1   0.366714 0.736596 0.378021 -0.016999
C39   C     C_3   0.335185 0.574281 0.228963 -0.100271
C40   C     C_R   0.382274 0.784392 0.424364 0.547126
C41   C     C_3   0.340826 0.659080 0.200337 0.048143
C42   C     C_3   0.436380 0.667790 0.260274 -0.100081
C43   C     C_3   0.351690 0.687665 0.288774 0.051965
C44   C     C_3   0.441757 0.752105 0.230782 -0.095679
C45   C     C_R   0.255941 0.658587 0.832569 -0.117259
C46   C     C_3   0.357305 0.772430 0.260117 -0.094228
C47   C     C_1   0.328753 0.637182 0.151205 -0.073469
C48   C     C_1   0.358321 0.709071 0.337903 -0.059645
C49   C     C_R   0.356850 0.132321 0.400861 0.020805
C50   C     C_R   0.418836 0.233608 0.385569 -0.124903
C51   C     C_R   0.401542 0.242373 0.340969 -0.113153
C52   C     C_R   0.395936 0.114395 0.443032 0.540905
C53   C     C_R   0.322009 0.150348 0.311484 0.038436
C54   C     C_R   0.253556 0.051775 0.327234 -0.119534
C55   C     C_R   0.270345 0.042848 0.371904 -0.129769
C56   C     C_R   0.234624 0.631946 0.875769 -0.128910
C57   C     C_R   0.244198 0.088015 0.146556 -0.087207
C58   C     C_R   0.239259 0.105190 0.102076 0.268325
C59   C     C_R   0.404934 0.286430 0.121540 -0.173074
C60   C     C_R   0.410162 0.267510 0.165472 -0.136941
C61   C     C_R   0.327184 0.170380 0.178333 -0.009952
C62   C     C_1   0.322272 0.159715 0.224899 -0.029912
C63   C     C_1   0.319735 0.154345 0.264350 -0.030017
C64   C     C_R   0.365910 0.736921 0.592258 0.026705
C65   C     C_R   0.315930 0.208431 0.090073 0.018948
C66   C     C_R   0.778027 0.131174 0.402061 0.021014
C67   C     C_R   0.399954 0.605999 0.877701 -0.128814
C68   C     C_R   0.800786 0.059278 0.371923 -0.125795
C69   C     C_R   0.826473 0.079930 0.328228 -0.114882
C70   C     C_R   0.830537 0.172785 0.314630 0.037717
C71   C     C_R   0.817845 0.249566 0.345442 -0.114215
C72   C     C_R   0.792187 0.229197 0.389143 -0.123655
C73   C     C_R   0.871069 0.293172 0.166750 -0.103716
C74   C     C_R   0.900262 0.306788 0.122166 0.271929
C75   C     C_R   0.859019 0.115381 0.107503 -0.166135
C76   C     C_R   0.454757 0.725674 0.611097 -0.176781
C77   C     C_R   0.833993 0.104714 0.151920 -0.131665
C78   C     C_R   0.420836 0.632374 0.834444 -0.119945
C79   C     C_R   0.844401 0.194748 0.181796 -0.005722
C80   C     C_1   0.838393 0.189061 0.228745 -0.029685
C81   C     C_1   0.836063 0.183185 0.268109 -0.030675
C82   C     C_R   0.897536 0.217244 0.092637 0.032134
C83   C     C_R   0.284084 0.232470 0.922078 0.540673
C84   C     C_R   0.266718 0.547598 0.938159 0.537099
C85   C     C_R   0.945154 0.222021 0.922959 0.542034
C86   C     C_R   0.292967 0.243135 0.048915 0.549084
C87   C     C_R   0.275411 0.558910 0.065089 0.540301
C88   C     C_R   0.451650 0.700416 0.654484 -0.135085
C89   C     C_R   0.346776 0.655257 0.811440 0.035440
C90   C     C_R   0.953811 0.233193 0.050034 0.554753
C91   C     C_3   0.192668 0.960708 0.046752 -0.114115
C92   C     C_3   0.010119 0.496498 0.136396 -0.102795
C93   C     C_3   0.176095 0.814622 0.622534 -0.094966
Cr1   Cr    Cr6+3 0.583430 0.162610 0.509470 1.025762
Cr2   Cr    Cr6+3 0.584210 0.916680 0.495400 1.017604
Cr3   Cr    Cr6+3 0.332380 0.920740 0.495100 1.034451
Cr4   Cr    Cr6+3 0.086810 0.177030 0.983130 1.050857
Cr5   Cr    Cr6+3 0.337180 0.419300 0.994610 1.019119
Cr6   Cr    Cr6+3 0.084840 0.422330 0.995830 1.050309
H1    H     H_    0.160270 0.629182 0.890551 0.129545
H2    H     H_    0.707855 0.995847 0.770715 0.109071
H3    H     H_    0.879802 0.036938 0.709449 0.102139
H4    H     H_    0.198467 0.676623 0.814830 0.106178
H5    H     H_    0.029146 0.231064 0.768828 0.107477
H6    H     H_    0.182540 0.684054 0.215414 0.090539
H7    H     H_    0.172613 0.530086 0.270037 0.107610
H8    H     H_    0.366123 0.854105 0.273623 0.112523
H9    H     H_    0.519815 0.816685 0.218925 0.107828
H10   H     H_    0.510053 0.662774 0.273822 0.102888
H11   H     H_    0.326257 0.492589 0.215411 0.112209
H12   H     H_    0.153629 0.146233 0.707392 0.102690
H13   H     H_    0.180604 0.012106 0.156561 0.122276
H14   H     H_    0.191698 0.980283 0.304455 0.105817
H15   H     H_    0.192876 0.669843 0.678777 0.112361
H16   H     H_    0.221330 0.963742 0.382698 0.132055
H17   H     H_    0.485632 0.303974 0.407156 0.128551
H18   H     H_    0.475228 0.331244 0.190026 0.121212
H19   H     H_    0.465759 0.365636 0.113311 0.146824
H20   H     H_    0.454525 0.319083 0.328873 0.107415
H21   H     H_    0.873345 0.360120 0.190298 0.102553
H22   H     H_    0.821537 0.321932 0.335018 0.108087
H23   H     H_    0.336444 0.992973 0.715298 0.095370
H24   H     H_    0.775813 0.286429 0.411715 0.129598
H25   H     H_    0.790823 0.983341 0.380948 0.131048
H26   H     H_    0.811851 0.027719 0.163482 0.123319
H27   H     H_    0.855410 0.045450 0.085599 0.153411
H28   H     H_    0.836822 0.020482 0.304385 0.107954
H29   H     H_    0.529937 0.742685 0.593377 0.140603
H30   H     H_    0.491468 0.629927 0.818212 0.108100
H31   H     H_    0.455062 0.582908 0.894006 0.132244
H32   H     H_    0.523519 0.698148 0.669402 0.122117
H33   H     H_    0.152376 0.993464 0.761003 0.101703
H34   H     H_    0.490157 0.168361 0.781910 0.103033
H35   H     H_    0.262740 0.010877 0.026549 0.110503
H36   H     H_    0.122652 0.895617 0.022800 0.141317
H37   H     H_    0.220892 0.919301 0.068760 0.109006
H38   H     H_    0.076946 0.481491 0.150476 0.112745
H39   H     H_    0.968607 0.521871 0.163874 0.096554
H40   H     H_    0.052862 0.566578 0.117660 0.160296
H41   H     H_    0.260021 0.890421 0.624737 0.122263
H42   H     H_    0.146980 0.801003 0.656799 0.091355
H43   H     H_    0.114472 0.828644 0.603894 0.147137
H44   H     H_    0.491293 0.321018 0.728550 0.107089
H45   H     H_    0.307332 0.321524 0.773965 0.109512
H46   H     H_    0.782165 0.310857 0.784806 0.103792
H47   H     H_    0.954071 0.351859 0.723307 0.109391
H48   H     H_    0.632737 0.116565 0.725209 0.105702
O1    O     O_R   0.493980 0.188910 0.559650 -0.502787
O2    O     O_R   0.170560 0.527890 0.952050 -0.518930
O3    O     O_R   0.987620 0.318470 0.945550 -0.496051
O4    O     O_R   0.678640 0.153520 0.554450 -0.491740
O5    O     O_R   0.976400 0.159270 0.031530 -0.515665
O6    O     O_R   0.194000 0.188570 0.028560 -0.446676
O7    O     O_R   0.365260 0.335720 0.039020 -0.527633
O8    O     O_R   0.330440 0.515580 0.044910 -0.493414
O9    O     O_R   0.177310 0.536200 0.050190 -0.506267
O10   O     O_R   0.993870 0.326170 0.036530 -0.443158
O11   O     O_3   0.169610 0.339550 0.991190 -0.256674
O12   O     O_R   0.480180 0.824400 0.444640 -0.494707
O13   O     O_R   0.698130 0.004030 0.549500 -0.511407
O14   O     O_R   0.481060 0.827210 0.535360 -0.516296
O15   O     O_R   0.309260 0.811560 0.537660 -0.459081
O16   O     O_R   0.341620 0.023400 0.546290 -0.503736
O17   O     O_R   0.493030 0.185890 0.461780 -0.518400
O18   O     O_R   0.677760 0.150720 0.463730 -0.501724
O19   O     O_R   0.697180 0.001010 0.451640 -0.516617
O20   O     O_3   0.151768 0.024889 0.072171 -0.551322
O21   O     O_3   0.928633 0.404560 0.106387 -0.544686
O22   O     O_3   0.178727 0.721598 0.598943 -0.543090
O23   O     O_R   0.308310 0.808540 0.439800 -0.509951
O24   O     O_R   0.340740 0.020600 0.455570 -0.503811
O25   O     O_3   0.500010 0.000010 0.499990 -0.248901
O26   O     O_R   0.969650 0.150960 0.933380 -0.509509
O27   O     O_R   0.187740 0.180870 0.937580 -0.497584
O28   O     O_R   0.358510 0.327410 0.940870 -0.510414
O29   O     O_R   0.324180 0.507870 0.953930 -0.503965

loop_
_geom_bond_atom_site_label_1
_geom_bond_atom_site_label_2
_ccdc_geom_bond_type
C66   C68   A    
C21   C26   S    
Cr5   O7    S    
C11   C18   S    
C26   C32   S    
C83   O28   A    
C27   C29   S    
C8    C83   S    
C6    H12   S    
C5    C56   A    
C28   C66   S    
C35   C36   S    
C64   C76   A    
C5    C67   A    
C92   H39   S    
C68   H25   S    
C74   O21   S    
C77   H26   S    
C65   C86   S    
C39   C41   S    
C53   C54   A    
C7    C11   S    
Cr6   O2    S    
C12   C23   A    
C93   O22   S    
C22   C32   T    
Cr2   O12   S    
C91   O20   S    
C9    C16   S    
Cr2   O14   S    
C30   C31   S    
C57   H13   S    
C20   C25   S    
C54   H14   S    
C29   C33   S    
C52   O24   A    
C73   C74   A    
C22   C85   S    
C70   C81   S    
C85   O3    A    
C3    C12   S    
C45   H4    S    
Cr1   O25   S    
C54   C55   A    
C11   C15   S    
C9    C19   T    
C39   H11   S    
C66   C72   A    
C91   H37   S    
Cr5   O11   S    
C45   C56   A    
C68   C69   A    
C7    C17   S    
Cr3   O24   S    
C85   O26   A    
C36   C46   S    
C70   C71   A    
Cr4   O27   S    
Cr4   O6    S    
C37   C47   T    
C35   C43   S    
Cr2   O25   S    
C76   C88   A    
C38   C48   T    
C28   O19   A    
C20   H47   S    
C31   H48   S    
C84   O2    A    
C23   C34   A    
C44   H9    S    
C59   C60   A    
C16   O16   A    
C73   H21   S    
Cr3   O23   S    
C13   C14   S    
Cr6   O9    S    
C27   C30   S    
C14   C17   S    
C36   C41   S    
C69   C70   A    
C67   C78   A    
C42   C44   S    
C74   C82   A    
C92   H38   S    
Cr1   O18   S    
C40   O23   A    
C41   C47   S    
C44   C46   S    
C39   C42   S    
C20   C29   S    
C77   C79   A    
C78   C89   A    
Cr1   O1    S    
Cr6   O3    S    
Cr4   O26   S    
C12   C88   A    
Cr2   O13   S    
C90   O5    A    
C5    C84   S    
C25   C26   S    
C49   C55   A    
C8    C18   T    
C60   C61   A    
C51   C53   A    
C21   H46   S    
C2    C89   S    
C35   C39   S    
C62   C63   T    
C6    C14   S    
Cr5   O29   S    
C92   O21   S    
C58   C65   A    
C51   H20   S    
C49   C52   S    
C46   H8    S    
C21   C31   S    
C34   C64   A    
C50   C51   A    
C73   C79   A    
C60   H18   S    
C25   H5    S    
C10   H45   S    
C58   O20   S    
C75   C77   A    
C7    H33   S    
C34   O22   S    
C28   O18   A    
C52   O17   A    
C26   C30   S    
C59   H19   S    
C13   C15   S    
C72   H24   S    
C76   H29   S    
C41   C44   S    
C4    O15   A    
Cr6   O11   S    
C67   H31   S    
C42   C43   S    
C56   H1    S    
C78   H30   S    
Cr2   O19   S    
Cr1   O17   S    
C93   H42   S    
C43   C48   S    
C15   C17   S    
Cr5   O8    S    
C45   C89   A    
C36   H6    S    
C87   O9    A    
C42   H10   S    
C14   C19   S    
C86   O6    A    
C1    O13   A    
C37   C87   S    
C80   C81   T    
C10   C13   S    
C6    C10   S    
C75   C82   A    
C57   C61   A    
C6    C7    S    
C15   H34   S    
C87   O8    A    
C25   C27   S    
C4    C64   S    
C27   H3    S    
C24   C33   T    
C82   C90   S    
Cr3   O16   S    
C16   O1    A    
C75   H27   S    
Cr4   O11   S    
C90   O10   A    
Cr6   O10   S    
C2    C3    T    
Cr1   O4    S    
C71   C72   A    
C29   C31   S    
C35   H7    S    
C59   C65   A    
C23   H15   S    
C38   C40   S    
Cr5   O28   S    
C53   C63   S    
C57   C58   A    
C91   H35   S    
C55   H16   S    
C30   H2    S    
Cr4   O5    S    
Cr3   O15   S    
C1    O4    A    
C50   H17   S    
C13   H44   S    
C86   O7    A    
C61   C62   S    
C43   C46   S    
C10   C11   S    
C79   C80   S    
C71   H22   S    
C17   H23   S    
C91   H36   S    
C20   C21   S    
C69   H28   S    
C1    C24   S    
C49   C50   A    
Cr3   O25   S    
C83   O27   A    
C93   H41   S    
C4    O14   A    
C88   H32   S    
C84   O29   A    
C92   H40   S    
C40   O12   A    
C93   H43   S    
