data_mof_unit_27553.cif
_audit_creation_date              2012-10-26T18:53:16-0400
_audit_creation_method            fapswitch 2.2
_symmetry_space_group_name_H-M    P1
_symmetry_Int_Tables_number       1
_space_group_crystal_system       triclinic
_cell_length_a                    14.708469
_cell_length_b                    14.688173
_cell_length_c                    15.87815
_cell_angle_alpha                 76.686395
_cell_angle_beta                  103.206677
_cell_angle_gamma                 115.311843
_cell_volume                      2984.51475058

loop_
_atom_site_label
_atom_site_type_symbol
_atom_type_description
_atom_site_fract_x
_atom_site_fract_y
_atom_site_fract_z
_atom_type_partial_charge
C1    C     C_R   0.880011 0.311878 0.515569 0.548735
C2    C     C_R   0.188798 0.795419 0.490944 -0.001818
C3    C     C_R   0.786772 0.024697 0.565358 0.275442
C4    C     C_R   0.999959 0.499973 0.659713 0.550719
C5    C     C_R   0.851560 0.127667 0.550356 -0.115250
C6    C     C_R   0.708808 0.175557 0.528874 -0.127191
C7    C     C_R   0.642683 0.073375 0.548668 -0.011069
C8    C     C_R   0.681604 0.997178 0.561258 0.053150
C9    C     C_R   0.537423 0.044915 0.550260 -0.018284
C10   C     C_R   0.469575 0.942547 0.543998 -0.019377
C11   C     C_R   0.510606 0.868044 0.557495 -0.135633
C12   C     C_3   0.102966 0.499768 0.071832 -0.137402
C13   C     C_R   0.614735 0.894888 0.568397 -0.111624
C14   C     C_R   0.498265 0.113743 0.562277 0.303843
C15   C     C_R   0.393321 0.087960 0.549609 0.253633
C16   C     C_R   0.120138 0.688063 0.487047 0.545553
C17   C     C_R   0.324987 0.991636 0.526721 -0.006291
C18   C     C_R   0.363148 0.917740 0.526151 -0.013248
C19   C     C_R   0.219362 0.967047 0.504815 -0.130382
C20   C     C_R   0.151955 0.869362 0.488742 -0.134904
C21   C     C_R   0.293615 0.821606 0.505185 -0.108053
C22   C     C_R   0.711494 0.660549 0.346037 0.249928
C23   C     C_3   0.001843 0.501499 0.082930 -0.023337
C24   C     C_R   0.796664 0.636447 0.375793 0.067813
C25   C     C_R   0.714746 0.510605 0.488167 0.055960
C26   C     C_R   0.630101 0.538610 0.467901 -0.046053
C27   C     C_R   0.627408 0.610739 0.391915 -0.010867
C28   C     C_R   0.000157 0.500252 0.340247 0.556958
C29   C     C_R   0.546960 0.495044 0.517656 -0.006200
C30   C     C_R   0.455539 0.512721 0.482461 -0.022596
C31   C     C_R   0.451535 0.573777 0.398716 0.238683
C32   C     C_R   0.538739 0.627675 0.359198 -0.075857
C33   C     C_R   0.552387 0.436487 0.602382 0.300476
C34   C     C_3   0.991244 0.598402 0.026045 -0.200881
C35   C     C_R   0.465306 0.380948 0.641763 -0.037934
C36   C     C_R   0.375584 0.394902 0.607547 -0.001170
C37   C     C_R   0.371630 0.466715 0.531653 -0.010005
C38   C     C_R   0.291445 0.341990 0.652272 -0.148638
C39   C     C_R   0.205474 0.364143 0.624475 0.047813
C40   C     C_3   0.103968 0.497818 0.973922 0.431790
C41   C     C_R   0.284753 0.491215 0.511334 0.062996
C42   C     C_3   0.911927 0.406144 0.952718 -0.216847
C43   C     C_3   0.912226 0.406493 0.050229 -0.229507
C44   C     C_1   0.000626 0.500867 0.250544 -0.027900
C45   C     C_3   0.989156 0.598212 0.927607 0.153833
C46   C     C_3   0.002022 0.501238 0.917394 0.118809
C47   C     C_3   0.869061 0.937475 0.665272 -0.145034
C48   C     C_3   0.583335 0.180989 0.686496 -0.095556
C49   C     C_3   0.700899 0.698399 0.197987 -0.136692
C50   C     C_3   0.312320 0.501352 0.302070 -0.122392
C51   C     C_3   0.691878 0.519036 0.694516 -0.141511
C52   C     C_3   0.902065 0.698572 0.847582 -0.161118
C53   C     C_1   0.001111 0.501326 0.174994 -0.080474
C54   C     C_1   0.000659 0.500738 0.824856 -0.011194
C55   C     C_1   0.000086 0.500352 0.749288 -0.023749
C56   C     C_R   0.812719 0.203315 0.531127 -0.064181
Cu1   Cu    Cu3+1 0.081750 0.475690 0.522550 0.944258
Cu2   Cu    Cu3+1 0.918250 0.524310 0.477450 0.943968
H1    H     H_    0.112546 0.431585 0.114095 0.151167
H2    H     H_    0.187395 0.022284 0.500392 0.128256
H3    H     H_    0.533664 0.677920 0.298134 0.180334
H4    H     H_    0.280253 0.554136 0.463012 0.196391
H5    H     H_    0.140571 0.324033 0.659094 0.121972
H6    H     H_    0.470408 0.331567 0.703441 0.122411
H7    H     H_    0.863062 0.676032 0.343003 0.135981
H8    H     H_    0.716997 0.446775 0.536589 0.216431
H9    H     H_    0.838196 0.405007 0.914027 0.153808
H10   H     H_    0.292976 0.285376 0.709430 0.090658
H11   H     H_    0.917142 0.334971 0.945653 0.138054
H12   H     H_    0.168059 0.566919 0.096267 0.096415
H13   H     H_    0.918542 0.335854 0.090109 0.134278
H14   H     H_    0.838792 0.406088 0.058186 0.134410
H15   H     H_    0.054716 0.666350 0.903356 0.097147
H16   H     H_    0.056040 0.667532 0.047521 0.075019
H17   H     H_    0.196444 0.643407 0.959917 0.292457
H18   H     H_    0.298004 0.122900 0.588368 0.303202
H19   H     H_    0.811988 0.913503 0.710117 0.104290
H20   H     H_    0.935461 0.007732 0.682374 0.110453
H21   H     H_    0.896899 0.875923 0.675353 0.134304
H22   H     H_    0.127960 0.411594 0.911407 0.350579
H23   H     H_    0.920575 0.602605 0.035710 0.159680
H24   H     H_    0.620436 0.125696 0.705921 0.092967
H25   H     H_    0.513429 0.151807 0.717402 0.124260
H26   H     H_    0.637549 0.251864 0.712476 0.180417
H27   H     H_    0.630602 0.627692 0.191301 0.113823
H28   H     H_    0.768628 0.684562 0.194809 0.109090
H29   H     H_    0.693643 0.756436 0.141225 0.150334
H30   H     H_    0.292986 0.425640 0.344259 0.135676
H31   H     H_    0.358261 0.507830 0.252485 0.124582
H32   H     H_    0.239874 0.506155 0.266456 0.144413
H33   H     H_    0.645700 0.516491 0.742301 0.118938
H34   H     H_    0.642313 0.834887 0.579359 0.155345
H35   H     H_    0.709883 0.591814 0.648150 0.122062
H36   H     H_    0.764946 0.517359 0.731685 0.190409
H37   H     H_    0.953022 0.735618 0.796675 0.116864
H38   H     H_    0.928705 0.744830 0.901604 0.110113
H39   H     H_    0.825367 0.695676 0.816714 0.130421
H40   H     H_    0.319265 0.765295 0.498861 0.129670
H41   H     H_    0.071015 0.851283 0.476274 0.141450
H42   H     H_    0.931832 0.147910 0.551787 0.141390
H43   H     H_    0.679580 0.234422 0.507642 0.197238
H44   H     H_    0.464319 0.787480 0.563380 0.111296
N1    N     N_R   0.795410 0.560790 0.443550 -0.283640
N2    N     N_R   0.204590 0.439170 0.556520 -0.245406
O1    O     O_R   0.977910 0.338120 0.529720 -0.506313
O2    O     O_3   0.361304 0.159088 0.561881 -0.677903
O3    O     O_3   0.825327 0.950989 0.576991 -0.565481
O4    O     O_3   0.110945 0.406160 0.969870 -0.689056
O5    O     O_3   0.561287 0.203625 0.594705 -0.538692
O6    O     O_3   0.712389 0.736316 0.275400 -0.575480
O7    O     O_3   0.362985 0.581641 0.352200 -0.600250
O8    O     O_3   0.642535 0.433811 0.650067 -0.602733
O9    O     O_3   0.895100 0.598102 0.878916 -0.585283
O10   O     O_R   0.839850 0.379180 0.491640 -0.503125
O11   O     O_R   0.069060 0.479460 0.639610 -0.495827
O12   O     O_R   0.931000 0.520530 0.601530 -0.489591
O13   O     O_R   0.160150 0.620820 0.508360 -0.511393
O14   O     O_R   0.022090 0.661880 0.470280 -0.504909
O15   O     O_R   0.069000 0.479470 0.398470 -0.491497
O16   O     O_R   0.930940 0.520540 0.360390 -0.501923
O17   O     O_3   0.189712 0.579889 0.942620 -0.694096

loop_
_geom_bond_atom_site_label_1
_geom_bond_atom_site_label_2
_ccdc_geom_bond_type
C14   O5    S    
Cu1   O1    S    
C51   O8    S    
C18   C21   A    
C49   H29   S    
C4    O11   A    
C19   C20   A    
C47   H21   S    
C7    C8    A    
Cu1   O11   S    
C45   C46   S    
C40   C46   S    
C40   O17   S    
C12   C23   S    
C26   C27   A    
C8    C13   A    
C15   O2    S    
C36   C37   A    
C1    C56   S    
C32   H3    S    
C30   C31   A    
C38   H10   S    
C29   C33   A    
C52   H39   S    
Cu2   O14   S    
C23   C43   S    
C52   H37   S    
C45   H15   S    
C42   C46   S    
C6    H43   S    
C5    C56   A    
C51   H33   S    
C12   H1    S    
C44   C53   T    
C50   H32   S    
C35   C36   A    
C22   O6    S    
C43   H13   S    
C35   H6    S    
C34   H23   S    
C2    C16   S    
C9    C10   A    
C50   H30   S    
C40   O4    S    
C48   O5    S    
C43   H14   S    
Cu2   O12   S    
C41   H4    S    
C23   C53   S    
C2    C20   A    
C49   H27   S    
C39   N2    A    
C3    C8    A    
C28   O16   A    
C33   O8    S    
C25   N1    A    
C3    O3    S    
C25   C26   A    
C52   O9    S    
C28   C44   S    
C42   H11   S    
C48   H26   S    
C30   C37   A    
C12   C40   S    
C9    C14   A    
C29   C30   A    
C16   O14   A    
C50   H31   S    
C31   C32   A    
C5    H42   S    
C23   C34   S    
C46   C54   S    
C2    C21   A    
Cu2   O16   S    
C17   C18   A    
C34   C45   S    
C24   H7    S    
C51   H35   S    
C34   H16   S    
C47   O3    S    
C22   C27   A    
C4    C55   S    
C42   H9    S    
C22   C24   A    
C42   C43   S    
C47   H19   S    
C17   C19   A    
Cu1   O13   S    
C7    C9    A    
Cu1   N2    S    
C12   H12   S    
C54   C55   T    
H18   O2    S    
C27   C32   A    
H17   O17   S    
C49   H28   S    
C4    O12   A    
C25   H8    S    
C6    C56   A    
C3    C5    A    
C28   O15   A    
C48   H25   S    
C15   C17   A    
C6    C7    A    
C19   H2    S    
C39   H5    S    
H22   O4    S    
C41   N2    A    
Cu1   O15   S    
C24   N1    A    
C36   C38   A    
C13   H34   S    
C16   O13   A    
C21   H40   S    
C11   C13   A    
Cu1   Cu2   S    
C38   C39   A    
C20   H41   S    
C10   C18   A    
C50   O7    S    
C33   C35   A    
C48   H24   S    
C52   H38   S    
C11   H44   S    
C37   C41   A    
C10   C11   A    
C51   H36   S    
C45   O9    S    
C26   C29   A    
C1    O10   A    
Cu2   O10   S    
C31   O7    S    
C14   C15   A    
Cu2   N1    S    
C47   H20   S    
C1    O1    A    
C49   O6    S    
