data_mof_unit_23716.cif
_audit_creation_date              2012-12-10T17:02:14-0500
_audit_creation_method            fapswitch 2.2
_symmetry_space_group_name_H-M    P1
_symmetry_Int_Tables_number       1
_space_group_crystal_system       triclinic
_cell_length_a                    10.634931
_cell_length_b                    10.725486
_cell_length_c                    10.009214
_cell_angle_alpha                 89.58849
_cell_angle_beta                  87.504753
_cell_angle_gamma                 90.219023
_cell_volume                      1140.57732099

loop_
_atom_site_label
_atom_site_type_symbol
_atom_type_description
_atom_site_fract_x
_atom_site_fract_y
_atom_site_fract_z
_atom_type_partial_charge
C1    C     C_R   0.495748 0.262585 0.500475 0.918106
C2    C     C_R   0.055530 0.396500 0.587157 -0.066588
C3    C     C_R   0.126076 0.490715 0.514826 -0.066070
C4    C     C_R   0.068370 0.579943 0.436190 -0.222221
C5    C     C_R   0.940576 0.579301 0.427883 -0.228617
C6    C     C_R   0.871435 0.484408 0.490803 -0.040104
C7    C     C_2   0.476384 0.933107 0.390441 -0.166653
C8    C     C_2   0.512486 0.869045 0.496806 -0.345252
C9    C     C_2   0.483187 0.067280 0.388197 -0.156297
C10   C     C_2   0.481450 0.131017 0.502265 -0.357222
C11   C     C_2   0.555361 0.586769 0.920892 0.469689
C12   C     C_R   0.259850 0.492374 0.504205 0.890633
C13   C     C_2   0.562665 0.580617 0.071761 -0.271961
C14   C     C_R   0.502249 0.737376 0.499305 0.909571
C15   C     C_R   0.739535 0.497330 0.497055 0.849093
C16   C     C_R   0.103176 0.313307 0.685401 0.348420
C17   C     C_R   0.036072 0.201337 0.718098 0.394988
C18   C     C_R   0.913993 0.186694 0.676161 -0.266220
C19   C     C_R   0.858370 0.280025 0.602782 -0.269753
C20   C     C_R   0.927705 0.386457 0.560048 0.031442
H1    H     H_    0.122633 0.652101 0.383197 0.153605
H2    H     H_    0.466330 0.087554 0.599567 0.145606
H3    H     H_    0.475345 0.419677 0.899881 0.111288
H4    H     H_    0.619437 0.650066 0.119602 0.175476
H5    H     H_    0.439790 0.441480 0.104710 0.147844
H6    H     H_    0.859634 0.104854 0.706375 0.180868
H7    H     H_    0.761550 0.266868 0.576849 0.170960
H8    H     H_    0.895301 0.653469 0.373864 0.146169
H9    H     H_    0.442945 0.886855 0.302372 0.172833
H10   H     H_    0.552782 0.911964 0.582853 0.152927
H11   H     H_    0.489132 0.113408 0.291101 0.174401
N1    N     N_2   0.501340 0.501330 0.852150 -0.204412
N2    N     N_2   0.501380 0.501360 0.147810 -0.204557
O1    O     O_R   0.499980 0.319060 0.613040 -0.612372
O2    O     O_R   0.500020 0.319100 0.386900 -0.615472
O3    O     O_R   0.316750 0.499980 0.613090 -0.558835
O4    O     O_R   0.316790 0.500020 0.386950 -0.625437
O5    O     O_R   0.499980 0.680900 0.613100 -0.567903
O6    O     O_R   0.500020 0.680940 0.386960 -0.613274
O7    O     O_R   0.683210 0.499980 0.613050 -0.615084
O8    O     O_R   0.683250 0.500020 0.386910 -0.611942
Zn1   Zn    Zn3+2 0.499970 0.499970 0.650990 0.983952
Zn2   Zn    Zn3+2 0.500030 0.500030 0.349010 0.931284
O9    O     O_3   0.601608 0.691568 0.853709 -0.611952
C21   C     C_3   0.734382 0.693248 0.854022 0.106752
H12   H     H_    0.775401 0.599146 0.834156 0.141878
H13   H     H_    0.765446 0.727015 0.952137 0.117291
C22   C     C_3   0.784006 0.782821 0.744165 -0.300992
H14   H     H_    0.752153 0.751101 0.645749 0.224246
H15   H     H_    0.745397 0.877531 0.763238 0.211295
C23   C     C_3   0.927313 0.789680 0.738058 -0.975976
H16   H     H_    0.961117 0.824254 0.834379 0.271282
H17   H     H_    0.959712 0.855020 0.657072 0.266607
H18   H     H_    0.967944 0.696332 0.716671 0.277876
O10   O     O_3   0.206413 0.346831 0.757493 -0.608334
C24   C     C_3   0.171553 0.368632 0.894315 0.161971
H19   H     H_    0.258824 0.373849 0.950755 0.121551
H20   H     H_    0.117860 0.290235 0.941909 0.141522
C25   C     C_3   0.096293 0.489440 0.917445 -0.425139
H21   H     H_    0.014414 0.493249 0.852389 0.209937
H22   H     H_    0.058356 0.488950 0.022747 0.186359
C26   C     C_3   0.176835 0.606412 0.896336 -0.776063
H23   H     H_    0.264073 0.600098 0.953029 0.241154
H24   H     H_    0.122668 0.688177 0.933405 0.223785
H25   H     H_    0.201096 0.621409 0.788753 0.289167
O11   O     O_3   0.078351 0.115268 0.809313 -0.657616
C27   C     C_3   0.186620 0.053993 0.757195 0.081111
H26   H     H_    0.262295 0.120841 0.724743 0.168477
H27   H     H_    0.161850 0.995249 0.670801 0.140589
C28   C     C_3   0.236270 0.970967 0.867795 -0.367467
H28   H     H_    0.265595 0.030198 0.951765 0.220304
H29   H     H_    0.159822 0.908088 0.906510 0.226907
C29   C     C_3   0.347693 0.892455 0.818410 -0.886862
H30   H     H_    0.321857 0.835927 0.731188 0.270493
H31   H     H_    0.375400 0.828451 0.899570 0.282168
H32   H     H_    0.429228 0.953382 0.790366 0.254772

loop_
_geom_bond_atom_site_label_1
_geom_bond_atom_site_label_2
_ccdc_geom_bond_type
O4    Zn2   S    
O6    Zn2   S    
O10   C24   S    
C13   N2    D    
C28   H28   S    
C7    H9    S    
C2    C16   A    
C14   O5    A    
C5    H8    S    
O8    Zn2   S    
C9    C10   D    
O3    Zn1   S    
C19   C20   A    
O1    Zn1   S    
C24   C25   S    
C23   H18   S    
C8    H10   S    
H3    N1    S    
C27   C28   S    
C28   C29   S    
O7    Zn1   S    
C2    C3    A    
C6    C15   S    
C16   O10   S    
C25   H21   S    
C21   H12   S    
C10   H2    S    
C4    H1    S    
C11   C13   S    
C15   O8    A    
C17   O11   S    
C26   H23   S    
C6    C20   A    
C27   H26   S    
C4    C5    A    
C22   H15   S    
C22   H14   S    
C24   H20   S    
C11   N1    D    
O5    Zn1   S    
C21   H13   S    
N1    Zn1   S    
C5    C6    A    
C29   H32   S    
C8    C14   S    
C15   O7    A    
C25   H22   S    
C12   O3    A    
C24   H19   S    
C29   H31   S    
C23   H17   S    
C2    C20   A    
C3    C4    A    
N2    Zn2   S    
O2    Zn2   S    
C11   O9    S    
O11   C27   S    
C1    O1    A    
C1    O2    A    
C17   C18   A    
C7    C8    D    
C29   H30   S    
C21   C22   S    
C12   O4    A    
C7    C9    S    
C9    H11   S    
C18   C19   A    
C25   C26   S    
C26   H24   S    
C3    C12   S    
C26   H25   S    
C19   H7    S    
C14   O6    A    
C1    C10   S    
C28   H29   S    
C22   C23   S    
O9    C21   S    
C23   H16   S    
C13   H4    S    
H5    N2    S    
C16   C17   A    
C27   H27   S    
C18   H6    S    
