data_mof_unit_38327.cif
_audit_creation_date              2012-12-10T18:45:07-0500
_audit_creation_method            fapswitch 2.2
_symmetry_space_group_name_H-M    P1
_symmetry_Int_Tables_number       1
_space_group_crystal_system       triclinic
_cell_length_a                    10.697235
_cell_length_b                    9.850814
_cell_length_c                    10.638821
_cell_angle_alpha                 90.114975
_cell_angle_beta                  90.503787
_cell_angle_gamma                 90.666711
_cell_volume                      1120.95970109

loop_
_atom_site_label
_atom_site_type_symbol
_atom_type_description
_atom_site_fract_x
_atom_site_fract_y
_atom_site_fract_z
_atom_type_partial_charge
C1    C     C_R   0.260388 0.499135 0.505100 0.883096
C2    C     C_R   0.740194 0.501247 0.500608 0.893746
C3    C     C_R   0.938729 0.610329 0.565038 0.389971
C4    C     C_R   0.066426 0.601697 0.578440 0.416702
C5    C     C_R   0.576428 0.073032 0.579971 -0.057336
C6    C     C_R   0.423510 0.070795 0.420099 -0.063055
C7    C     C_R   0.576351 0.929196 0.580048 -0.073774
C8    C     C_R   0.423547 0.926961 0.420068 -0.037309
C9    C     C_R   0.502421 0.499902 0.260478 0.862854
C10   C     C_R   0.502464 0.500135 0.739662 0.849041
C11   C     C_R   0.716499 0.617019 0.133495 -0.177063
C12   C     C_R   0.716098 0.617408 0.871564 -0.172680
C13   C     C_R   0.817110 0.673840 0.068845 -0.160467
C14   C     C_R   0.816941 0.674013 0.938041 -0.100924
C15   C     C_R   0.612847 0.560598 0.935581 0.075264
C16   C     C_R   0.613017 0.560315 0.067277 0.098484
C17   C     C_R   0.510427 0.499417 0.128461 -0.091163
C18   C     C_R   0.510195 0.500048 0.872031 -0.088878
C19   C     C_R   0.412792 0.435648 0.063471 -0.207677
C20   C     C_R   0.412653 0.436017 0.934939 -0.202232
C21   C     C_R   0.063041 0.394119 0.451074 -0.229341
C22   C     C_R   0.935155 0.396625 0.447156 -0.244157
C23   C     C_R   0.873075 0.504529 0.502906 -0.206707
C24   C     C_R   0.128373 0.497120 0.514498 -0.224079
H1    H     H_    0.335472 0.388013 0.112606 0.146194
H2    H     H_    0.335273 0.388601 0.884186 0.151998
H3    H     H_    0.721638 0.616254 0.235011 0.144917
H4    H     H_    0.720447 0.616540 0.770311 0.187815
H5    H     H_    0.895909 0.716678 0.120396 0.143820
H6    H     H_    0.895663 0.716944 0.888002 0.196540
H7    H     H_    0.110939 0.313446 0.402317 0.177896
H8    H     H_    0.884856 0.316053 0.398087 0.184260
H9    H     H_    0.637561 0.128360 0.643941 0.139607
H10   H     H_    0.362302 0.124342 0.356222 0.124661
H11   H     H_    0.637251 0.875647 0.644219 0.152288
H12   H     H_    0.362379 0.871618 0.356146 0.133430
N1    N     N_R   0.500000 0.857200 0.500000 -0.084500
N2    N     N_R   0.500000 0.142810 0.500000 -0.084619
O1    O     O_R   0.316770 0.614620 0.499990 -0.599595
O2    O     O_R   0.683230 0.614620 0.500010 -0.628875
O3    O     O_R   0.316800 0.385290 0.500000 -0.618690
O4    O     O_R   0.683200 0.385290 0.500000 -0.619324
O5    O     O_R   0.500010 0.614690 0.316770 -0.623992
O6    O     O_R   0.499990 0.614690 0.683230 -0.620571
O7    O     O_R   0.500040 0.385360 0.316770 -0.617874
O8    O     O_R   0.499960 0.385360 0.683230 -0.613289
Zn1   Zn    Zn3+2 0.500000 0.653120 0.500000 0.957703
Zn2   Zn    Zn3+2 0.500000 0.346880 0.500000 0.952360
O9    O     O_3   0.879719 0.718431 0.619582 -0.762784
H13   H     H_    0.848040 0.774373 0.549056 0.339686
O10   O     O_3   0.127113 0.697185 0.652988 -0.720063
H14   H     H_    0.202131 0.654987 0.690826 0.328686

loop_
_geom_bond_atom_site_label_1
_geom_bond_atom_site_label_2
_ccdc_geom_bond_type
C10   O8    A    
C15   C18   A    
C6    N2    A    
C9    O7    A    
C13   C14   A    
N1    Zn1   S    
O6    Zn1   S    
C21   H7    S    
C11   C16   A    
C3    C23   A    
C19   C20   A    
C12   C15   A    
C11   H3    S    
C6    H10   S    
C3    O9    S    
O4    Zn2   S    
C21   C22   A    
C9    C17   S    
C11   C13   A    
C22   H8    S    
C2    O4    A    
C19   H1    S    
C10   C18   S    
C13   H5    S    
C17   C19   A    
O3    Zn2   S    
C14   H6    S    
C18   C20   A    
C7    N1    A    
C4    C24   A    
O8    Zn2   S    
C9    O5    A    
C8    N1    A    
C1    O1    A    
C4    O10   S    
C10   O6    A    
O10   H14   S    
C2    O2    A    
C7    H11   S    
N2    Zn2   S    
C12   H4    S    
C1    C24   S    
O1    Zn1   S    
O9    H13   S    
C8    H12   S    
C21   C24   A    
C1    O3    A    
C2    C23   S    
C5    C7    A    
C22   C23   A    
C6    C8    A    
O7    Zn2   S    
C5    N2    A    
O2    Zn1   S    
O5    Zn1   S    
C3    C4    A    
C15   C16   A    
C12   C14   A    
C16   C17   A    
C20   H2    S    
C5    H9    S    
