data_mof_unit_67125.cif
_audit_creation_date              2013-03-05T15:58:41-0500
_audit_creation_method            fapswitch 2.2
_symmetry_space_group_name_H-M    P1
_symmetry_Int_Tables_number       1
_space_group_crystal_system       triclinic
_cell_length_a                    8.195302
_cell_length_b                    12.695675
_cell_length_c                    14.85654
_cell_angle_alpha                 97.1797
_cell_angle_beta                  97.380651
_cell_angle_gamma                 98.54614
_cell_volume                      1499.47181473

loop_
_atom_site_label
_atom_site_type_symbol
_atom_site_description
_atom_site_fract_x
_atom_site_fract_y
_atom_site_fract_z
_atom_type_partial_charge
P1    P     P_3+3 0.998770 0.403620 0.291990 0.462572
O1    O     O_2   0.827930 0.435360 0.277760 -0.356207
O2    O     O_3   0.100310 0.439010 0.391180 -0.413479
O3    O     O_3   0.625610 0.634200 0.333270 -0.371340
O4    O     O_2   0.706992 0.555086 0.173588 -0.392932
O5    O     O_3   0.956903 0.263050 0.267141 -0.568504
O6    O     O_3   0.648839 0.752788 0.186526 -0.527111
H1    H     H_    0.683596 0.873643 0.296476 0.132818
C1    C     C_3   0.519454 0.908670 0.182408 -1.036069
H2    H     H_    0.471677 0.971899 0.225315 0.257841
H3    H     H_    0.621525 0.947049 0.148830 0.277016
P2    P     P_3+3 0.687370 0.751000 0.571300 0.467882
P3    P     P_3+3 0.103106 0.828852 0.378346 0.445070
O7    O     O_2   0.857120 0.766320 0.543890 -0.373800
O8    O     O_3   0.056570 0.691100 0.379020 -0.387157
O9    O     O_2   0.986149 0.882169 0.436575 -0.386024
O10   O     O_3   0.725803 0.785198 0.690958 -0.553654
O11   O     O_3   0.044153 0.856750 0.267373 -0.523331
C2    C     C_3   0.071199 0.771998 0.203569 0.486713
H4    H     H_    0.986663 0.696457 0.207788 0.153798
H5    H     H_    0.202468 0.758748 0.215370 0.007389
C3    C     C_3   0.034522 0.799838 0.107111 -0.949969
H6    H     H_    0.901703 0.809131 0.091609 0.288592
H7    H     H_    0.114780 0.876376 0.100978 0.261126
C4    C     C_3   0.262520 0.782872 0.657343 0.254982
H8    H     H_    0.364549 0.752508 0.625744 0.053028
H9    H     H_    0.146458 0.765309 0.607112 0.125073
C5    C     C_3   0.308118 0.904309 0.686553 -0.088126
H10   H     H_    0.443846 0.924595 0.712570 0.081584
H11   H     H_    0.282401 0.946608 0.626682 0.102307
Ba1   Ba    Ba6+2 0.843760 0.550230 0.455610 1.550460
C6    C     C_3   0.930475 0.219322 0.346832 0.381188
H12   H     H_    0.817965 0.243884 0.370540 0.094102
H13   H     H_    0.038665 0.245458 0.402044 0.142598
C7    C     C_3   0.905308 0.097520 0.324483 -0.914658
H14   H     H_    0.795918 0.069192 0.270386 0.257812
H15   H     H_    0.883372 0.060168 0.386217 0.236011
H16   H     H_    0.017932 0.072398 0.299794 0.281527
C8    C     C_3   0.773331 0.698648 0.731669 0.488012
H17   H     H_    0.891623 0.680739 0.710143 0.089520
H18   H     H_    0.675264 0.625966 0.713179 0.111883
C9    C     C_3   0.799401 0.730174 0.835480 -0.964186
H19   H     H_    0.900363 0.800945 0.856718 0.297500
H20   H     H_    0.834658 0.662759 0.870103 0.215908
H21   H     H_    0.682336 0.750655 0.857929 0.255602
P4    P     P_3+3 0.190950 0.596470 0.708020 0.469246
O12   O     O_2   0.361790 0.564680 0.722290 -0.368991
O13   O     O_3   0.089410 0.561080 0.608830 -0.405580
O14   O     O_3   0.564100 0.365890 0.666740 -0.364824
O15   O     O_3   0.239987 0.735729 0.735646 -0.543760
P5    P     P_3+3 0.089952 0.170633 0.623386 0.466300
O16   O     O_3   0.601940 0.368260 0.453780 -0.391917
O17   O     O_3   0.133140 0.308990 0.620990 -0.398423
O18   O     O_2   0.209092 0.118817 0.565659 -0.379980
O19   O     O_3   0.154093 0.146090 0.734738 -0.484415
Ba2   Ba    Ba6+2 0.346080 0.449860 0.544400 1.544071
P6    P     P_3+3 0.586683 0.624411 0.214298 0.447170
C10   C     C_3   0.582917 0.829574 0.241678 0.462891
H22   H     H_    0.478091 0.795022 0.275342 0.033562
H23   H     H_    0.417074 0.865482 0.128250 0.267728
O20   O     O_3   0.587770 0.631830 0.546230 -0.401867
C11   C     C_3   0.409474 0.282529 0.265757 0.447092
H24   H     H_    0.303939 0.308280 0.297696 0.098596
H25   H     H_    0.512967 0.351831 0.273791 0.119924
C12   C     C_3   0.349162 0.245989 0.163916 -1.003829
H26   H     H_    0.239515 0.180503 0.154099 0.275785
H27   H     H_    0.312827 0.314276 0.130652 0.223368
H28   H     H_    0.450302 0.215876 0.130705 0.272141
P7    P     P_3+3 0.507359 0.232863 0.424111 0.418040
O21   O     O_2   0.332600 0.233710 0.456170 -0.374500
O22   O     O_3   0.465253 0.196728 0.304820 -0.582466
H29   H     H_    0.059587 0.734659 0.056229 0.225262
C13   C     C_3   0.146498 0.236626 0.797879 0.526664
H30   H     H_    0.233644 0.307410 0.786737 0.156959
H31   H     H_    0.019130 0.256365 0.791779 -0.024419
C14   C     C_3   0.195598 0.213348 0.894844 -0.910444
H32   H     H_    0.326566 0.200395 0.905651 0.303669
H33   H     H_    0.181227 0.281990 0.945695 0.200636
H34   H     H_    0.116556 0.139009 0.906279 0.266746
P8    P     P_3+3 0.606157 0.377842 0.785659 0.444270
C15   C     C_3   0.637885 0.177011 0.771942 0.430161
H35   H     H_    0.750923 0.215533 0.747300 -0.008569
O23   O     O_2   0.486062 0.446603 0.826901 -0.404129
O24   O     O_3   0.550078 0.250286 0.816090 -0.524326
H36   H     H_    0.554380 0.130481 0.710514 0.072838
C16   C     C_3   0.689701 0.098175 0.836280 -0.463993
H37   H     H_    0.771124 0.048643 0.801628 0.175734
H38   H     H_    0.579108 0.041962 0.845962 0.246427
C17   C     C_R   0.366522 0.565286 0.170606 0.177631
H39   H     H_    0.329807 0.528432 0.304729 0.179792
H40   H     H_    0.506135 0.651868 0.034827 0.187308
C18   C     C_R   0.110717 0.468777 0.207091 0.321959
C19   C     C_R   0.922715 0.475526 0.765911 -0.525809
C20   C     C_R   0.823180 0.438395 0.828056 0.256165
C21   C     C_R   0.886290 0.449435 0.920975 -0.334789
C22   C     C_R   0.052790 0.499017 0.954412 0.050928
C23   C     C_R   0.149363 0.545790 0.891077 -0.011419
C24   C     C_R   0.124881 0.505618 0.048862 0.040325
C25   C     C_R   0.292161 0.559822 0.078192 0.001900
C26   C     C_R   0.380271 0.608739 0.015202 -0.195619
C27   C     C_R   0.309151 0.604118 0.924598 -0.081286
C28   C     C_R   0.037939 0.458320 0.114931 -0.302094
C29   C     C_R   0.273155 0.523014 0.234045 -0.521008
C30   C     C_R   0.082719 0.532917 0.795819 0.245197
H41   H     H_    0.914211 0.412045 0.097187 0.163589
H42   H     H_    0.870996 0.465440 0.694004 0.175954
H43   H     H_    0.801506 0.419491 0.965109 0.165073
H44   H     H_    0.383659 0.646030 0.881168 0.176494
C31   C     C_R   0.771359 0.181328 0.536694 -0.503139
C32   C     C_R   0.419972 0.809164 0.463593 -0.526386
C33   C     C_R   0.387852 0.986945 0.431653 -0.207157
C34   C     C_R   0.322177 0.878976 0.427051 0.201550
C35   C     C_R   0.579661 0.847846 0.512543 0.283957
C36   C     C_R   0.646144 0.959721 0.521514 -0.087602
C37   C     C_R   0.549055 0.029263 0.478866 -0.056226
C38   C     C_R   0.614569 0.139930 0.486081 0.275941
C39   C     C_R   0.870737 0.113885 0.575125 0.196504
C40   C     C_R   0.807220 0.004288 0.569631 -0.189398
H45   H     H_    0.308881 0.036910 0.399780 0.188371
H46   H     H_    0.887068 0.955015 0.600728 0.223052
H47   H     H_    0.820908 0.266052 0.541188 0.170031
H48   H     H_    0.367744 0.724763 0.458102 0.181370
N1    N     N_R   0.212950 0.939179 0.758389 0.312977
O25   O     O_R   0.051078 0.925096 0.741617 -0.390510
O26   O     O_R   0.286365 0.967808 0.842731 -0.398404
C41   C     C_3   0.785301 0.152776 0.930606 -0.218950
C42   C     C_3   0.671693 0.180347 0.000900 -0.813112
H49   H     H_    0.608201 0.248125 0.984136 0.272540
H50   H     H_    0.577364 0.109096 0.004531 0.269231
H51   H     H_    0.748146 0.205618 0.069701 0.243400
H52   H     H_    0.862407 0.095984 0.958578 0.199506
H53   H     H_    0.869908 0.226882 0.923574 0.189949

loop_
_geom_bond_atom_site_label_1
_geom_bond_atom_site_label_2
_geom_bond_distance
_ccdc_geom_bond_type
O5    C6    1.396877 S    
P7    C38   1.839407 S    
C41   C42   1.528161 S    
C16   C41   1.540084 S    
C13   H30   1.105371 S    
Ba1   O20   2.882704 S    
C21   C22   1.413266 A    
C14   H34   1.107185 S    
Ba1   O16   2.806262 S    
P8    O24   1.747368 S    
C36   C37   1.425883 A    
C5    N1    1.463437 S    
C31   C39   1.390107 A    
N1    O25   1.298971 A    
C8    H18   1.110106 S    
C4    C5    1.524717 S    
C19   C20   1.388528 A    
P6    C17   1.847972 S    
P3    O11   1.751903 S    
C17   C25   1.417703 A    
C5    H10   1.110187 S    
C7    H15   1.106388 S    
C14   H33   1.110331 S    
C1    C10   1.520794 S    
P3    C34   1.833958 S    
C16   H38   1.103806 S    
N1    O26   1.300637 A    
C37   C38   1.413189 A    
P1    Ba1   3.369330 S    
C28   H41   1.076278 S    
C33   H45   1.078806 S    
P1    O1    1.510046 D    
O10   C8    1.399187 S    
P7    O22   1.750146 S    
C4    O15   1.393560 S    
C11   H25   1.110710 S    
O16   P7    1.754064 S    
C31   C38   1.394630 A    
H1    C10   1.110381 S    
C2    H4    1.110121 S    
C12   H27   1.109277 S    
C22   C24   1.438036 A    
P2    O10   1.752281 S    
H40   C26   1.078779 S    
C1    H2    1.110712 S    
O7    Ba1   2.869292 S    
O6    C10   1.408601 S    
C15   C16   1.535208 S    
C18   C29   1.388651 A    
C18   C28   1.403300 A    
C27   H44   1.078320 S    
C17   C29   1.396945 A    
C13   H31   1.104397 S    
P7    O21   1.567390 D    
C9    H20   1.107228 S    
P8    O23   1.543623 D    
C19   C30   1.390394 A    
C3    H29   1.110159 S    
C15   H36   1.111217 S    
C15   H35   1.108438 S    
C8    C9    1.523185 S    
C32   C34   1.393644 A    
P4    O13   1.572967 S    
P1    O5    1.749199 S    
O3    Ba1   2.802168 S    
C6    C7    1.517650 S    
C7    H16   1.110591 S    
C14   H32   1.104370 S    
C8    H17   1.104876 S    
C16   H37   1.112567 S    
O11   C2    1.405468 S    
C4    H8    1.104344 S    
C24   C28   1.425324 A    
P4    C30   1.867305 S    
O1    Ba1   2.831528 S    
P1    O2    1.572967 S    
C9    H21   1.110820 S    
C6    H13   1.107589 S    
O3    P6    1.740614 S    
C42   H50   1.110794 S    
C11   H24   1.109397 S    
C19   H42   1.081970 S    
O2    Ba2   2.814010 S    
C25   C26   1.403011 A    
C41   H53   1.107312 S    
C12   H28   1.108476 S    
C22   C23   1.433776 A    
C2    C3    1.521956 S    
O2    Ba1   2.896916 S    
C1    H3    1.110329 S    
C32   C35   1.399258 A    
C36   C40   1.417109 A    
C21   H43   1.076142 S    
P2    O7    1.491272 D    
C12   H26   1.110822 S    
P1    C18   1.857257 S    
Ba2   O21   2.869569 S    
Ba1   O13   2.813415 S    
P3    O8    1.735272 S    
P2    Ba1   3.396403 S    
Ba1   Ba2   4.500762 S    
C13   C14   1.522269 S    
C3    H7    1.110277 S    
C9    H19   1.110208 S    
P8    C20   1.826421 S    
C42   H49   1.107511 S    
C15   O24   1.407525 S    
C35   C36   1.426873 A    
O17   Ba2   2.762224 S    
O13   Ba2   2.897740 S    
P4    O12   1.510346 D    
C33   C34   1.386049 A    
C2    H5    1.108623 S    
C3    H6    1.110097 S    
O8    Ba1   2.761598 S    
C4    H9    1.106493 S    
O14   Ba2   2.801519 S    
P4    O15   1.738041 S    
O14   P8    1.738997 S    
O4    P6    1.546163 D    
P5    O18   1.544873 D    
C6    H12   1.101326 S    
C1    H23   1.109752 S    
C5    H11   1.108535 S    
C10   H22   1.110771 S    
C42   H51   1.110860 S    
C39   C40   1.399672 A    
C32   H48   1.082078 S    
P2    O20   1.583662 S    
C31   H47   1.082404 S    
C41   H52   1.111177 S    
C26   C27   1.386921 A    
C11   C12   1.520849 S    
C11   O22   1.403634 S    
P2    C35   1.856281 S    
P5    O19   1.750488 S    
C20   C21   1.392636 A    
C40   H46   1.072003 S    
H39   C29   1.081758 S    
C23   C30   1.429982 A    
O19   C13   1.404176 S    
C24   C25   1.426181 A    
P3    O9    1.544263 D    
P4    Ba2   3.369871 S    
P5    C39   1.848221 S    
Ba2   O20   2.805640 S    
C33   C37   1.408101 A    
C7    H14   1.107138 S    
P5    O17   1.745290 S    
O6    P6    1.749686 S    
C23   C27   1.401155 A    
O16   Ba2   2.881807 S    
O12   Ba2   2.831939 S    
