data_mof_unit_62352.cif
_audit_creation_date              2012-12-10T18:00:50-0500
_audit_creation_method            fapswitch 2.2
_symmetry_space_group_name_H-M    P1
_symmetry_Int_Tables_number       1
_space_group_crystal_system       triclinic
_cell_length_a                    30.657954
_cell_length_b                    30.827907
_cell_length_c                    24.851768
_cell_angle_alpha                 90.152029
_cell_angle_beta                  128.700184
_cell_angle_gamma                 89.962785
_cell_volume                      18330.5574168

loop_
_atom_site_label
_atom_site_type_symbol
_atom_type_description
_atom_site_fract_x
_atom_site_fract_y
_atom_site_fract_z
_atom_type_partial_charge
C1    C     C_R   0.809141 0.809314 0.499619 0.818730
C2    C     C_R   0.533966 0.741614 0.069844 0.387861
C3    C     C_R   0.907323 0.094002 0.498318 -0.077766
C4    C     C_R   0.618315 0.585202 0.470741 0.040295
C5    C     C_R   0.348985 0.594121 0.449154 0.111961
C6    C     C_R   0.151199 0.093075 0.549608 0.108268
C7    C     C_R   0.849106 0.094082 0.448752 0.110386
C8    C     C_3   0.592084 0.571841 0.398592 -0.480306
C9    C     C_3   0.308219 0.559754 0.433665 -0.538817
C10   C     C_3   0.190468 0.057934 0.563121 -0.541438
C11   C     C_3   0.808112 0.059389 0.431436 -0.537152
C12   C     C_3   0.627666 0.606606 0.399301 -0.030522
C13   C     C_R   0.965750 0.245861 0.930032 0.386907
C14   C     C_3   0.273698 0.594697 0.434057 0.008627
C15   C     C_3   0.224588 0.092363 0.560744 0.012822
C16   C     C_3   0.773622 0.094059 0.432764 0.009522
C17   C     C_R   0.439955 0.559334 0.499673 0.781116
C18   C     C_R   0.559602 0.559643 0.500446 0.785517
C19   C     C_R   0.940016 0.059346 0.499669 0.784262
C20   C     C_R   0.060034 0.059342 0.500462 0.784121
C21   C     C_R   0.939853 0.940928 0.499685 0.801560
C22   C     C_R   0.060183 0.941009 0.500202 0.801230
C23   C     C_R   0.439927 0.440888 0.499483 0.807458
C24   C     C_R   0.035406 0.245581 0.069606 0.386323
C25   C     C_R   0.559512 0.440633 0.499995 0.807522
C26   C     C_R   0.816543 0.750183 0.632448 0.803016
C27   C     C_R   0.183490 0.750077 0.367600 0.808590
C28   C     C_R   0.315530 0.249322 0.632434 0.811828
C29   C     C_R   0.683092 0.250415 0.367648 0.809937
C30   C     C_R   0.623447 0.788371 0.251525 0.127441
C31   C     C_R   0.377773 0.788704 0.748846 0.127009
C32   C     C_R   0.124929 0.290057 0.252736 0.129552
C33   C     C_R   0.872531 0.290102 0.747078 0.126668
C34   C     C_R   0.585870 0.785767 0.178511 0.114053
C35   C     C_R   0.899739 0.842458 0.546336 0.035105
C36   C     C_R   0.415280 0.786155 0.821875 0.113585
C37   C     C_R   0.087565 0.288387 0.179650 0.113224
C38   C     C_R   0.910310 0.288638 0.820137 0.114420
C39   C     C_R   0.571414 0.744519 0.145828 -0.040662
C40   C     C_R   0.427953 0.745069 0.854325 -0.043002
C41   C     C_R   0.073229 0.247615 0.145664 -0.043559
C42   C     C_R   0.927682 0.247826 0.853982 -0.044022
C43   C     C_R   0.593465 0.706137 0.185511 0.136076
C44   C     C_R   0.404151 0.706771 0.814428 0.135832
C45   C     C_R   0.095518 0.208788 0.184103 0.137382
C46   C     C_R   0.100318 0.842819 0.452549 0.034077
C47   C     C_R   0.908055 0.208809 0.815380 0.137739
C48   C     C_R   0.630311 0.709626 0.257808 -0.203031
C49   C     C_R   0.367791 0.710146 0.742164 -0.203273
C50   C     C_R   0.131840 0.211315 0.256500 -0.203677
C51   C     C_R   0.871328 0.211216 0.743000 -0.206070
C52   C     C_3   0.777611 0.716923 0.706178 -0.362488
C53   C     C_3   0.739017 0.752102 0.698763 -0.751069
C54   C     C_3   0.224766 0.715952 0.296942 -0.337668
C55   C     C_3   0.264187 0.750521 0.305035 -0.757584
C56   C     C_3   0.274564 0.210546 0.700790 -0.341665
C57   C     C_R   0.394733 0.333695 0.517416 0.113067
C58   C     C_3   0.232289 0.243378 0.689693 -0.760573
C59   C     C_3   0.720594 0.218169 0.291835 -0.338835
C60   C     C_3   0.758826 0.253267 0.298393 -0.757563
C61   C     C_3   0.011383 0.772450 0.858231 -0.373174
C62   C     C_3   0.024056 0.821008 0.872214 -0.750786
C63   C     C_3   0.992773 0.778188 0.137976 -0.411781
C64   C     C_3   0.955338 0.739851 0.123635 -0.753628
C65   C     C_3   0.505236 0.276216 0.863348 -0.371439
C66   C     C_3   0.514694 0.325113 0.876541 -0.744589
C67   C     C_3   0.489267 0.279398 0.143535 -0.411720
C68   C     C_R   0.600828 0.337496 0.465249 0.044284
C69   C     C_3   0.452432 0.241136 0.131290 -0.761639
C70   C     C_3   0.926200 0.789778 0.705385 -0.404613
C71   C     C_3   0.903374 0.836089 0.688854 -0.805868
C72   C     C_3   0.070841 0.785647 0.291565 -0.416727
C73   C     C_3   0.080179 0.834674 0.297852 -0.814741
C74   C     C_3   0.422941 0.292018 0.709999 -0.418698
C75   C     C_3   0.396455 0.337219 0.689944 -0.799809
C76   C     C_3   0.571066 0.285685 0.297191 -0.411273
C77   C     C_3   0.582083 0.334485 0.306403 -0.816658
C78   C     C_3   0.561888 0.826920 0.135414 -0.378702
C79   C     C_R   0.841731 0.843131 0.499632 -0.103033
C80   C     C_3   0.600052 0.844715 0.120871 -0.758404
C81   C     C_3   0.441004 0.827213 0.865268 -0.379023
C82   C     C_3   0.403995 0.846484 0.880734 -0.758657
C83   C     C_3   0.063414 0.330010 0.137867 -0.378999
C84   C     C_3   0.101583 0.348987 0.124091 -0.756537
C85   C     C_3   0.931491 0.330459 0.861997 -0.380145
C86   C     C_3   0.892729 0.345727 0.877103 -0.760343
C87   C     C_3   0.576600 0.662235 0.148980 -0.397682
C88   C     C_3   0.600322 0.622226 0.195485 -0.787443
C89   C     C_3   0.418726 0.663057 0.850742 -0.375836
C90   C     C_R   0.158268 0.843132 0.500267 -0.100996
C91   C     C_3   0.392314 0.623060 0.804077 -0.832477
C92   C     C_3   0.079421 0.165453 0.146110 -0.375917
C93   C     C_3   0.104927 0.124921 0.191243 -0.833851
C94   C     C_3   0.927424 0.165426 0.853162 -0.375166
C95   C     C_3   0.905052 0.124743 0.807819 -0.835753
C96   C     C_3   0.813576 0.949771 0.406622 -0.420149
C97   C     C_3   0.786794 0.936261 0.332761 -0.718184
C98   C     C_3   0.186635 0.949462 0.594799 -0.419436
C99   C     C_3   0.212615 0.935765 0.668229 -0.718412
C100  C     C_3   0.315702 0.453947 0.417651 -0.433383
C101  C     C_R   0.340826 0.341739 0.494759 -0.112935
C102  C     C_3   0.280867 0.444953 0.340515 -0.719831
C103  C     C_3   0.675809 0.462405 0.553691 -0.401081
C104  C     C_3   0.715528 0.461983 0.632331 -0.738861
C105  C     C_R   0.190811 0.809306 0.500253 0.819034
C106  C     C_R   0.657405 0.343701 0.498568 -0.115287
C107  C     C_R   0.814875 0.879741 0.457913 -0.199096
C108  C     C_R   0.185266 0.879481 0.542955 -0.199183
C109  C     C_R   0.315509 0.381103 0.461124 -0.197716
C110  C     C_R   0.680409 0.385329 0.524212 -0.191565
C111  C     C_R   0.845590 0.912617 0.456033 0.129559
C112  C     C_R   0.154545 0.912490 0.544622 0.130277
C113  C     C_R   0.346402 0.413760 0.458885 0.129540
C114  C     C_R   0.649073 0.418370 0.524857 0.119513
C115  C     C_R   0.904767 0.909239 0.499693 -0.140286
C116  C     C_R   0.309554 0.309204 0.499977 0.818880
C117  C     C_R   0.095293 0.909427 0.499972 -0.139994
C118  C     C_R   0.404903 0.408004 0.496754 -0.085763
C119  C     C_R   0.593770 0.409064 0.498785 -0.131636
C120  C     C_R   0.930689 0.875241 0.547064 0.094446
C121  C     C_R   0.069393 0.875695 0.451766 0.094559
C122  C     C_R   0.426639 0.366759 0.521928 0.057346
C123  C     C_R   0.569495 0.369767 0.464817 0.086225
C124  C     C_3   0.973768 0.844021 0.560547 -0.013966
C125  C     C_3   0.025585 0.844676 0.436694 -0.012916
C126  C     C_3   0.479917 0.348709 0.584697 -0.007641
C127  C     C_R   0.690869 0.309470 0.500453 0.824852
C128  C     C_3   0.537529 0.337969 0.473214 -0.035368
C129  C     C_3   0.939813 0.808073 0.560378 -0.456514
C130  C     C_3   0.059569 0.808609 0.437109 -0.461490
C131  C     C_3   0.444643 0.311215 0.578601 -0.492030
C132  C     C_3   0.571539 0.302349 0.472596 -0.439568
C133  C     C_R   0.684057 0.750570 0.367357 0.830360
C134  C     C_R   0.315920 0.750705 0.632674 0.827270
C135  C     C_R   0.184321 0.250837 0.367371 0.830952
C136  C     C_R   0.815764 0.250795 0.632550 0.830865
C137  C     C_R   0.837032 0.733745 0.745006 0.064567
C138  C     C_R   0.645268 0.749969 0.291031 -0.145546
C139  C     C_R   0.165304 0.733037 0.256587 0.075178
C140  C     C_R   0.333052 0.229885 0.742513 0.072567
C141  C     C_R   0.661287 0.234927 0.254167 0.074133
C142  C     C_R   0.874510 0.733079 0.817836 0.130625
C143  C     C_R   0.129102 0.732355 0.183772 0.133090
C144  C     C_R   0.368388 0.229570 0.815376 0.137408
C145  C     C_R   0.623085 0.234321 0.181379 0.134162
C146  C     C_R   0.930394 0.746644 0.854140 -0.087704
C147  C     C_R   0.073848 0.747551 0.146010 -0.076794
C148  C     C_R   0.423401 0.245910 0.854246 -0.087773
C149  C     C_R   0.354615 0.750318 0.709085 -0.145621
C150  C     C_R   0.567813 0.248899 0.146154 -0.075647
C151  C     C_R   0.949357 0.762194 0.818208 0.103750
C152  C     C_R   0.053761 0.763944 0.180241 0.119257
C153  C     C_R   0.443616 0.263505 0.820788 0.107627
C154  C     C_R   0.549923 0.265070 0.182973 0.120573
C155  C     C_R   0.910660 0.765918 0.745076 0.106117
C156  C     C_R   0.090060 0.765055 0.253611 0.109521
C157  C     C_R   0.406743 0.266833 0.747679 0.111144
C158  C     C_R   0.588189 0.265977 0.256348 0.107281
C159  C     C_R   0.855251 0.750120 0.708771 -0.120408
C160  C     C_R   0.146328 0.251158 0.291021 -0.144915
C161  C     C_R   0.145590 0.749246 0.291390 -0.120908
C162  C     C_R   0.352487 0.248410 0.708817 -0.115801
C163  C     C_R   0.643639 0.250575 0.291495 -0.121061
C164  C     C_R   0.037295 0.746964 0.070030 0.454773
C165  C     C_R   0.968293 0.746528 0.930367 0.452364
C166  C     C_R   0.529046 0.247904 0.070090 0.450917
C167  C     C_R   0.459203 0.246432 0.930380 0.450510
C168  C     C_R   0.650751 0.616710 0.471599 0.151464
C169  C     C_R   0.317501 0.625835 0.450040 0.076382
C170  C     C_R   0.182686 0.124433 0.548165 0.075734
C171  C     C_R   0.853924 0.251108 0.708755 -0.142771
C172  C     C_R   0.817517 0.125570 0.449801 0.078038
C173  C     C_R   0.658936 0.656924 0.502751 -0.117728
C174  C     C_R   0.343360 0.658672 0.499282 -0.110437
C175  C     C_R   0.156872 0.158348 0.500959 -0.112233
C176  C     C_R   0.843191 0.158426 0.499181 -0.110934
C177  C     C_R   0.639680 0.662927 0.540828 -0.205125
C178  C     C_R   0.401909 0.662282 0.543074 -0.192033
C179  C     C_R   0.098523 0.162843 0.459542 -0.192207
C180  C     C_R   0.901744 0.162023 0.543229 -0.193837
C181  C     C_R   0.690445 0.690593 0.499811 0.781404
C182  C     C_R   0.465325 0.742197 0.930295 0.386999
C183  C     C_R   0.310007 0.690847 0.500959 0.788083
C184  C     C_R   0.190099 0.190759 0.499253 0.786327
C185  C     C_R   0.809826 0.190789 0.500629 0.790247
C186  C     C_R   0.608249 0.630395 0.541704 -0.191178
C187  C     C_R   0.433870 0.629642 0.543414 -0.201470
C188  C     C_R   0.066480 0.130320 0.459203 -0.202137
C189  C     C_R   0.933811 0.129460 0.543632 -0.201518
C190  C     C_R   0.594233 0.592470 0.502437 -0.065903
C191  C     C_R   0.407274 0.594062 0.498394 -0.074577
C192  C     C_R   0.092851 0.093993 0.502140 -0.074480
Cu1   Cu    Cu3+1 0.780910 0.719090 0.500000 0.997737
Cu2   Cu    Cu3+1 0.534240 0.500000 0.568430 0.999014
Cu3   Cu    Cu3+1 0.965760 1.000000 0.431570 0.994003
Cu4   Cu    Cu3+1 0.034240 0.000000 0.568430 0.992823
Cu5   Cu    Cu3+1 0.219090 0.719090 0.500000 0.976369
Cu6   Cu    Cu3+1 0.280910 0.219090 0.500000 0.984219
Cu7   Cu    Cu3+1 0.719090 0.219090 0.500000 0.973605
Cu8   Cu    Cu3+1 0.719070 0.780890 0.500010 0.984027
Cu9   Cu    Cu3+1 0.280930 0.780890 0.499990 0.987155
Cu10  Cu    Cu3+1 0.219070 0.280890 0.500010 0.982665
Cu11  Cu    Cu3+1 0.780930 0.280890 0.499990 0.987085
Cu12  Cu    Cu3+1 0.465760 0.500000 0.431570 0.987699
H1    H     H_    0.960763 0.792676 0.611471 0.211192
H2    H     H_    0.479053 0.631717 0.579503 0.154428
H3    H     H_    0.593453 0.270898 0.348731 0.214463
H4    H     H_    0.642060 0.852372 0.169720 0.269183
H5    H     H_    0.604574 0.820739 0.091262 0.262327
H6    H     H_    0.581713 0.874865 0.089978 0.243922
H7    H     H_    0.519798 0.821153 0.085615 0.211199
H8    H     H_    0.554846 0.852111 0.161154 0.233791
H9    H     H_    0.362084 0.854661 0.832226 0.269188
H10   H     H_    0.399020 0.823178 0.910519 0.261781
H11   H     H_    0.423577 0.876553 0.911784 0.244176
H12   H     H_    0.483068 0.820857 0.914707 0.211140
H13   H     H_    0.021349 0.133075 0.424676 0.158356
H14   H     H_    0.448589 0.851750 0.839417 0.233756
H15   H     H_    0.143494 0.356434 0.173228 0.269646
H16   H     H_    0.106384 0.325823 0.093863 0.262935
H17   H     H_    0.083083 0.379445 0.094124 0.242971
H18   H     H_    0.021397 0.324463 0.087816 0.209762
H19   H     H_    0.056174 0.354419 0.164365 0.232805
H20   H     H_    0.849977 0.351588 0.828435 0.270751
H21   H     H_    0.890533 0.321100 0.907829 0.262463
H22   H     H_    0.908989 0.376453 0.907059 0.242893
H23   H     H_    0.974225 0.326381 0.911516 0.210509
H24   H     H_    0.978986 0.131507 0.579972 0.159719
H25   H     H_    0.936024 0.356410 0.835000 0.232240
H26   H     H_    0.646674 0.622011 0.228782 0.268602
H27   H     H_    0.586676 0.621342 0.227673 0.258709
H28   H     H_    0.584492 0.592501 0.163026 0.250103
H29   H     H_    0.530274 0.659588 0.114331 0.213984
H30   H     H_    0.589868 0.660987 0.116380 0.219942
H31   H     H_    0.346016 0.624670 0.770940 0.256119
H32   H     H_    0.405705 0.620208 0.771746 0.252174
H33   H     H_    0.406294 0.593500 0.836436 0.251526
H34   H     H_    0.464842 0.658851 0.884971 0.213259
H35   H     H_    0.603560 0.538127 0.396051 0.219245
H36   H     H_    0.405825 0.663500 0.883752 0.218512
H37   H     H_    0.151250 0.125968 0.224302 0.257078
H38   H     H_    0.091590 0.121896 0.223596 0.251447
H39   H     H_    0.090158 0.095716 0.157765 0.250781
H40   H     H_    0.033208 0.161960 0.112119 0.213671
H41   H     H_    0.091960 0.165936 0.112720 0.216964
H42   H     H_    0.858746 0.123400 0.774857 0.256127
H43   H     H_    0.918441 0.124025 0.775355 0.251826
H44   H     H_    0.922158 0.095513 0.841147 0.250702
H45   H     H_    0.973819 0.164213 0.887177 0.213257
H46   H     H_    0.287496 0.544883 0.382152 0.233569
H47   H     H_    0.914893 0.163708 0.886505 0.217278
H48   H     H_    0.764361 0.964346 0.297826 0.240005
H49   H     H_    0.819321 0.925308 0.328978 0.269937
H50   H     H_    0.756326 0.909561 0.315709 0.257602
H51   H     H_    0.780406 0.960668 0.409319 0.212234
H52   H     H_    0.840863 0.978160 0.420679 0.208271
H53   H     H_    0.235054 0.963746 0.703703 0.240245
H54   H     H_    0.179632 0.924852 0.671167 0.270640
H55   H     H_    0.242947 0.908987 0.685277 0.256120
H56   H     H_    0.220276 0.960231 0.592939 0.213173
H57   H     H_    0.212255 0.043519 0.615049 0.230188
H58   H     H_    0.159583 0.977981 0.580809 0.208824
H59   H     H_    0.259103 0.475057 0.311186 0.239456
H60   H     H_    0.308218 0.433976 0.328130 0.265806
H61   H     H_    0.248948 0.419631 0.324063 0.263811
H62   H     H_    0.287804 0.465122 0.429119 0.211751
H63   H     H_    0.345064 0.480670 0.431457 0.206622
H64   H     H_    0.692599 0.453089 0.651886 0.263146
H65   H     H_    0.749875 0.438392 0.652040 0.263330
H66   H     H_    0.734031 0.494747 0.652096 0.241924
H67   H     H_    0.699336 0.471644 0.535023 0.214836
H68   H     H_    0.787671 0.045418 0.379403 0.231482
H69   H     H_    0.643948 0.488055 0.535396 0.195296
H70   H     H_    0.546566 0.578983 0.362065 0.200205
H71   H     H_    0.326397 0.536727 0.477222 0.170844
H72   H     H_    0.170814 0.034226 0.519929 0.172531
H73   H     H_    0.039006 0.793313 0.385912 0.213567
H74   H     H_    0.825817 0.035309 0.473617 0.169952
H75   H     H_    0.602811 0.633799 0.363152 0.129855
H76   H     H_    0.271702 0.591210 0.477009 0.161129
H77   H     H_    0.224176 0.088719 0.515893 0.159127
H78   H     H_    0.771509 0.089861 0.475521 0.159562
H79   H     H_    0.647587 0.680880 0.289544 0.183315
H80   H     H_    0.349429 0.681391 0.710353 0.171150
H81   H     H_    0.149011 0.182180 0.287271 0.169900
H82   H     H_    0.856063 0.182020 0.712004 0.167519
H83   H     H_    0.769755 0.881938 0.424645 0.189375
H84   H     H_    0.444099 0.309300 0.622277 0.208595
H85   H     H_    0.230456 0.881353 0.577090 0.188078
H86   H     H_    0.271917 0.386665 0.437025 0.191461
H87   H     H_    0.723351 0.391796 0.546007 0.191105
H88   H     H_    0.974235 0.841777 0.516446 0.134236
H89   H     H_    0.024259 0.842364 0.480093 0.134623
H90   H     H_    0.509282 0.338366 0.575509 0.143483
H91   H     H_    0.546986 0.341569 0.523888 0.127389
H92   H     H_    0.921456 0.785002 0.516612 0.201659
H93   H     H_    0.077181 0.785426 0.480392 0.202361
H94   H     H_    0.453227 0.279994 0.564340 0.199811
H95   H     H_    0.546900 0.281095 0.426257 0.217208
H96   H     H_    0.599557 0.284945 0.522560 0.193767
H97   H     H_    0.754916 0.764838 0.749903 0.270737
H98   H     H_    0.735530 0.779451 0.667372 0.261863
H99   H     H_    0.696708 0.738378 0.672894 0.225196
H100  H     H_    0.760095 0.704703 0.654184 0.180568
H101  H     H_    0.776917 0.688234 0.732469 0.228425
H102  H     H_    0.250720 0.761035 0.254026 0.267333
H103  H     H_    0.265276 0.779279 0.332782 0.261661
H104  H     H_    0.307088 0.737033 0.335134 0.240488
H105  H     H_    0.241515 0.704539 0.348919 0.197121
H106  H     H_    0.647883 0.692905 0.568493 0.161609
H107  H     H_    0.225840 0.686739 0.271659 0.242260
H108  H     H_    0.243720 0.254206 0.739659 0.267822
H109  H     H_    0.230234 0.272190 0.661551 0.262480
H110  H     H_    0.190224 0.228166 0.658722 0.240338
H111  H     H_    0.260025 0.198882 0.649739 0.194786
H112  H     H_    0.274352 0.181123 0.726207 0.243079
H113  H     H_    0.743605 0.264357 0.246846 0.267757
H114  H     H_    0.760810 0.281593 0.327490 0.262078
H115  H     H_    0.801664 0.240036 0.326467 0.239834
H116  H     H_    0.738981 0.206221 0.344157 0.197607
H117  H     H_    0.422837 0.688993 0.579256 0.157951
H118  H     H_    0.720836 0.189356 0.265216 0.242238
H119  H     H_    0.010756 0.838455 0.825270 0.250563
H120  H     H_    0.002802 0.835601 0.891164 0.266763
H121  H     H_    0.069811 0.825842 0.912059 0.248216
H122  H     H_    0.037441 0.755361 0.908493 0.218233
H123  H     H_    0.026825 0.759161 0.831387 0.194122
H124  H     H_    0.968695 0.725312 0.172682 0.247228
H125  H     H_    0.911434 0.751022 0.093795 0.254043
H126  H     H_    0.957144 0.714670 0.093040 0.273731
H127  H     H_    0.986950 0.804528 0.163280 0.218758
H128  H     H_    0.077651 0.190207 0.425029 0.160218
H129  H     H_    0.977266 0.792795 0.088231 0.225059
H130  H     H_    0.503071 0.342578 0.830377 0.253769
H131  H     H_    0.490123 0.338494 0.891649 0.266303
H132  H     H_    0.559685 0.331482 0.918924 0.249019
H133  H     H_    0.531047 0.259536 0.913960 0.220878
H134  H     H_    0.523138 0.264219 0.838736 0.195071
H135  H     H_    0.452574 0.216009 0.099292 0.272489
H136  H     H_    0.467601 0.226477 0.181037 0.248293
H137  H     H_    0.408823 0.252415 0.103699 0.251958
H138  H     H_    0.485008 0.305870 0.170130 0.215439
H139  H     H_    0.922595 0.188683 0.579533 0.158291
H140  H     H_    0.472033 0.293974 0.093156 0.224684
H141  H     H_    0.857384 0.836049 0.647840 0.254453
H142  H     H_    0.913300 0.852230 0.735352 0.259603
H143  H     H_    0.922613 0.855329 0.670902 0.251649
H144  H     H_    0.971677 0.791415 0.733367 0.216988
H145  H     H_    0.909985 0.772495 0.656969 0.205152
H146  H     H_    0.125618 0.841965 0.334729 0.253260
H147  H     H_    0.062612 0.849294 0.247214 0.255117
H148  H     H_    0.059321 0.849854 0.316921 0.262743
H149  H     H_    0.026420 0.778181 0.265865 0.218084
H150  H     H_    0.592535 0.635750 0.569940 0.147747
H151  H     H_    0.092940 0.772232 0.343922 0.209998
H152  H     H_    0.350360 0.335147 0.651293 0.258261
H153  H     H_    0.407249 0.354826 0.735878 0.262241
H154  H     H_    0.411855 0.356385 0.667165 0.258188
H155  H     H_    0.468481 0.295754 0.739849 0.222798
H156  H     H_    0.409358 0.273796 0.663413 0.198902
H157  H     H_    0.627757 0.340879 0.340243 0.254637
H158  H     H_    0.561919 0.350528 0.255957 0.255574
H159  H     H_    0.564845 0.348872 0.330542 0.255883
H160  H     H_    0.526674 0.279049 0.272527 0.218293
I1    I     I_    0.650969 0.850409 0.302059 -0.414579
I2    I     I_    0.195051 0.606141 0.334891 -0.360635
I3    I     I_    0.305483 0.102610 0.657805 -0.358499
I4    I     I_    0.695189 0.106526 0.333869 -0.357949
I5    I     I_    0.053270 0.854921 0.659001 -0.373187
I6    I     I_    0.946911 0.856042 0.337627 -0.369910
I7    I     I_    0.516734 0.385928 0.677202 -0.381290
I8    I     I_    0.450702 0.337266 0.385627 -0.373458
I9    I     I_    0.352032 0.850770 0.698793 -0.411119
I10   I     I_    0.152981 0.351494 0.305260 -0.412185
I11   I     I_    0.839081 0.350896 0.694214 -0.419190
I12   I     I_    0.846534 0.712874 0.874693 -0.364522
I13   I     I_    0.157407 0.708929 0.128663 -0.342419
I14   I     I_    0.338345 0.205694 0.868188 -0.342016
I15   I     I_    0.648511 0.212198 0.122516 -0.340861
I16   I     I_    0.690451 0.581000 0.395195 -0.380591
N1    N     N_R   0.555381 0.740981 0.035808 -0.231537
N2    N     N_R   0.024227 0.784501 0.034556 -0.238275
N3    N     N_R   0.474945 0.208923 0.966688 -0.179793
N4    N     N_R   0.513770 0.285317 0.033820 -0.238984
N5    N     N_R   0.015879 0.709089 0.034585 -0.184851
N6    N     N_R   0.990146 0.784285 0.965950 -0.229177
N7    N     N_R   0.509065 0.209662 0.035389 -0.182759
N8    N     N_R   0.479267 0.284581 0.965228 -0.231030
N9    N     N_R   0.521615 0.741251 0.967142 -0.238815
N10   N     N_R   0.056203 0.247502 0.034913 -0.232138
N11   N     N_R   0.021934 0.247643 0.966230 -0.239003
N12   N     N_R   0.443895 0.742180 0.964321 -0.233262
N13   N     N_R   0.477663 0.741933 0.032987 -0.239170
N14   N     N_R   0.944981 0.243410 0.964723 -0.233850
N15   N     N_R   0.979248 0.243311 0.033404 -0.239318
N16   N     N_R   0.982125 0.708859 0.965900 -0.187495
O1    O     O_R   0.821190 0.768980 0.500000 -0.586086
O2    O     O_R   0.074010 0.954920 0.557790 -0.574183
O3    O     O_R   0.425990 0.454920 0.442210 -0.575603
O4    O     O_R   0.574010 0.454920 0.557790 -0.577316
O5    O     O_R   0.983760 0.954940 0.557800 -0.560342
O6    O     O_R   0.016240 0.954940 0.442200 -0.560159
O7    O     O_R   0.483760 0.454940 0.557800 -0.552741
O8    O     O_R   0.516240 0.454940 0.442200 -0.567297
O9    O     O_R   0.768960 0.821170 0.500020 -0.579122
O10   O     O_R   0.231040 0.821170 0.499980 -0.575360
O11   O     O_R   0.268960 0.321170 0.500020 -0.578474
O12   O     O_R   0.178810 0.768980 0.500000 -0.587736
O13   O     O_R   0.731040 0.321170 0.499980 -0.577563
O14   O     O_R   0.726180 0.723900 0.400140 -0.573973
O15   O     O_R   0.273820 0.723900 0.599860 -0.587405
O16   O     O_R   0.226180 0.223900 0.400140 -0.585750
O17   O     O_R   0.773820 0.223900 0.599860 -0.586844
O18   O     O_R   0.673950 0.776090 0.400160 -0.549968
O19   O     O_R   0.326050 0.776090 0.599840 -0.550446
O20   O     O_R   0.173950 0.276090 0.400160 -0.550612
O21   O     O_R   0.826050 0.276090 0.599840 -0.551780
O22   O     O_R   0.731010 0.678810 0.499990 -0.555658
O23   O     O_R   0.321190 0.268980 0.500000 -0.578893
O24   O     O_R   0.268990 0.678810 0.500010 -0.581040
O25   O     O_R   0.231010 0.178810 0.499990 -0.580187
O26   O     O_R   0.768990 0.178810 0.500010 -0.580323
O27   O     O_R   0.678790 0.731000 0.500010 -0.585870
O28   O     O_R   0.321210 0.731000 0.499990 -0.582044
O29   O     O_R   0.178790 0.231000 0.500010 -0.582635
O30   O     O_R   0.821210 0.231000 0.499990 -0.581729
O31   O     O_R   0.826030 0.723890 0.599860 -0.588699
O32   O     O_R   0.173970 0.723890 0.400140 -0.574761
O33   O     O_R   0.326030 0.223890 0.599860 -0.573358
O34   O     O_R   0.678810 0.268980 0.500000 -0.590232
O35   O     O_R   0.673970 0.223890 0.400140 -0.575780
O36   O     O_R   0.773800 0.776080 0.599870 -0.585033
O37   O     O_R   0.226200 0.776080 0.400130 -0.583665
O38   O     O_R   0.273800 0.276080 0.599870 -0.589480
O39   O     O_R   0.726200 0.276080 0.400130 -0.583160
O40   O     O_R   0.425940 0.545090 0.442170 -0.582423
O41   O     O_R   0.574060 0.545090 0.557830 -0.586367
O42   O     O_R   0.925940 0.045090 0.442170 -0.583721
O43   O     O_R   0.074060 0.045090 0.557830 -0.584099
O44   O     O_R   0.483700 0.545120 0.557760 -0.583005
O45   O     O_R   0.516300 0.545120 0.442240 -0.585356
O46   O     O_R   0.983700 0.045120 0.557760 -0.584545
O47   O     O_R   0.016300 0.045120 0.442240 -0.583594
O48   O     O_R   0.925990 0.954920 0.442210 -0.574427

loop_
_geom_bond_atom_site_label_1
_geom_bond_atom_site_label_2
_ccdc_geom_bond_type
C184  O25   A    
C166  N4    A    
C30   C138  A    
C132  H95   S    
C11   H68   S    
C29   C163  S    
C88   H26   S    
C22   O2    A    
C23   C118  S    
Cu2   O7    S    
C188  H13   S    
C17   C191  S    
C68   C106  A    
C26   O31   A    
C154  C158  A    
C93   H38   S    
C3    C189  A    
C95   H42   S    
C56   C140  S    
C81   H12   S    
N2    N6    A    
C16   I4    S    
C21   O48   A    
C74   H156  S    
C14   I2    S    
C142  C146  A    
C54   H107  S    
C67   H138  S    
C2    N13   A    
C70   H144  S    
C27   O37   A    
C71   H141  S    
C169  C174  A    
C3    C19   S    
C151  C155  A    
Cu1   O1    S    
C141  C145  A    
C83   H19   S    
C13   N14   A    
Cu11  O30   S    
C77   H157  S    
C59   C60   S    
C7    C172  A    
C24   C41   S    
C71   H142  S    
C63   H127  S    
C25   C119  S    
C13   C42   S    
C90   C108  A    
C25   O8    A    
C109  H86   S    
Cu8   O27   S    
Cu10  O11   S    
C1    O1    A    
C85   H25   S    
Cu3   O48   S    
C58   H108  S    
C185  O30   A    
C144  I14   S    
C179  C188  A    
C130  H93   S    
C99   H54   S    
C50   C160  A    
C106  C127  S    
C116  O11   A    
C177  C186  A    
C34   C39   A    
Cu12  O40   S    
C72   H151  S    
C186  C190  A    
C20   C192  S    
C4    C190  A    
Cu9   O19   S    
C116  O23   A    
C136  C171  S    
Cu10  O20   S    
C14   H76   S    
C166  N7    A    
C91   H33   S    
C52   C137  S    
C164  N5    A    
C58   H109  S    
C105  O10   A    
C96   H52   S    
C59   H116  S    
C60   H115  S    
C88   H28   S    
C1    C79   S    
C148  C153  A    
Cu12  O3    S    
C78   H8    S    
C80   H6    S    
Cu8   O9    S    
C18   C190  S    
C74   C157  S    
C89   H34   S    
Cu4   O5    S    
C90   C105  S    
C72   C73   S    
C124  H88   S    
C53   H98   S    
C75   H154  S    
C175  C179  A    
Cu4   O43   S    
C119  C123  A    
C49   H80   S    
C33   C38   A    
C87   H29   S    
C48   C138  A    
C147  C164  S    
C54   H105  S    
Cu5   O15   S    
N5    N16   A    
C100  H62   S    
C73   H146  S    
Cu6   O16   S    
C27   O32   A    
C136  O21   A    
C66   H130  S    
C63   C152  S    
Cu2   O4    S    
N14   N15   A    
C82   H11   S    
C77   H159  S    
C98   C99   S    
C148  C167  S    
C41   C45   A    
C31   C36   A    
C37   C83   S    
Cu10  O29   S    
C55   H103  S    
C157  C162  A    
C181  O27   A    
C56   H112  S    
C62   H121  S    
C126  H90   S    
Cu7   O26   S    
C21   O5    A    
C137  C142  A    
C72   C156  S    
C51   H82   S    
C65   H133  S    
C85   C86   S    
C121  C125  S    
C183  O28   A    
C67   C154  S    
C45   C50   A    
C17   O40   A    
Cu12  O45   S    
C33   I11   S    
C180  C189  A    
Cu7   O17   S    
C78   C80   S    
C140  C162  A    
C150  C166  S    
C91   H31   S    
C118  C122  A    
C126  I7    S    
C105  O12   A    
C65   C153  S    
C135  O20   A    
C84   H16   S    
C95   H43   S    
C104  H65   S    
C139  C143  A    
C83   C84   S    
C32   I10   S    
Cu6   Cu10  S    
C131  H94   S    
C173  C177  A    
C89   C91   S    
C110  C114  A    
C11   H74   S    
C145  C150  A    
C186  H150  S    
Cu3   O6    S    
C89   H36   S    
C35   C120  A    
N4    N8    A    
C68   C123  A    
C75   H152  S    
Cu2   O41   S    
C128  I8    S    
C96   C111  S    
C98   C112  S    
C30   C34   A    
C155  C159  A    
C70   C155  S    
C152  C156  A    
C103  C114  S    
C71   H143  S    
C5    C191  A    
C64   H126  S    
C73   H148  S    
C134  C149  S    
C28   O38   A    
C102  H61   S    
Cu3   Cu4   S    
C15   C170  S    
C103  H67   S    
C107  H83   S    
C5    C9    S    
C82   H9    S    
C98   H58   S    
C54   C139  S    
C99   H55   S    
C36   C81   S    
C8    C12   S    
Cu2   Cu12  S    
C32   C37   A    
C61   C151  S    
Cu1   O14   S    
C62   H119  S    
C158  C163  A    
C80   H4    S    
C146  C165  S    
C156  C161  A    
C50   H81   S    
Cu6   O33   S    
C28   O33   A    
C110  H87   S    
C66   H132  S    
C179  H128  S    
C60   H114  S    
C133  O18   A    
C6    C170  A    
N1    N9    A    
C54   C55   S    
C31   I9    S    
C132  H96   S    
C107  C111  A    
C9    H71   S    
C10   H72   S    
C46   C130  S    
C57   C101  A    
C112  C117  A    
C188  C192  A    
C61   H123  S    
C130  H73   S    
C9    H46   S    
C182  N12   A    
C59   H118  S    
C93   H37   S    
C27   C161  S    
C23   O7    A    
Cu1   O31   S    
C35   C79   A    
C56   C58   S    
C37   C41   A    
C61   C62   S    
C104  H66   S    
C167  N8    A    
C146  C151  A    
C15   I3    S    
C40   C44   A    
C70   H145  S    
C59   C141  S    
C86   H21   S    
C52   H101  S    
C175  C184  S    
C44   C89   S    
C172  C176  A    
Cu1   O22   S    
C87   C88   S    
C128  H91   S    
Cu11  O39   S    
C12   I16   S    
C21   C115  S    
Cu9   O37   S    
C176  C185  S    
C52   C53   S    
C69   H135  S    
C136  O17   A    
C97   H49   S    
Cu3   O47   S    
C3    C7    A    
C131  H84   S    
C31   C149  A    
C178  H117  S    
C99   H53   S    
C101  C109  A    
C63   H129  S    
C24   N10   A    
C68   C132  S    
C57   C122  A    
Cu5   O32   S    
C70   C71   S    
C85   H23   S    
Cu3   O42   S    
C58   H110  S    
C174  C178  A    
C4    C8    S    
C173  C181  S    
C133  C138  S    
C20   O47   A    
Cu7   Cu11  S    
C17   O44   A    
C14   C169  S    
C48   H79   S    
C40   C182  S    
C170  C175  A    
C64   H124  S    
C137  C159  A    
C28   C162  S    
C22   O6    A    
C139  C161  A    
C53   H99   S    
C93   H39   S    
C75   H153  S    
Cu2   O44   S    
C47   C51   A    
C108  C112  A    
C74   H155  S    
C143  C147  A    
C9    C14   S    
C129  H1    S    
C11   C16   S    
Cu7   O34   S    
C79   C107  A    
C26   C159  S    
C66   H131  S    
C12   H75   S    
C103  H69   S    
C178  C187  A    
C77   H158  S    
C20   O43   A    
C19   O46   A    
C189  H24   S    
C33   C171  A    
Cu12  O8    S    
C135  C160  S    
C140  C144  A    
N12   N13   A    
C174  C183  S    
C6    C10   S    
C92   H41   S    
N10   N11   A    
C46   C90   A    
C184  O29   A    
Cu1   Cu8   S    
C10   H57   S    
C127  O34   A    
C23   O3    A    
C114  C119  A    
C29   O35   A    
C92   C93   S    
C47   C94   S    
C124  C129  S    
C134  O19   A    
C142  I12   S    
C65   C66   S    
C153  C157  A    
C94   C95   S    
N3    N7    A    
C30   I1    S    
C53   H97   S    
C133  O14   A    
C4    C168  A    
C88   H27   S    
C6    C192  A    
C103  C104  S    
C101  C116  S    
C5    C169  A    
C18   O41   A    
C78   H7    S    
C180  H139  S    
C80   H5    S    
C165  N16   A    
C44   C49   A    
C22   C117  S    
Cu4   O2    S    
C13   N11   A    
C52   H100  S    
C134  O15   A    
C26   O36   A    
C144  C148  A    
C94   H47   S    
C81   C82   S    
Cu4   O46   S    
C7    C11   S    
C76   C158  S    
C87   H30   S    
Cu9   O28   S    
C84   H17   S    
C38   C42   A    
C10   C15   S    
C25   O4    A    
C73   H147  S    
C69   H137  S    
C19   O42   A    
Cu6   O25   S    
C45   C92   S    
C117  C121  A    
C185  O26   A    
C82   H10   S    
C182  N9    A    
C2    C39   S    
C46   C121  A    
Cu5   Cu9   S    
C43   C48   A    
Cu11  O13   S    
C18   O45   A    
C187  C191  A    
Cu10  O38   S    
C56   H111  S    
C62   H120  S    
C72   H149  S    
C69   H136  S    
C83   H18   S    
C127  O13   A    
C65   H134  S    
C86   H20   S    
C128  C132  S    
C97   H48   S    
C168  C173  A    
C74   C75   S    
C38   C85   S    
C177  H106  S    
C2    N1    A    
C36   C40   A    
C76   C77   S    
C29   O39   A    
C39   C43   A    
C129  H92   S    
Cu5   O12   S    
C91   H32   S    
C145  I15   S    
C63   C64   S    
C67   C69   S    
C61   H122  S    
C122  C126  S    
C84   H15   S    
C95   H44   S    
C108  H85   S    
C16   C172  S    
C176  C180  A    
Cu11  O21   S    
C96   C97   S    
C100  C102  S    
C67   H140  S    
Cu7   O35   S    
C141  C163  A    
Cu8   O36   S    
C86   H22   S    
C102  H60   S    
C15   H77   S    
C167  N3    A    
C94   H45   S    
C106  C110  A    
C8    H35   S    
C98   H56   S    
C35   C129  S    
C124  I5    S    
C102  H59   S    
C57   C131  S    
C100  C113  S    
C104  H64   S    
C96   H51   S    
C12   C168  S    
C125  H89   S    
C64   H125  S    
C76   H3    S    
C1    O9    A    
C100  H63   S    
C109  C113  A    
Cu9   O10   S    
Cu5   O24   S    
C49   C149  A    
C43   C87   S    
Cu6   O23   S    
C51   C171  A    
C147  C152  A    
C125  I6    S    
C76   H160  S    
C34   C78   S    
C92   H40   S    
C123  C128  S    
C126  C131  S    
C81   H14   S    
C187  H2    S    
C183  O24   A    
C42   C47   A    
C24   N15   A    
C16   H78   S    
C55   H102  S    
C8    H70   S    
C181  O22   A    
C125  C130  S    
C113  C118  A    
C55   H104  S    
Cu8   O18   S    
C165  N6    A    
C115  C120  A    
C150  C154  A    
C60   H113  S    
C111  C115  A    
C143  I13   S    
C164  N2    A    
C135  O16   A    
C120  C124  S    
C97   H50   S    
C32   C160  A    
