data_mof_unit_48510.cif
_audit_creation_date              2013-03-05T15:55:18-0500
_audit_creation_method            fapswitch 2.2
_symmetry_space_group_name_H-M    P1
_symmetry_Int_Tables_number       1
_space_group_crystal_system       triclinic
_cell_length_a                    14.705338
_cell_length_b                    14.777818
_cell_length_c                    33.250553
_cell_angle_alpha                 96.077378
_cell_angle_beta                  96.108089
_cell_angle_gamma                 61.232836
_cell_volume                      6285.6284676

loop_
_atom_site_label
_atom_site_type_symbol
_atom_site_description
_atom_site_fract_x
_atom_site_fract_y
_atom_site_fract_z
_atom_type_partial_charge
O1    O     O_R   0.679450 0.499830 0.463150 -0.523943
O2    O     O_R   0.480650 0.664000 0.464630 -0.490311
C1    C     C_R   0.408037 0.660402 0.440192 0.842432
O3    O     O_R   0.323930 0.675950 0.455370 -0.539524
O4    O     O_R   0.354700 0.475360 0.451930 -0.551333
C2    C     C_R   0.405859 0.386375 0.433969 0.764259
O5    O     O_R   0.494470 0.320860 0.448390 -0.543678
O6    O     O_R   0.662580 0.357570 0.460050 -0.543275
C3    C     C_R   0.700807 0.410013 0.447498 0.787158
O7    O     O_R   0.680900 0.502040 0.551870 -0.545030
O8    O     O_R   0.481990 0.666040 0.546870 -0.530166
C4    C     C_R   0.393324 0.701448 0.561258 0.806473
O9    O     O_R   0.325370 0.678160 0.544080 -0.543911
O10   O     O_R   0.356040 0.477400 0.534170 -0.537502
C5    C     C_R   0.407234 0.389178 0.549173 0.801623
O11   O     O_R   0.495910 0.323070 0.537100 -0.544771
O12   O     O_R   0.663920 0.359620 0.542290 -0.538208
C6    C     C_R   0.701537 0.413668 0.562601 0.788918
Cr1   Cr    Cr6+3 0.576280 0.580550 0.506370 1.032617
Cr2   Cr    Cr6+3 0.346780 0.572400 0.496520 0.955862
Cr3   Cr    Cr6+3 0.576960 0.347070 0.497150 0.945944
O13   O     O_3   0.500010 0.500010 0.500010 -0.362180
H1    H     H_    0.449853 0.171518 0.109443 0.143323
H2    H     H_    0.465734 0.207178 0.182668 0.125885
H3    H     H_    0.469976 0.202817 0.309678 0.133850
H4    H     H_    0.505589 0.216019 0.382921 0.153317
C7    C     C_R   0.370742 0.366596 0.392370 -0.052027
C8    C     C_R   0.280903 0.444347 0.373338 -0.161221
C9    C     C_R   0.261572 0.436810 0.331438 -0.089397
C10   C     C_R   0.331039 0.350990 0.308395 0.113746
C11   C     C_R   0.416160 0.269782 0.327394 -0.117506
C12   C     C_R   0.435906 0.277286 0.369202 -0.135704
C13   C     C_R   0.394617 0.256483 0.165602 -0.121752
C14   C     C_R   0.385464 0.236563 0.123847 -0.152999
C15   C     C_R   0.209558 0.379432 0.121455 -0.157255
C16   C     C_R   0.218883 0.398991 0.163244 -0.097996
C17   C     C_R   0.310232 0.335504 0.185426 0.115302
C18   C     C_1   0.314621 0.344923 0.228747 -0.012574
C19   C     C_1   0.320120 0.348938 0.265107 -0.013241
C20   C     C_R   0.291422 0.295450 0.101606 -0.056282
H5    H     H_    0.228937 0.513740 0.390405 0.145930
H6    H     H_    0.153279 0.460430 0.178453 0.151314
H7    H     H_    0.136084 0.426139 0.105196 0.150392
H8    H     H_    0.195156 0.499776 0.316879 0.145426
N1    N     N_R   0.770658 0.401681 0.225255 -0.189582
N2    N     N_R   0.766254 0.407379 0.265201 -0.208900
C21   C     C_R   0.757220 0.372861 0.410193 -0.121037
C22   C     C_R   0.794374 0.432393 0.394424 -0.180668
C23   C     C_R   0.825928 0.411882 0.354701 0.387945
C24   C     C_R   0.818969 0.330375 0.330580 -0.093456
C25   C     C_R   0.792304 0.264542 0.347770 -0.187873
C26   C     C_R   0.761490 0.285628 0.387307 -0.143046
N3    N     N_R   0.882752 0.230500 0.266580 -0.268292
N4    N     N_R   0.887752 0.225093 0.226608 -0.282139
C27   C     C_R   0.833010 0.310943 0.205265 0.547033
C28   C     C_R   0.823797 0.322383 0.286586 0.574055
C29   C     C_R   0.839381 0.392375 0.143201 0.397702
C30   C     C_R   0.866858 0.379928 0.103272 -0.202927
C31   C     C_R   0.907775 0.199971 0.099492 -0.147322
C32   C     C_R   0.878309 0.211888 0.138958 -0.178620
C33   C     C_R   0.847791 0.306443 0.161797 -0.102613
C34   C     C_R   0.906732 0.282741 0.082045 -0.108472
H9    H     H_    0.795472 0.497178 0.412575 0.216660
H10   H     H_    0.734153 0.237765 0.398847 0.154085
H11   H     H_    0.865424 0.444722 0.090157 0.177432
H12   H     H_    0.787512 0.201468 0.329582 0.155080
H13   H     H_    0.937537 0.124240 0.083688 0.149535
H14   H     H_    0.883903 0.145467 0.152294 0.159143
N5    N     N_R   0.353758 0.697067 0.204356 -0.285419
N6    N     N_R   0.362642 0.678936 0.243367 -0.291799
C35   C     C_R   0.400511 0.691213 0.398513 -0.202488
C36   C     C_R   0.333904 0.673124 0.369481 -0.209849
C37   C     C_R   0.336749 0.683297 0.328596 -0.163446
C38   C     C_R   0.407354 0.710584 0.315369 -0.108725
C39   C     C_R   0.475737 0.728685 0.344350 0.209211
C40   C     C_R   0.469879 0.722382 0.385805 0.336704
N7    N     N_R   0.435901 0.788458 0.259385 -0.206850
N8    N     N_R   0.428154 0.805791 0.220522 -0.257054
C41   C     C_R   0.386890 0.760628 0.192251 0.528903
C42   C     C_R   0.404067 0.724400 0.271716 0.586653
C43   C     C_R   0.284364 0.790075 0.125824 -0.130356
C44   C     C_R   0.252095 0.840306 0.089724 -0.147462
C45   C     C_R   0.392408 0.884009 0.100320 -0.149419
C46   C     C_R   0.424000 0.834676 0.136488 -0.090783
C47   C     C_R   0.367756 0.790965 0.150293 0.019514
C48   C     C_R   0.303538 0.891061 0.077508 -0.049633
H15   H     H_    0.281051 0.648258 0.378325 0.157831
H16   H     H_    0.184065 0.843469 0.072399 0.141958
H17   H     H_    0.283273 0.669337 0.307194 0.165544
H18   H     H_    0.239846 0.756748 0.135823 0.143449
H19   H     H_    0.434313 0.921392 0.091435 0.143420
H20   H     H_    0.489514 0.835110 0.154631 0.162934
N9    N     N_R   0.267495 0.440071 0.770818 -0.231554
N10   N     N_R   0.267086 0.442471 0.730879 -0.194022
C49   C     C_R   0.370500 0.370210 0.585353 -0.096738
C50   C     C_R   0.277205 0.445892 0.601474 -0.177367
C51   C     C_R   0.253000 0.439241 0.640230 0.294985
C52   C     C_R   0.323623 0.355868 0.663598 -0.045362
C53   C     C_R   0.412018 0.275831 0.645740 -0.161634
C54   C     C_R   0.435220 0.282859 0.607093 -0.144221
N11   N     N_R   0.361436 0.262172 0.725083 -0.274220
N12   N     N_R   0.362371 0.259668 0.764962 -0.225646
C55   C     C_R   0.316677 0.348544 0.788609 0.572174
C56   C     C_R   0.313579 0.353579 0.707165 0.545158
C57   C     C_R   0.221242 0.404713 0.850960 -0.161515
C58   C     C_R   0.208979 0.384204 0.889388 -0.140920
C59   C     C_R   0.388065 0.248860 0.893136 -0.213194
C60   C     C_R   0.401805 0.269472 0.854702 0.394768
C61   C     C_R   0.315316 0.344076 0.832457 -0.097575
C62   C     C_R   0.290754 0.302576 0.909875 -0.116276
H21   H     H_    0.224854 0.512741 0.584691 0.165936
H22   H     H_    0.507297 0.222741 0.595361 0.154529
H23   H     H_    0.133226 0.427390 0.901697 0.167063
H24   H     H_    0.467178 0.210230 0.662592 0.168908
H25   H     H_    0.154548 0.462664 0.834429 0.178936
H26   H     H_    0.452745 0.188273 0.909429 0.182419
H27   H     H_    0.993416 0.118270 0.872266 0.181876
H28   H     H_    0.792494 0.207907 0.670888 0.160254
H29   H     H_    0.739775 0.241314 0.599512 0.152089
C63   C     C_R   0.755340 0.380809 0.602652 -0.100164
C64   C     C_R   0.785419 0.445539 0.628011 -0.172291
C65   C     C_R   0.815133 0.426634 0.668885 0.294101
C66   C     C_R   0.815316 0.342034 0.684632 0.038513
C67   C     C_R   0.792032 0.273644 0.658990 -0.151023
C68   C     C_R   0.762492 0.292615 0.618220 -0.158816
C69   C     C_R   0.919058 0.205732 0.820451 0.319158
C70   C     C_R   0.943834 0.195191 0.861910 -0.217087
C71   C     C_R   0.848350 0.381854 0.874677 0.284330
C72   C     C_R   0.823331 0.391943 0.833041 -0.165890
C73   C     C_R   0.861028 0.304676 0.805893 -0.007429
C74   C     C_1   0.844451 0.317823 0.763161 0.091766
C75   C     C_1   0.832019 0.328411 0.727326 0.064141
C76   C     C_R   0.912528 0.282712 0.889349 -0.160220
H30   H     H_    0.780817 0.513819 0.616713 0.175717
H31   H     H_    0.776780 0.468316 0.821749 0.178009
H32   H     H_    0.417236 0.951437 0.890369 0.163050
H33   H     H_    0.451651 0.899825 0.819072 0.161602
H34   H     H_    0.517083 0.778915 0.686776 0.147687
H35   H     H_    0.534581 0.728850 0.614273 0.152184
C77   C     C_R   0.376119 0.754426 0.602080 -0.066997
C78   C     C_R   0.280648 0.788827 0.619283 -0.148374
C79   C     C_R   0.271368 0.816805 0.660628 -0.082448
C80   C     C_R   0.357074 0.811109 0.685140 0.095880
C81   C     C_R   0.450404 0.783345 0.667940 -0.114675
C82   C     C_R   0.459886 0.755488 0.626541 -0.145831
C83   C     C_R   0.392347 0.889858 0.831742 -0.151233
C84   C     C_R   0.372806 0.918805 0.872479 -0.133255
C85   C     C_R   0.235668 0.870447 0.864645 -0.174605
C86   C     C_R   0.255782 0.840447 0.823869 0.330576
C87   C     C_R   0.332150 0.853541 0.807105 0.036296
C88   C     C_1   0.343984 0.837730 0.764280 0.058806
C89   C     C_1   0.350983 0.826287 0.728220 0.014478
C90   C     C_R   0.291770 0.912867 0.888971 -0.110711
H36   H     H_    0.214797 0.788798 0.601283 0.154961
H37   H     H_    0.173261 0.864664 0.876753 0.175100
H38   H     H_    0.198724 0.838540 0.673769 0.162913
O14   O     O_R   0.170070 0.978950 0.027680 -0.549197
O15   O     O_R   0.001760 0.175230 0.026640 -0.538217
C91   C     C_R   0.963167 0.264422 0.045517 0.808623
O16   O     O_R   0.984760 0.333570 0.037150 -0.542265
O17   O     O_R   0.183410 0.309240 0.041890 -0.537693
C92   C     C_R   0.272786 0.259609 0.060005 0.775503
O18   O     O_R   0.340240 0.172500 0.045430 -0.548187
O19   O     O_R   0.309670 0.000990 0.032050 -0.536814
C93   C     C_R   0.259847 0.958479 0.043363 0.780163
O20   O     O_R   0.168330 0.982130 0.939200 -0.546696
O21   O     O_R   0.000140 0.178170 0.944610 -0.541160
C94   C     C_R   0.961937 0.267755 0.930894 0.845900
O22   O     O_R   0.983010 0.336750 0.948660 -0.515667
O23   O     O_R   0.181800 0.312190 0.959860 -0.535731
C95   C     C_R   0.271023 0.263798 0.945254 0.797893
O24   O     O_R   0.338500 0.175680 0.956950 -0.547183
O25   O     O_R   0.308050 0.003930 0.950020 -0.535956
C96   C     C_R   0.256457 0.964743 0.929001 0.797108
Cr4   Cr    Cr6+3 0.087320 0.083240 0.984860 0.960364
Cr5   Cr    Cr6+3 0.087720 0.316210 0.996740 0.982404
Cr6   Cr    Cr6+3 0.317350 0.090340 0.995890 0.956086
O26   O     O_3   0.164130 0.163270 0.992500 -0.340894
N13   N     N_R   0.863334 0.474612 0.339258 0.127106
O27   O     O_R   0.837439 0.567278 0.355382 -0.308764
O28   O     O_R   0.932957 0.435418 0.312425 -0.336782
N14   N     N_R   0.814212 0.489374 0.165309 0.108593
O29   O     O_R   0.746058 0.575091 0.149485 -0.359481
O30   O     O_R   0.874775 0.493243 0.196204 -0.325319
N15   N     N_R   0.532366 0.751182 0.414793 0.140656
O31   O     O_R   0.488587 0.835291 0.438118 -0.343435
O32   O     O_R   0.632710 0.693302 0.418180 -0.330055
Br1   Br    Br    0.582207 0.757667 0.329214 -0.291219
Br2   Br    Br    0.122505 0.546142 0.658910 -0.410992
N16   N     N_R   0.502902 0.213666 0.838590 0.110166
O33   O     O_R   0.534272 0.258956 0.816142 -0.345215
O34   O     O_R   0.568652 0.121821 0.850183 -0.351579
Br3   Br    Br    0.971816 0.083393 0.784563 -0.456139
Br4   Br    Br    0.792833 0.505921 0.909613 -0.480493
Br5   Br    Br    0.848669 0.521500 0.702646 -0.459084
Br6   Br    Br    0.173925 0.786948 0.791642 -0.401965

loop_
_geom_bond_atom_site_label_1
_geom_bond_atom_site_label_2
_geom_bond_distance
_ccdc_geom_bond_type
O24   Cr6   2.042699 S    
C30   C34   1.402699 A    
C95   O24   1.270028 A    
H3    C11   1.083772 S    
N16   O33   1.301557 A    
C66   C75   1.433475 S    
C37   C38   1.404178 A    
C16   H6    1.083660 S    
C49   C50   1.404653 A    
C65   Br5   1.919137 S    
C71   C72   1.398806 A    
N9    C55   1.356201 A    
C53   H24   1.083120 S    
C43   C44   1.394786 A    
N15   O31   1.301087 A    
C66   C67   1.397904 A    
O4    Cr2   1.921994 S    
O23   Cr5   1.920365 S    
N7    N8    1.326309 A    
H4    C12   1.082994 S    
O8    Cr1   1.919158 S    
O20   Cr4   2.036669 S    
C69   C70   1.393308 A    
O19   Cr6   1.926245 S    
C45   C46   1.390805 A    
C14   C20   1.406056 A    
C8    C9    1.395541 A    
C17   C18   1.429978 S    
C71   Br4   1.920313 S    
C72   C73   1.398986 A    
C86   Br6   1.919488 S    
C5    C49   1.474130 S    
C10   C11   1.397318 A    
C44   H16   1.083003 S    
C78   H36   1.083025 S    
N15   O32   1.300732 A    
O23   C95   1.275817 A    
C69   C73   1.400537 A    
C80   C81   1.397990 A    
C52   C53   1.406044 A    
C8    H5    1.082779 S    
C60   C61   1.415289 A    
N14   O29   1.301084 A    
C31   H13   1.083127 S    
C72   H31   1.083889 S    
C78   C79   1.394541 A    
H35   C82   1.083073 S    
C21   C22   1.403104 A    
O6    C3    1.276157 A    
O18   Cr6   2.037822 S    
C88   C89   1.201396 T    
C4    C77   1.475379 S    
C85   H37   1.083052 S    
C64   H30   1.083037 S    
C15   H7    1.083032 S    
C15   C20   1.408087 A    
C43   C47   1.402480 A    
C62   C95   1.473739 S    
C51   Br2   1.921445 S    
O2    Cr1   1.924181 S    
N10   C56   1.358583 A    
C31   C32   1.392603 A    
C83   C87   1.397345 A    
Cr3   O13   1.978242 S    
N13   O28   1.301529 A    
O16   Cr5   2.037079 S    
C91   O16   1.270331 A    
C60   N16   1.439866 S    
N5    N6    1.332402 A    
C48   C93   1.470571 S    
C29   N14   1.433943 S    
C51   C52   1.414095 A    
Cr4   O26   1.974873 S    
N14   O30   1.301384 A    
C18   C19   1.200142 T    
O7    C6    1.272427 A    
C50   H21   1.083190 S    
O1    Cr1   2.036912 S    
C54   H22   1.083117 S    
O20   C96   1.270858 A    
C38   C39   1.417566 A    
C58   H23   1.083125 S    
N6    C42   1.359645 A    
C25   C26   1.390992 A    
N11   N12   1.328852 A    
C94   O22   1.273655 A    
H33   C83   1.083809 S    
Cr1   O13   1.974925 S    
O1    C3    1.272207 A    
C77   C78   1.406782 A    
C26   H10   1.083079 S    
C76   C94   1.477001 S    
O14   C93   1.268415 A    
O21   C94   1.278155 A    
O17   Cr5   1.920459 S    
N8    C41   1.353842 A    
C81   C82   1.396219 A    
C22   H9    1.082382 S    
C24   C25   1.399820 A    
N1    N2    1.328466 A    
C90   C96   1.475389 S    
O12   Cr3   1.919200 S    
C32   C33   1.405295 A    
C15   C16   1.394854 A    
C1    C35   1.480731 S    
C39   C40   1.405794 A    
C20   C92   1.474074 S    
C9    C10   1.397452 A    
O10   Cr2   1.925753 S    
C30   H11   1.083705 S    
C2    C7    1.474099 S    
O10   C5    1.276090 A    
O25   Cr6   1.920117 S    
O7    Cr1   2.039647 S    
C59   C60   1.401184 A    
H1    C14   1.082998 S    
C50   C51   1.398269 A    
O12   C6    1.277328 A    
N9    N10   1.331541 A    
H28   C67   1.083837 S    
C46   C47   1.403517 A    
C29   C33   1.417415 A    
H27   C70   1.083529 S    
C32   H14   1.083320 S    
C64   C65   1.397355 A    
C21   C26   1.403345 A    
O14   Cr4   2.043041 S    
C43   H18   1.083032 S    
H29   C68   1.083035 S    
C22   C23   1.400686 A    
Cr2   O13   1.971228 S    
C3    C21   1.471258 S    
N11   C56   1.356866 A    
C9    H8    1.083564 S    
O15   C91   1.278276 A    
C59   C62   1.403662 A    
N5    C41   1.357904 A    
C85   C90   1.405785 A    
C1    O3    1.293054 A    
C6    C63   1.475879 S    
C35   C40   1.420015 A    
C41   C47   1.467633 S    
C36   H15   1.082585 S    
C63   C64   1.406685 A    
O21   Cr4   1.924599 S    
C83   C84   1.393606 A    
C58   C62   1.403096 A    
N3    C28   1.355077 A    
C57   C61   1.402319 A    
N4    C27   1.359133 A    
O19   C93   1.274605 A    
C31   C34   1.401155 A    
N16   O34   1.301526 A    
O9    Cr2   2.037546 S    
C7    C12   1.406447 A    
C49   C54   1.401185 A    
C57   H25   1.083502 S    
C11   C12   1.393389 A    
C70   C76   1.408383 A    
C36   C37   1.390655 A    
C74   C75   1.201327 T    
O6    Cr3   1.920991 S    
C77   C82   1.407793 A    
O8    C4    1.275074 A    
O11   Cr3   2.038238 S    
N3    N4    1.330789 A    
C2    O5    1.271339 A    
C92   O18   1.271648 A    
C45   H19   1.083130 S    
C57   C58   1.393077 A    
H2    C13   1.083726 S    
C87   C88   1.433787 S    
C53   C54   1.390750 A    
C13   C17   1.397990 A    
C55   C61   1.469111 S    
O2    C1    1.290030 A    
C37   H17   1.083200 S    
C35   C36   1.399597 A    
C44   C48   1.405648 A    
C86   C87   1.405180 A    
O5    Cr3   2.037359 S    
N7    C42   1.353871 A    
C69   Br3   1.919530 S    
C29   C30   1.396697 A    
O4    C2    1.276325 A    
O17   C92   1.274906 A    
H34   C81   1.083607 S    
C52   C56   1.477221 S    
C27   C33   1.474210 S    
Cr5   O26   1.978002 S    
C63   C68   1.406052 A    
O22   Cr5   2.036647 S    
C13   C14   1.394311 A    
C10   C19   1.429914 S    
C73   C74   1.433599 S    
C85   C86   1.397907 A    
N12   C55   1.356127 A    
C84   C90   1.406550 A    
C24   C28   1.461601 S    
C59   H26   1.083129 S    
H32   C84   1.083088 S    
C39   Br1   1.935674 S    
Cr6   O26   1.971126 S    
O25   C96   1.274270 A    
N13   O27   1.301466 A    
O3    Cr2   2.043843 S    
O15   Cr4   1.920098 S    
C45   C48   1.403135 A    
C4    O9    1.269317 A    
N1    C27   1.355783 A    
C16   C17   1.396928 A    
C23   C24   1.414630 A    
N2    C28   1.355508 A    
C7    C8    1.407481 A    
C79   C80   1.397715 A    
C34   C91   1.471661 S    
C38   C42   1.479579 S    
C46   H20   1.083311 S    
C79   H38   1.083799 S    
C65   C66   1.404364 A    
C71   C76   1.413413 A    
C25   H12   1.083652 S    
C80   C89   1.431851 S    
C40   N15   1.433747 S    
C5    O11   1.272084 A    
C67   C68   1.393880 A    
C23   N13   1.441295 S    
