data_mof_unit_32981.cif
_audit_creation_date              2013-03-05T15:52:01-0500
_audit_creation_method            fapswitch 2.2
_symmetry_space_group_name_H-M    P1
_symmetry_Int_Tables_number       1
_space_group_crystal_system       triclinic
_cell_length_a                    12.15264
_cell_length_b                    12.784422
_cell_length_c                    27.544337
_cell_angle_alpha                 93.569973
_cell_angle_beta                  87.722436
_cell_angle_gamma                 94.592755
_cell_volume                      4254.79419132

loop_
_atom_site_label
_atom_site_type_symbol
_atom_site_description
_atom_site_fract_x
_atom_site_fract_y
_atom_site_fract_z
_atom_type_partial_charge
O1    O     O_R   0.421700 0.658820 0.502400 -0.641248
O2    O     O_R   0.578300 0.341180 0.497600 -0.646017
O3    O     O_R   0.609310 0.646410 0.496630 -0.543551
O4    O     O_R   0.390690 0.353590 0.503370 -0.542785
C1    C     C_R   0.522572 0.699754 0.498190 0.907618
C2    C     C_R   0.477428 0.300227 0.501792 0.906178
O5    O     O_R   0.406200 0.506190 0.574130 -0.635101
O6    O     O_R   0.593800 0.493810 0.425870 -0.631918
O7    O     O_R   0.593820 0.493770 0.568360 -0.555916
O8    O     O_R   0.406180 0.506230 0.431640 -0.554997
C3    C     C_R   0.501589 0.503073 0.593613 0.871234
C4    C     C_R   0.498402 0.496872 0.406387 0.871674
Zn1   Zn    Zn3+2 0.374730 0.508290 0.503850 1.024126
Zn2   Zn    Zn3+2 0.625270 0.491710 0.496150 1.022221
C5    C     C_R   0.587828 0.575709 0.824592 0.524465
C6    C     C_R   0.412675 0.421551 0.175399 0.523322
O9    O     O_2   0.675197 0.623964 0.800923 -0.523091
O10   O     O_2   0.325308 0.373332 0.199082 -0.524170
N1    N     N_R   0.502090 0.528459 0.799058 -0.355470
N2    N     N_R   0.498156 0.469333 0.200938 -0.356869
C7    C     C_R   0.410184 0.481397 0.821216 0.543885
C8    C     C_R   0.590084 0.516338 0.178769 0.547400
C9    C     C_R   0.553191 0.446024 0.720912 -0.123227
C10   C     C_R   0.446990 0.552643 0.278892 -0.121841
C11   C     C_R   0.552698 0.439461 0.670653 -0.248972
C12   C     C_R   0.447442 0.559760 0.329155 -0.244522
C13   C     C_R   0.463256 0.604608 0.672023 0.139216
C14   C     C_R   0.536444 0.394437 0.328207 0.137957
C15   C     C_R   0.463234 0.610788 0.723503 0.221977
C16   C     C_R   0.536562 0.387716 0.276728 0.217282
C17   C     C_R   0.507373 0.529590 0.747297 0.277330
C18   C     C_R   0.492659 0.468723 0.252715 0.275760
C19   C     C_R   0.493875 0.521929 0.899177 -0.092628
C20   C     C_R   0.506854 0.474789 0.100783 -0.091781
C21   C     C_R   0.585499 0.573503 0.875080 -0.020508
C22   C     C_R   0.415275 0.423179 0.124886 -0.016169
C23   C     C_R   0.671766 0.623495 0.901950 -0.103394
C24   C     C_R   0.329349 0.372605 0.097988 -0.112784
C25   C     C_R   0.401983 0.478642 0.872558 -0.081938
C26   C     C_R   0.598488 0.518618 0.127420 -0.076585
C27   C     C_R   0.505710 0.516244 0.646251 -0.043432
C28   C     C_R   0.494228 0.483173 0.353763 -0.044744
H1    H     H_    0.739068 0.669857 0.884655 0.203070
H2    H     H_    0.262161 0.326111 0.115289 0.202151
C29   C     C_R   0.599652 0.528210 0.025051 -0.111905
C30   C     C_R   0.401269 0.468029 0.974886 -0.100453
C31   C     C_R   0.409436 0.446921 0.024396 0.108848
C32   C     C_R   0.591608 0.549138 0.975517 0.098831
C33   C     C_R   0.505139 0.484316 0.050022 0.046053
C34   C     C_R   0.495760 0.512005 0.949909 0.046261
C35   C     C_R   0.699994 0.544802 0.050248 0.337026
C36   C     C_R   0.300779 0.451788 0.949769 0.302252
C37   C     C_R   0.695635 0.557225 0.101514 0.078460
C38   C     C_R   0.304799 0.440121 0.898472 0.038582
O11   O     O_2   0.672362 0.558912 0.206849 -0.549000
O12   O     O_2   0.327771 0.439167 0.793129 -0.554463
C39   C     C_R   0.672838 0.614007 0.951703 -0.114389
C40   C     C_R   0.328460 0.381759 0.048199 -0.109657
H3    H     H_    0.413976 0.626715 0.348932 0.169165
H4    H     H_    0.586309 0.372774 0.650713 0.166577
H5    H     H_    0.413306 0.613904 0.259927 0.163608
H6    H     H_    0.587061 0.384618 0.739709 0.163310
H7    H     H_    0.737471 0.658760 0.971373 0.192001
H8    H     H_    0.264149 0.336607 0.028497 0.192022
C41   C     C_R   0.462842 0.188945 0.506166 -0.106949
C42   C     C_R   0.537176 0.810995 0.493776 -0.105541
C43   C     C_R   0.615112 0.965464 0.455068 0.412741
C44   C     C_R   0.384659 0.034325 0.544709 0.480998
C45   C     C_R   0.605468 0.855594 0.456808 0.018370
C46   C     C_R   0.393980 0.144187 0.542920 0.050867
C47   C     C_R   0.470949 0.870994 0.524578 -0.211590
C48   C     C_R   0.529366 0.129023 0.475450 -0.206207
C49   C     C_R   0.462985 0.975932 0.517298 -0.056186
C50   C     C_R   0.537151 0.024017 0.482637 -0.036135
H9    H     H_    0.577278 0.166889 0.446640 0.213133
H10   H     H_    0.423181 0.833199 0.553457 0.212584
N3    N     N_R   0.207800 0.519340 0.508990 -0.172208
N4    N     N_R   0.792200 0.480660 0.491010 -0.171656
C51   C     C_R   0.939670 0.370037 0.476325 -0.126798
C52   C     C_R   0.060467 0.630151 0.523539 -0.131490
C53   C     C_R   0.828892 0.388214 0.473616 -0.059253
C54   C     C_R   0.171208 0.611895 0.526277 -0.060568
C55   C     C_R   0.865086 0.558577 0.512827 0.520141
C56   C     C_R   0.134858 0.441420 0.487260 0.508591
C57   C     C_R   0.981100 0.548107 0.509018 -0.097409
C58   C     C_R   0.018931 0.452050 0.490907 -0.088912
H11   H     H_    0.229441 0.673963 0.539791 0.207426
H12   H     H_    0.770702 0.326137 0.460071 0.207786
H13   H     H_    0.960720 0.290552 0.467601 0.249328
H14   H     H_    0.039591 0.709714 0.532242 0.251641
C59   C     C_3   0.420875 0.690954 0.644029 -0.776169
H15   H     H_    0.483415 0.715560 0.615649 0.230179
H16   H     H_    0.342750 0.661904 0.626469 0.253472
H17   H     H_    0.404304 0.762709 0.666772 0.264951
C60   C     C_3   0.578485 0.308277 0.356427 -0.772192
H18   H     H_    0.515840 0.284171 0.384852 0.231162
H19   H     H_    0.594794 0.236226 0.333854 0.264997
H20   H     H_    0.656677 0.337273 0.373943 0.254659
C61   C     C_3   0.340786 0.213876 0.582175 -0.660679
H21   H     H_    0.321591 0.172593 0.616067 0.267781
H22   H     H_    0.398728 0.282053 0.593072 0.172772
H23   H     H_    0.264458 0.242828 0.568884 0.291690
C62   C     C_3   0.657339 0.785712 0.417236 -0.684993
H24   H     H_    0.677041 0.827284 0.383467 0.280973
H25   H     H_    0.733166 0.755281 0.430233 0.285941
H26   H     H_    0.598272 0.718470 0.406268 0.185520
S1    S     S_3+6 0.728906 0.028826 0.422267 0.016698
O13   O     O_2   0.690560 0.057796 0.374038 -0.278110
O14   O     O_2   0.771998 0.126948 0.450444 -0.342033
O15   O     O_3   0.833891 0.951050 0.412573 -0.495413
H27   H     H_    0.860586 0.941416 0.445397 0.383620
S2    S     S_3+6 0.270631 0.970614 0.577203 0.012609
O16   O     O_2   0.228165 0.873178 0.548355 -0.328356
O17   O     O_2   0.308590 0.941050 0.625421 -0.331122
O18   O     O_3   0.165724 0.048619 0.586501 -0.520244
H28   H     H_    0.108825 0.007220 0.605569 0.400970
S3    S     S_3+6 0.178118 0.329865 0.449898 0.042778
O19   O     O_2   0.290553 0.342452 0.426295 -0.266187
O20   O     O_2   0.171604 0.236323 0.480648 -0.309157
O21   O     O_3   0.092502 0.303786 0.403292 -0.549924
H29   H     H_    0.104036 0.230614 0.391382 0.405085
S4    S     S_3+6 0.821703 0.669956 0.550431 0.036938
O22   O     O_2   0.708877 0.657401 0.573636 -0.274955
O23   O     O_2   0.898495 0.693343 0.591904 -0.294972
O24   O     O_3   0.829557 0.774587 0.516027 -0.593419
H30   H     H_    0.803212 0.832810 0.537725 0.387253
C63   C     C_3   0.415122 0.701541 0.752788 -0.812623
H31   H     H_    0.327972 0.706572 0.743078 0.255939
H32   H     H_    0.415196 0.693908 0.792624 0.232382
H33   H     H_    0.464232 0.776070 0.745153 0.251009
C64   C     C_3   0.584593 0.296615 0.247672 -0.798402
H34   H     H_    0.671656 0.291502 0.257494 0.257634
H35   H     H_    0.535271 0.222257 0.255407 0.250036
H36   H     H_    0.584768 0.303896 0.207808 0.235838
C65   C     C_3   0.795488 0.609460 0.127154 -0.663529
H37   H     H_    0.859221 0.643642 0.101643 0.243252
H38   H     H_    0.770731 0.676943 0.151312 0.254765
H39   H     H_    0.834197 0.551781 0.148228 0.274085
C66   C     C_3   0.204418 0.389124 0.872777 -0.603303
H40   H     H_    0.140261 0.355295 0.898187 0.263954
H41   H     H_    0.166398 0.447522 0.851866 0.271215
H42   H     H_    0.228399 0.321580 0.848467 0.243203
S5    S     S_3+6 0.827621 0.510138 0.021264 0.074688
O25   O     O_2   0.807957 0.445961 0.974372 -0.210296
O26   O     O_2   0.900456 0.607561 0.010921 -0.286616
O27   O     O_3   0.892634 0.437450 0.058459 -0.486712
H43   H     H_    0.962162 0.479359 0.066770 0.405492
S6    S     S_3+6 0.173104 0.485434 0.979109 0.042536
O28   O     O_2   0.101041 0.387563 0.989248 -0.246381
O29   O     O_2   0.192530 0.549409 0.026093 -0.285845
O30   O     O_3   0.105637 0.556534 0.942259 -0.459446
H44   H     H_    0.155832 0.620162 0.937184 0.355962

loop_
_geom_bond_atom_site_label_1
_geom_bond_atom_site_label_2
_geom_bond_distance
_ccdc_geom_bond_type
S5    O27   1.684588 S    
C10   H5    1.083100 S    
C65   H39   1.110195 S    
C49   C50   1.420452 A    
C60   H18   1.110262 S    
C37   C65   1.515532 S    
S6    O30   1.682001 S    
C64   H36   1.107646 S    
N1    C17   1.425546 S    
S2    O17   1.502904 D    
C60   H20   1.109459 S    
C65   H37   1.106981 S    
C31   C33   1.419036 A    
C57   C58   1.401490 A    
O21   H29   0.990702 S    
C5    N1    1.360047 A    
C19   C25   1.416511 A    
C14   C60   1.518846 S    
O1    C1    1.297531 A    
C21   C23   1.396717 A    
C56   C58   1.425155 A    
S3    O20   1.503142 D    
C47   H10   1.081406 S    
C66   H42   1.109839 S    
C25   C38   1.424958 A    
C13   C15   1.415241 A    
C29   C35   1.421678 A    
C54   H11   1.078556 S    
C30   C36   1.421885 A    
Zn2   N4    2.043517 S    
S2    O18   1.682647 S    
C5    O9    1.350240 S    
C16   C64   1.514376 S    
C44   S2    1.787788 S    
C14   C28   1.417999 A    
O4    Zn1   2.001814 S    
O15   H27   0.990658 S    
C4    C28   1.451591 S    
C24   C40   1.384163 A    
N4    C55   1.401574 A    
C2    C41   1.431510 S    
C38   C66   1.515869 S    
C56   S3    1.806566 S    
O30   H44   0.990585 S    
C13   C59   1.518889 S    
C11   H4    1.083966 S    
C12   H3    1.083955 S    
C6    N2    1.360179 A    
C32   C34   1.419396 A    
C36   S6    1.791510 S    
C65   H38   1.109841 S    
S1    O14   1.502023 D    
O2    C2    1.297570 A    
C63   H32   1.107658 S    
C48   H9    1.081250 S    
C5    C21   1.391803 A    
S2    O16   1.501924 D    
C36   C38   1.410844 A    
C39   H7    1.077545 S    
C9    H6    1.083103 S    
C40   H8    1.077502 S    
Zn1   N3    2.043517 S    
C32   C39   1.406302 A    
S6    O28   1.503034 D    
C48   C50   1.380300 A    
S3    O21   1.684940 S    
C11   C27   1.394228 A    
C59   H15   1.110301 S    
C51   C53   1.390024 A    
N3    C56   1.401021 A    
C64   H35   1.110025 S    
C19   C34   1.412230 A    
C43   C45   1.403771 A    
C9    C17   1.394990 A    
C23   H1    1.083401 S    
O5    C3    1.301121 A    
O7    Zn2   2.009342 S    
C10   C18   1.395067 A    
C24   H2    1.083394 S    
C52   C57   1.416631 A    
C59   H16   1.109466 S    
C13   C27   1.417972 A    
C42   C47   1.385462 A    
C7    C25   1.416178 A    
C29   C33   1.410412 A    
O6    C4    1.301120 A    
C8    C26   1.415966 A    
C62   H25   1.108892 S    
C43   C50   1.421342 A    
O7    C3    1.305130 A    
O3    Zn2   2.001814 S    
O8    C4    1.305119 A    
O4    C2    1.298554 A    
C55   C57   1.425980 A    
N2    C8    1.366023 A    
C15   C63   1.514349 S    
O24   H30   0.990621 S    
S1    O15   1.682479 S    
C20   C26   1.416397 A    
O1    Zn1   1.965382 S    
S1    O13   1.502408 D    
S4    O23   1.504253 D    
C63   H31   1.110384 S    
C46   C61   1.515752 S    
C12   C28   1.394203 A    
C47   C49   1.380296 A    
O27   H43   0.990462 S    
N2    C18   1.425537 S    
C29   C32   1.415243 A    
S5    O26   1.504493 D    
C30   C31   1.415370 A    
C20   C33   1.412140 A    
O6    Zn2   1.990311 S    
N1    C7    1.365964 A    
C45   C62   1.515889 S    
C6    O10   1.350217 S    
C10   C12   1.381975 A    
S6    O29   1.503649 D    
C1    C42   1.431152 S    
O3    C1    1.298427 A    
O8    Zn1   2.009347 S    
C7    O12   1.347605 S    
C66   H40   1.106855 S    
C60   H19   1.105649 S    
C8    O11   1.347629 S    
C35   S5    1.790802 S    
C41   C48   1.385755 A    
C30   C34   1.410675 A    
C61   H21   1.108505 S    
S4    O24   1.681276 S    
C22   C24   1.396805 A    
S5    O25   1.503217 D    
C44   C49   1.421239 A    
C63   H33   1.110025 S    
C15   C17   1.413043 A    
S3    O19   1.490900 D    
C6    C22   1.391859 A    
C59   H17   1.105667 S    
C16   C18   1.412975 A    
C66   H41   1.110218 S    
N4    C53   1.349853 A    
C43   S1    1.788105 S    
O18   H28   0.990591 S    
N3    C54   1.349752 A    
C14   C16   1.415156 A    
C19   C21   1.411851 A    
C52   C54   1.389918 A    
C3    C27   1.451557 S    
C62   H26   1.109773 S    
C20   C22   1.411705 A    
C9    C11   1.381867 A    
C55   S4    1.808722 S    
C52   H14   1.078231 S    
C64   H34   1.110388 S    
O2    Zn2   1.965381 S    
C51   H13   1.078009 S    
C53   H12   1.078564 S    
C42   C45   1.407160 A    
O5    Zn1   1.990305 S    
C61   H23   1.109184 S    
C44   C46   1.403796 A    
C26   C37   1.424832 A    
C62   H24   1.108347 S    
C35   C37   1.410506 A    
S4    O22   1.490695 D    
C61   H22   1.109743 S    
C51   C58   1.416000 A    
C23   C39   1.383937 A    
C41   C46   1.407382 A    
C31   C40   1.406309 A    
