data_mof_unit_11274.cif
_audit_creation_date              2012-12-11T16:57:09-0500
_audit_creation_method            fapswitch 2.2
_symmetry_space_group_name_H-M    P1
_symmetry_Int_Tables_number       1
_space_group_crystal_system       triclinic
_cell_length_a                    14.33207
_cell_length_b                    16.591367
_cell_length_c                    6.966738
_cell_angle_alpha                 89.999965
_cell_angle_beta                  99.474811
_cell_angle_gamma                 89.999898
_cell_volume                      1634.01172821

loop_
_atom_site_label
_atom_site_type_symbol
_atom_type_description
_atom_site_fract_x
_atom_site_fract_y
_atom_site_fract_z
_atom_type_partial_charge
O1    O     O_R   0.584990 0.413650 0.534420 -0.543112
O2    O     O_R   0.584990 0.586350 0.534420 -0.543114
O3    O     O_R   0.596190 0.585230 0.208380 -0.534161
O4    O     O_R   0.596190 0.414770 0.208380 -0.534162
O5    O     O_R   0.415010 0.586420 0.976930 -0.543986
O6    O     O_R   0.415010 0.413580 0.976930 -0.543986
C1    C     C_R   0.620022 0.613096 0.385744 0.737808
C2    C     C_R   0.620022 0.386904 0.385745 0.737807
O7    O     O_3   0.440560 0.500000 0.319140 -0.371019
V1    V     V_3+5 0.511030 0.500000 0.068070 1.512705
O8    O     O_R   0.403810 0.414840 0.643540 -0.534358
O9    O     O_R   0.403810 0.585160 0.643540 -0.534360
C3    C     C_R   0.383360 0.385325 0.806372 0.769728
C4    C     C_R   0.383359 0.614675 0.806372 0.769723
V2    V     V_3+5 0.488970 0.500000 0.560620 1.512915
O10   O     O_3   0.559440 0.500000 0.859420 -0.377046
C5    C     C_2   0.311082 0.678990 0.799229 -0.332933
C6    C     C_2   0.311084 0.321009 0.799228 -0.332929
C7    C     C_2   0.295936 0.722800 0.958086 -0.057099
C8    C     C_2   0.295935 0.277201 0.958086 -0.057100
C9    C     C_2   0.196306 0.821207 0.108459 -0.329896
C10   C     C_2   0.196302 0.178796 0.108457 -0.329884
C11   C     C_2   0.210965 0.776472 0.950634 -0.053736
C12   C     C_2   0.210968 0.223525 0.950626 -0.053738
C13   C     C_R   0.755481 0.689572 0.593060 0.031803
C14   C     C_R   0.755481 0.310428 0.593062 0.031806
C15   C     C_R   0.691077 0.680067 0.418792 -0.097257
C16   C     C_R   0.691077 0.319933 0.418794 -0.097257
C17   C     C_R   0.690452 0.740636 0.279231 -0.172609
C18   C     C_R   0.690450 0.259363 0.279234 -0.172614
C19   C     C_R   0.752515 0.807294 0.308052 -0.056601
C20   C     C_R   0.752514 0.192705 0.308054 -0.056597
C21   C     C_R   0.821122 0.814945 0.478843 -0.131622
C22   C     C_R   0.821121 0.185054 0.478844 -0.131626
C23   C     C_R   0.821310 0.754103 0.618814 0.077727
C24   C     C_R   0.821310 0.245896 0.618815 0.077708
C25   C     C_3   0.806981 0.769537 0.821308 -0.311461
C26   C     C_3   0.806981 0.230462 0.821310 -0.311455
C27   C     C_3   0.732048 0.703279 0.792750 -0.176633
C28   C     C_3   0.732049 0.296721 0.792753 -0.176629
H1    H     H_    0.779638 0.831072 0.834109 0.164139
H2    H     H_    0.779637 0.168928 0.834112 0.164139
O11   O     O_R   0.921430 0.915960 0.371040 -0.529824
O12   O     O_R   0.921430 0.084040 0.371040 -0.529821
O13   O     O_R   0.910450 0.087500 0.697310 -0.547621
O14   O     O_R   0.910450 0.912500 0.697310 -0.547620
O15   O     O_R   0.091710 0.087460 0.928430 -0.544778
O16   O     O_R   0.091710 0.912540 0.928430 -0.544777
C29   C     C_R   0.887355 0.113963 0.518171 0.722795
C30   C     C_R   0.887355 0.886036 0.518171 0.722793
O17   O     O_3   0.065970 0.000000 0.586140 -0.371537
V3    V     V_3+5 0.995640 0.000000 0.837400 1.503615
O18   O     O_R   0.103020 0.915700 0.261710 -0.534871
O19   O     O_R   0.103020 0.084300 0.261710 -0.534864
C31   C     C_R   0.123759 0.885412 0.099816 0.771321
C32   C     C_R   0.123759 0.114588 0.099816 0.771328
V4    V     V_3+5 0.017940 0.000000 0.344880 1.526471
O20   O     O_3   0.947330 0.000000 0.046180 -0.372634
C33   C     C_1   0.141789 0.776824 0.772429 0.372510
N1    N     N_1   0.086944 0.776755 0.630466 -0.355382
C34   C     C_1   0.141805 0.223158 0.772398 0.372497
N2    N     N_1   0.086972 0.223214 0.630414 -0.355370
C35   C     C_1   0.752602 0.634015 0.923377 0.335782
N3    N     N_1   0.770427 0.581144 0.030695 -0.296806
C36   C     C_1   0.752605 0.365985 0.923382 0.335783
N4    N     N_1   0.770431 0.418855 0.030700 -0.296808
C37   C     C_1   0.364397 0.721294 0.137256 0.366603
N5    N     N_1   0.418700 0.720454 0.280000 -0.354362
C38   C     C_1   0.364391 0.278711 0.137264 0.366598
N6    N     N_1   0.418689 0.279555 0.280015 -0.354358
H3    H     H_    0.242628 0.814385 0.247240 0.137560
H4    H     H_    0.242615 0.185628 0.247247 0.137564
H5    H     H_    0.265360 0.686781 0.660049 0.139057
H6    H     H_    0.265366 0.313216 0.660044 0.139058
H7    H     H_    0.635242 0.739220 0.153997 0.140595
H8    H     H_    0.635239 0.260779 0.154003 0.140594
C39   C     C_1   0.733595 0.871312 0.170188 0.296884
N7    N     N_1   0.715755 0.921439 0.055603 -0.308023
C40   C     C_1   0.733591 0.128687 0.170190 0.296880
N8    N     N_1   0.715749 0.078561 0.055605 -0.308022
C41   C     C_1   0.894274 0.753289 0.960748 0.374646
N9    N     N_1   0.962453 0.740487 0.070541 -0.345075
C42   C     C_1   0.894275 0.246709 0.960746 0.374635
N10   N     N_1   0.962457 0.259510 0.070534 -0.345076
C43   C     C_1   0.634937 0.734213 0.786148 0.313984
N11   N     N_1   0.558761 0.758537 0.779411 -0.342468
C44   C     C_1   0.634938 0.265789 0.786151 0.313985
N12   N     N_1   0.558760 0.241467 0.779415 -0.342471

loop_
_geom_bond_atom_site_label_1
_geom_bond_atom_site_label_2
_ccdc_geom_bond_type
O12   C29   A    
O16   C31   A    
C26   C28   S    
C44   N12   T    
C12   C34   S    
C26   C42   S    
C15   C17   A    
O1    C2    A    
O2    C1    A    
O4    C2    A    
C41   N9    T    
C43   N11   T    
C11   C33   S    
C3    C6    S    
C9    H3    S    
C28   C44   S    
C23   C25   S    
C26   H2    S    
O3    C1    A    
V2    O10   S    
O14   V3    S    
C1    C15   S    
C21   C23   A    
O8    V2    S    
C8    C12   S    
C19   C21   A    
C7    C37   S    
O17   V4    S    
O7    V1    S    
C22   C24   A    
C33   N1    T    
C6    H6    S    
C5    H5    S    
C4    C5    S    
C25   C41   S    
C38   N6    T    
C10   H4    S    
C19   C39   S    
O18   C31   A    
O19   C32   A    
O17   V3    S    
C40   N8    T    
C9    C31   S    
O18   V4    S    
C10   C32   S    
O13   V3    S    
C21   C30   S    
C39   N7    T    
C37   N5    T    
C20   C22   A    
C7    C11   S    
C18   H8    S    
C42   N10   T    
O9    V2    S    
O13   C29   A    
O12   V4    S    
O2    V2    S    
O5    C4    A    
V3    O20   S    
C13   C23   A    
O1    V2    S    
C14   C24   A    
O9    C4    A    
C28   C36   S    
C9    C11   D    
C2    C16   S    
C10   C12   D    
C8    C38   S    
C27   C43   S    
O4    V1    S    
C22   C29   S    
O6    V1    S    
O11   C30   A    
O15   V3    S    
C17   H7    S    
C13   C15   A    
C27   C35   S    
O14   C30   A    
C14   C16   A    
C24   C26   S    
O7    V2    S    
O5    V1    S    
C17   C19   A    
O3    V1    S    
V1    O10   S    
C13   C27   S    
C20   C40   S    
C18   C20   A    
O8    C3    A    
C14   C28   S    
V4    O20   S    
C16   C18   A    
C5    C7    D    
C6    C8    D    
C25   H1    S    
C34   N2    T    
O11   V4    S    
C35   N3    T    
O16   V3    S    
C25   C27   S    
C36   N4    T    
O15   C32   A    
O6    C3    A    
O19   V4    S    
