data_mof_unit_20716.cif
_audit_creation_date              2012-12-10T17:31:18-0500
_audit_creation_method            fapswitch 2.2
_symmetry_space_group_name_H-M    P1
_symmetry_Int_Tables_number       1
_space_group_crystal_system       triclinic
_cell_length_a                    19.032623
_cell_length_b                    18.482516
_cell_length_c                    12.362727
_cell_angle_alpha                 89.968933
_cell_angle_beta                  129.146298
_cell_angle_gamma                 90.033669
_cell_volume                      3372.68818435

loop_
_atom_site_label
_atom_site_type_symbol
_atom_type_description
_atom_site_fract_x
_atom_site_fract_y
_atom_site_fract_z
_atom_type_partial_charge
C1    C     C_R   0.612283 0.898258 0.652978 0.778513
C2    C     C_R   0.611259 0.102531 0.651653 0.777455
C3    C     C_R   0.112283 0.398259 0.652978 0.778513
C4    C     C_R   0.111259 0.602531 0.651652 0.777455
C5    C     C_R   0.240336 0.780044 0.032102 0.073603
C6    C     C_R   0.242255 0.220894 0.033701 0.074512
C7    C     C_R   0.740337 0.280044 0.032103 0.073603
C8    C     C_R   0.742255 0.720894 0.033701 0.074511
C9    C     C_R   0.661586 0.274674 0.021074 0.172337
C10   C     C_R   0.660784 0.722070 0.015669 0.172136
C11   C     C_R   0.161588 0.774670 0.021079 0.172339
C12   C     C_R   0.160784 0.222069 0.015667 0.172135
C13   C     C_R   0.584830 0.239921 0.907022 -0.242849
C14   C     C_R   0.583852 0.755201 0.898887 -0.242593
C15   C     C_R   0.084832 0.739916 0.907029 -0.242850
C16   C     C_R   0.083852 0.255199 0.898884 -0.242592
C17   C     C_R   0.586732 0.206789 0.808389 -0.202966
C18   C     C_R   0.587779 0.790599 0.804010 -0.204256
C19   C     C_R   0.086732 0.706787 0.808392 -0.202967
C20   C     C_R   0.087779 0.290598 0.804008 -0.204255
C21   C     C_R   0.315591 0.816507 0.147370 -0.258446
C22   C     C_R   0.317446 0.185495 0.151114 -0.257939
C23   C     C_R   0.815592 0.316505 0.147373 -0.258445
C24   C     C_R   0.817446 0.685495 0.151113 -0.257939
C25   C     C_R   0.234474 0.843886 0.233610 -0.193187
C26   C     C_R   0.231337 0.151371 0.226066 -0.188631
C27   C     C_R   0.734470 0.343892 0.233602 -0.193182
C28   C     C_R   0.731338 0.651373 0.226069 -0.188634
C29   C     C_R   0.674030 0.162560 0.735414 -0.107311
C30   C     C_R   0.677990 0.840664 0.740581 -0.111846
C31   C     C_R   0.174028 0.662561 0.735411 -0.107311
C32   C     C_R   0.177991 0.340664 0.740583 -0.111846
C33   C     C_R   0.684462 0.997567 0.285570 -0.401141
C34   C     C_R   0.184462 0.497568 0.285570 -0.401139
C35   C     C_R   0.342805 0.000449 0.626048 0.712896
C36   C     C_R   0.842805 0.500448 0.626048 0.712897
C37   C     C_R   0.309938 0.001584 0.701736 -0.352235
C38   C     C_R   0.809937 0.501581 0.701736 -0.352237
C39   C     C_R   0.384330 0.098798 0.342587 0.794437
C40   C     C_R   0.384463 0.901007 0.342806 0.794312
C41   C     C_R   0.884330 0.598798 0.342588 0.794435
C42   C     C_R   0.884463 0.401008 0.342805 0.794314
C43   C     C_R   0.369195 0.001468 0.846549 -0.265886
C44   C     C_R   0.869195 0.501467 0.846549 -0.265884
C45   C     C_R   0.463166 0.000509 0.921773 0.020623
C46   C     C_R   0.963166 0.500509 0.921773 0.020623
C47   C     C_R   0.494847 0.999928 0.842854 0.184432
C48   C     C_R   0.994847 0.499928 0.842854 0.184431
C49   C     C_R   0.526751 0.000179 0.072290 -0.010375
C50   C     C_R   0.026751 0.500179 0.072290 -0.010376
C51   C     C_R   0.620348 0.998813 0.139848 0.109934
C52   C     C_R   0.120348 0.498813 0.139848 0.109933
C53   C     C_R   0.650096 0.998435 0.061839 -0.239010
C54   C     C_R   0.150096 0.498436 0.061839 -0.239010
C55   C     C_R   0.588996 0.999334 0.917244 -0.140443
C56   C     C_R   0.088996 0.499335 0.917244 -0.140443
C57   C     C_R   0.502050 0.000679 0.159685 -0.097807
C58   C     C_R   0.002050 0.500679 0.159685 -0.097807
C59   C     C_R   0.656578 0.999287 0.367579 0.711589
C60   C     C_R   0.156578 0.499288 0.367579 0.711588
C61   C     C_R   0.659805 0.305613 0.122913 -0.207801
C62   C     C_R   0.656512 0.688476 0.113184 -0.206489
C63   C     C_R   0.159809 0.805607 0.122923 -0.207801
C64   C     C_R   0.156511 0.188473 0.113180 -0.206489
C65   C     C_R   0.311641 0.850967 0.243722 -0.049936
C66   C     C_R   0.311144 0.148266 0.242784 -0.049786
C67   C     C_R   0.811639 0.350968 0.243721 -0.049938
C68   C     C_R   0.811145 0.648266 0.242784 -0.049783
C69   C     C_R   0.747254 0.173449 0.736064 -0.188075
C70   C     C_R   0.755046 0.835146 0.749553 -0.177268
C71   C     C_R   0.247249 0.673454 0.736055 -0.188078
C72   C     C_R   0.255048 0.335148 0.749557 -0.177266
C73   C     C_R   0.315349 0.722088 0.827969 -0.160426
C74   C     C_R   0.325385 0.289188 0.845877 -0.160053
C75   C     C_R   0.815355 0.222082 0.827981 -0.160425
C76   C     C_R   0.825383 0.789185 0.845872 -0.160054
C77   C     C_R   0.314011 0.758041 0.925275 -0.180979
C78   C     C_R   0.322134 0.250664 0.939160 -0.183749
C79   C     C_R   0.814016 0.258036 0.925284 -0.180978
C80   C     C_R   0.822133 0.750662 0.939156 -0.183750
C81   C     C_R   0.741565 0.248097 0.928739 0.080657
C82   C     C_R   0.745909 0.755491 0.934585 0.082179
C83   C     C_R   0.241562 0.748099 0.928736 0.080657
C84   C     C_R   0.245910 0.255492 0.934586 0.082179
C85   C     C_R   0.666802 0.205101 0.823579 0.079814
C86   C     C_R   0.669905 0.796157 0.825719 0.080191
C87   C     C_R   0.166801 0.705102 0.823578 0.079814
C88   C     C_R   0.169906 0.296158 0.825719 0.080190
Cu1   Cu    Cu3+1 0.526340 0.000000 0.421010 0.977067
Cu2   Cu    Cu3+1 0.026340 0.500000 0.421010 0.977067
Cu3   Cu    Cu3+1 0.473640 0.000000 0.578990 0.962786
Cu4   Cu    Cu3+1 0.973640 0.500000 0.578990 0.962786
H1    H     H_    0.230669 0.869886 0.308148 0.177717
H2    H     H_    0.225563 0.122793 0.296567 0.183255
H3    H     H_    0.730663 0.369894 0.308135 0.177727
H4    H     H_    0.725565 0.622796 0.296572 0.183248
H5    H     H_    0.721942 0.997650 0.113324 0.147536
H6    H     H_    0.221942 0.497651 0.113324 0.147536
H7    H     H_    0.755498 0.994454 0.333523 0.146364
H8    H     H_    0.255498 0.494455 0.333523 0.146365
H9    H     H_    0.432209 0.001363 0.116888 0.151238
H10   H     H_    0.932209 0.501363 0.116888 0.151238
H11   H     H_    0.339238 0.002268 0.896943 0.161164
H12   H     H_    0.839238 0.502265 0.896943 0.161164
H13   H     H_    0.238470 0.002813 0.651116 0.155449
H14   H     H_    0.738470 0.502807 0.651116 0.155448
H15   H     H_    0.619037 0.999543 0.868103 0.205405
H16   H     H_    0.119037 0.499544 0.868103 0.205405
H17   H     H_    0.522943 0.238197 0.893935 0.137414
H18   H     H_    0.520204 0.753765 0.880633 0.134949
H19   H     H_    0.022947 0.738190 0.893946 0.137414
H20   H     H_    0.020203 0.253763 0.880629 0.134949
H21   H     H_    0.599872 0.301669 0.115008 0.131207
H22   H     H_    0.594505 0.689210 0.099893 0.132944
H23   H     H_    0.099878 0.801659 0.115023 0.131207
H24   H     H_    0.094502 0.189206 0.099887 0.132944
H25   H     H_    0.378496 0.819458 0.164678 0.148950
H26   H     H_    0.382031 0.185047 0.173471 0.146173
H27   H     H_    0.878499 0.319454 0.164686 0.148948
H28   H     H_    0.882030 0.685045 0.173468 0.146174
H29   H     H_    0.752904 0.143337 0.666877 0.169510
H30   H     H_    0.762168 0.867856 0.684247 0.188880
H31   H     H_    0.252898 0.643343 0.666866 0.169507
H32   H     H_    0.262170 0.367859 0.684252 0.188881
H33   H     H_    0.369546 0.794611 0.993647 0.129358
H34   H     H_    0.379682 0.216565 0.011388 0.127647
H35   H     H_    0.869553 0.294604 0.993658 0.129359
H36   H     H_    0.879680 0.716563 0.011383 0.127647
H37   H     H_    0.371032 0.730435 0.826511 0.130638
H38   H     H_    0.384236 0.285101 0.851232 0.132827
H39   H     H_    0.871041 0.230426 0.826527 0.130637
H40   H     H_    0.884232 0.785098 0.851225 0.132828
H41   H     H_    0.523543 0.184458 0.718388 0.175901
H42   H     H_    0.524774 0.811940 0.711908 0.171691
H43   H     H_    0.023542 0.684455 0.718393 0.175902
H44   H     H_    0.024774 0.311939 0.711906 0.171691
N1    N     N_R   0.566260 0.000000 0.302220 -0.217171
N2    N     N_R   0.066260 0.500000 0.302220 -0.217171
N3    N     N_R   0.434410 0.000000 0.697680 -0.249328
N4    N     N_R   0.934410 0.500000 0.697680 -0.249329
O1    O     O_R   0.608610 0.924520 0.551740 -0.530515
O2    O     O_R   0.608610 0.075480 0.551740 -0.538449
O3    O     O_R   0.108610 0.424520 0.551740 -0.530514
O4    O     O_R   0.108610 0.575480 0.551740 -0.538451
O5    O     O_R   0.564110 0.924510 0.685150 -0.612575
O6    O     O_R   0.564110 0.075490 0.685150 -0.613273
O7    O     O_R   0.064110 0.424510 0.685150 -0.612574
O8    O     O_R   0.064110 0.575490 0.685150 -0.613274
O9    O     O_R   0.435880 0.075470 0.314850 -0.596906
O10   O     O_R   0.435880 0.924530 0.314850 -0.595498
O11   O     O_R   0.935880 0.575470 0.314850 -0.596907
O12   O     O_R   0.935880 0.424530 0.314850 -0.595497
O13   O     O_R   0.391380 0.075460 0.448260 -0.542924
O14   O     O_R   0.391380 0.924540 0.448260 -0.545148
O15   O     O_R   0.891380 0.575460 0.448260 -0.542927
O16   O     O_R   0.891380 0.424540 0.448260 -0.545143
O17   O     O_3   0.287029 0.001151 0.480561 -0.550068
C89   C     C_3   0.193566 0.994863 0.411345 -0.445813
H45   H     H_    0.167977 0.043557 0.429468 0.172218
H46   H     H_    0.178238 0.944120 0.441292 0.169317
H47   H     H_    0.157021 0.991933 0.297540 0.196883
O18   O     O_3   0.787029 0.501146 0.480561 -0.550067
C90   C     C_3   0.693565 0.494879 0.411344 -0.445818
H48   H     H_    0.667992 0.543578 0.429483 0.172215
H49   H     H_    0.678220 0.444139 0.441275 0.169322
H50   H     H_    0.657018 0.491956 0.297537 0.196883
O19   O     O_3   0.716275 0.995399 0.512796 -0.554666
C91   C     C_3   0.803202 0.023259 0.574416 -0.419057
H51   H     H_    0.838913 0.032498 0.686851 0.195282
H52   H     H_    0.799787 0.076232 0.528329 0.160106
H53   H     H_    0.843883 0.983212 0.567858 0.173380
O20   O     O_3   0.216275 0.495399 0.512795 -0.554667
C92   C     C_3   0.303199 0.523265 0.574415 -0.419050
H54   H     H_    0.338909 0.532505 0.686849 0.195281
H55   H     H_    0.299780 0.576238 0.528324 0.160102
H56   H     H_    0.343885 0.483221 0.567860 0.173379

loop_
_geom_bond_atom_site_label_1
_geom_bond_atom_site_label_2
_ccdc_geom_bond_type
C26   H2    S    
C36   O18   S    
C3    O7    A    
O17   C89   S    
C64   H24   S    
Cu4   O8    S    
C14   C18   A    
C27   H3    S    
C90   H48   S    
C48   C56   A    
C44   H12   S    
C77   H33   S    
C32   C72   A    
C92   H54   S    
C15   C19   A    
C18   C86   A    
C39   O13   A    
C2    C29   S    
C9    C61   A    
C71   H31   S    
C28   C68   A    
C62   H22   S    
C19   C87   A    
C6    C12   A    
C5    C83   A    
Cu1   O1    S    
C59   N1    A    
C19   H43   S    
Cu1   O2    S    
C6    C22   A    
C49   C57   A    
C7    C9    A    
C25   C63   A    
C45   C47   A    
C23   C67   A    
C29   C69   A    
C9    C13   A    
C56   H16   S    
C13   H17   S    
C27   C61   A    
C89   H47   S    
C30   C70   A    
C11   C15   A    
C89   H46   S    
C91   H53   S    
C22   C66   A    
C12   C16   A    
C44   C46   A    
C49   C51   A    
C50   C52   A    
C76   C80   A    
C69   C75   A    
C58   H10   S    
C69   H29   S    
C30   C86   A    
C42   O12   A    
C29   C85   A    
Cu2   O3    S    
C81   C85   A    
C4    C31   S    
C63   H23   S    
C58   N2    A    
C46   C50   A    
C91   H52   S    
C33   C59   A    
C72   H32   S    
Cu4   O7    S    
C34   C60   A    
C40   O14   A    
C10   C62   A    
C21   C65   A    
Cu2   N2    S    
C75   H39   S    
C38   C44   A    
C41   C68   S    
C73   H37   S    
C53   C55   A    
Cu2   Cu4   S    
C54   C56   A    
Cu1   O9    S    
C24   H28   S    
C31   C87   A    
C48   N4    A    
C57   N1    A    
C60   O20   S    
C15   H19   S    
C90   H50   S    
C6    C84   A    
Cu3   O14   S    
C72   C74   A    
C10   C14   A    
O19   C91   S    
C79   C81   A    
C78   H34   S    
C80   H36   S    
C53   H5    S    
C82   C86   A    
C33   C51   A    
C55   H15   S    
C33   H7    S    
C26   C66   A    
C38   H14   S    
C42   O16   A    
C35   O17   S    
C37   H13   S    
C43   C45   A    
C70   H30   S    
C34   H8    S    
C45   C49   A    
C25   H1    S    
C16   C20   A    
C50   C58   A    
C40   O10   A    
Cu4   O16   S    
C20   H44   S    
C36   N4    A    
C92   H55   S    
Cu3   N3    S    
Cu2   O12   S    
Cu1   O10   S    
C7    C81   A    
Cu1   N1    S    
C40   C65   S    
C74   H38   S    
C5    C11   A    
C17   H41   S    
C89   H45   S    
C2    O2    A    
C39   C66   S    
C17   C85   A    
C37   C43   A    
C32   C88   A    
Cu1   Cu3   S    
C1    O5    A    
C47   N3    A    
Cu4   N4    S    
Cu3   O5    S    
C59   O19   S    
O20   C92   S    
C16   H20   S    
C47   C55   A    
O18   C90   S    
C92   H56   S    
C35   C37   A    
C14   H18   S    
C12   C64   A    
C22   H26   S    
C91   H51   S    
C73   C77   A    
C90   H49   S    
C84   C88   A    
Cu2   O11   S    
C83   C87   A    
C4    O4    A    
C28   C62   A    
Cu3   O13   S    
C41   O11   A    
C35   N3    A    
C26   C64   A    
C2    O6    A    
C57   H9    S    
C39   O9    A    
C34   C52   A    
C13   C17   A    
C28   H4    S    
C36   C38   A    
C79   H35   S    
C70   C76   A    
C76   H40   S    
C1    O1    A    
C42   C67   S    
C7    C23   A    
C20   C88   A    
C31   C71   A    
C1    C30   S    
C8    C24   A    
C80   C82   A    
C52   C54   A    
C18   H42   S    
Cu4   O15   S    
C3    C32   S    
C43   H11   S    
C21   H25   S    
C27   C67   A    
C24   C68   A    
C61   H21   S    
C46   C48   A    
C78   C84   A    
C8    C82   A    
C5    C21   A    
C8    C10   A    
C74   C78   A    
C71   C73   A    
C25   C65   A    
C77   C83   A    
C54   H6    S    
C23   H27   S    
C51   C53   A    
C11   C63   A    
C75   C79   A    
Cu3   O6    S    
Cu2   O4    S    
C3    O3    A    
C60   N2    A    
C41   O15   A    
C4    O8    A    
