data_mof_unit_26159.cif
_audit_creation_date              2012-12-11T14:25:48-0500
_audit_creation_method            fapswitch 2.2
_symmetry_space_group_name_H-M    P1
_symmetry_Int_Tables_number       1
_space_group_crystal_system       triclinic
_cell_length_a                    6.980711
_cell_length_b                    14.765675
_cell_length_c                    16.232806
_cell_angle_alpha                 90.658955
_cell_angle_beta                  89.832455
_cell_angle_gamma                 89.978488
_cell_volume                      1673.07706572

loop_
_atom_site_label
_atom_site_type_symbol
_atom_type_description
_atom_site_fract_x
_atom_site_fract_y
_atom_site_fract_z
_atom_type_partial_charge
O1    O     O_R   0.494490 0.416160 0.413410 -0.554282
O2    O     O_R   0.823830 0.407240 0.585990 -0.516969
O3    O     O_R   0.994160 0.583840 0.586590 -0.558572
C1    C     C_R   0.654466 0.383969 0.612550 0.717095
O4    O     O_R   0.824200 0.405280 0.414020 -0.512186
O5    O     O_R   0.994530 0.581860 0.413390 -0.548150
C2    C     C_R   0.656022 0.385161 0.384273 0.683731
O6    O     O_R   0.494110 0.418140 0.586610 -0.547277
O7    O     O_3   0.660810 0.557940 0.500000 -0.376225
V1    V     V_3+5 0.935650 0.489250 0.500000 1.461189
O8    O     O_R   0.324250 0.592760 0.414010 -0.543051
C3    C     C_R   0.155806 0.615680 0.387020 0.675568
O9    O     O_R   0.323880 0.594720 0.585980 -0.515475
C4    C     C_R   0.154786 0.617563 0.614005 0.676676
V2    V     V_3+5 0.435660 0.510750 0.500000 1.433802
O10   O     O_3   0.160630 0.442060 0.500000 -0.359023
C5    C     C_3   0.000433 0.652515 0.751710 -0.359183
H1    H     H_    0.860621 0.634988 0.724148 0.167891
H2    H     H_    0.054751 0.587530 0.776831 0.105106
C6    C     C_3   0.977328 0.721972 0.823872 0.067723
H3    H     H_    0.012043 0.685621 0.881690 0.118939
H4    H     H_    0.953082 0.892729 0.732381 0.166419
C7    C     C_3   0.083785 0.783282 0.655196 -0.105142
C8    C     C_3   0.341884 0.696557 0.728923 0.016058
C9    C     C_3   0.143587 0.686535 0.685000 -0.019142
H5    H     H_    0.389018 0.627040 0.745943 0.108822
C10   C     C_3   0.121947 0.802742 0.813231 -0.035369
C11   C     C_3   0.085704 0.851245 0.729604 -0.338531
C12   C     C_3   0.325689 0.758347 0.808304 -0.181047
H6    H     H_    0.431867 0.813929 0.804479 0.152554
H7    H     H_    0.191709 0.806420 0.609618 0.137145
H8    H     H_    0.202373 0.901348 0.719571 0.125886
C13   C     C_2   0.995610 0.704852 0.278185 -0.097099
C14   C     C_2   0.151629 0.689894 0.325685 0.047450
H9    H     H_    0.868759 0.663566 0.287388 0.102310
C15   C     C_2   0.978406 0.777542 0.215230 -0.110866
C16   C     C_2   0.126543 0.807543 0.169693 -0.252906
H10   H     H_    0.835683 0.803628 0.203543 0.133801
H11   H     H_    0.267430 0.777895 0.176721 0.179935
C17   C     C_2   0.769788 0.196952 0.772617 -0.142380
C18   C     C_2   0.617348 0.183298 0.821678 -0.281706
H12   H     H_    0.894073 0.153198 0.778625 0.132398
H13   H     H_    0.495815 0.228894 0.821160 0.163427
C19   C     C_2   0.787403 0.274124 0.714427 0.216891
C20   C     C_2   0.636545 0.308180 0.671887 0.035095
C21   C     C_2   0.772801 0.205354 0.213787 -0.108206
C22   C     C_2   0.610802 0.170609 0.181807 -0.268084
H14   H     H_    0.909933 0.185770 0.187246 0.132752
H15   H     H_    0.474228 0.185610 0.211171 0.129960
C23   C     C_2   0.775707 0.261717 0.291053 0.201895
C24   C     C_2   0.647977 0.330258 0.306849 -0.166700
O11   O     O_R   0.770850 0.076180 0.907410 -0.541643
O12   O     O_R   0.440600 0.088970 0.079950 -0.545540
O13   O     O_R   0.270430 0.912340 0.080550 -0.528302
C25   C     C_R   0.608465 0.109062 0.109480 0.745578
O14   O     O_R   0.441120 0.087010 0.907980 -0.545560
O15   O     O_R   0.270950 0.910370 0.907350 -0.522172
C26   C     C_R   0.610064 0.109585 0.881472 0.734172
O16   O     O_R   0.770320 0.078150 0.080620 -0.544295
O17   O     O_3   0.604200 0.936340 0.994000 -0.357539
V3    V     V_3+5 0.329300 0.004970 0.993950 1.470584
O18   O     O_R   0.941240 0.899420 0.907920 -0.555203
C27   C     C_R   0.110654 0.873736 0.882513 0.714693
O19   O     O_R   0.940720 0.901380 0.079890 -0.545229
C28   C     C_R   0.109844 0.878931 0.106995 0.742128
V4    V     V_3+5 0.829310 0.983370 0.993880 1.437267
O20   O     O_3   0.104280 0.052120 0.993920 -0.377137
N1    N     N_3   0.314127 0.749320 0.321377 -0.662052
H16   H     H_    0.336883 0.777126 0.380063 0.239222
H17   H     H_    0.434509 0.710709 0.305408 0.228952
N2    N     N_3   0.975907 0.309031 0.700947 -0.673317
H18   H     H_    0.058736 0.255723 0.677428 0.230800
H19   H     H_    0.032054 0.328512 0.758100 0.216364
N3    N     N_3   0.451675 0.266927 0.679544 -0.696976
H20   H     H_    0.358348 0.316863 0.701672 0.232937
H21   H     H_    0.406099 0.246265 0.620970 0.236838
N4    N     N_3   0.920956 0.241388 0.350972 -0.648114
H22   H     H_    0.013738 0.191521 0.327922 0.217233
H23   H     H_    0.852380 0.213320 0.402035 0.218627
C29   C     C_2   0.507470 0.362556 0.244770 0.324329
H24   H     H_    0.372705 0.392117 0.265012 0.070615
O21   O     O_2   0.545235 0.362000 0.171268 -0.515672
N5    N     N_3   0.777533 0.750177 0.831334 -0.678215
H25   H     H_    0.751577 0.808379 0.797584 0.234577
H26   H     H_    0.747904 0.764999 0.893128 0.277376
C30   C     C_2   0.898137 0.787120 0.607876 0.310389
H27   H     H_    0.825468 0.726125 0.588087 0.101629
O22   O     O_2   0.833307 0.859864 0.586214 -0.528456
N6    N     N_3   0.484935 0.732179 0.671562 -0.649129
H28   H     H_    0.479718 0.802847 0.669167 0.242804
H29   H     H_    0.617865 0.715705 0.694884 0.238364
C31   C     C_2   0.372617 0.704625 0.885220 0.326414
H30   H     H_    0.366806 0.631169 0.884327 0.056965
O23   O     O_2   0.409386 0.743090 0.950223 -0.527248

loop_
_geom_bond_atom_site_label_1
_geom_bond_atom_site_label_2
_ccdc_geom_bond_type
C25   O16   A    
C10   C12   S    
O12   C25   A    
C1    O6    A    
C8    N6    S    
C5    C6    S    
C22   H15   S    
O13   C28   A    
N4    H22   S    
O18   C27   A    
N3    H21   S    
C22   C25   S    
C15   C16   D    
C8    H5    S    
C18   C26   S    
O16   V4    S    
O5    C3    A    
C30   O22   D    
V2    O10   S    
C13   C15   S    
C19   N2    S    
C8    C12   S    
C5    H2    S    
C24   C29   S    
O8    V2    S    
O14   C26   A    
N1    H16   S    
C7    C30   S    
C16   C28   S    
O1    V2    S    
N6    H29   S    
O7    V1    S    
C17   H12   S    
V4    O20   S    
O17   V4    S    
C20   N3    S    
H4    C11   S    
O9    C4    A    
C18   H13   S    
O12   V3    S    
O15   C27   A    
C1    C20   S    
N4    H23   S    
C21   H14   S    
N3    H20   S    
O18   V4    S    
C11   H8    S    
C8    C9    S    
C29   O21   D    
C14   N1    S    
N2    H19   S    
C30   H27   S    
C23   C24   D    
O17   V3    S    
C7    H7    S    
O2    C1    A    
C12   H6    S    
V3    O20   S    
N5    H25   S    
C6    C10   S    
C31   O23   D    
C5    H1    S    
C7    C11   S    
O3    C4    A    
O11   C26   A    
C17   C18   D    
N5    H26   S    
O6    V2    S    
O9    V2    S    
C3    C14   S    
O2    V1    S    
C23   N4    S    
O11   V4    S    
C19   C20   D    
O4    C2    A    
C21   C22   D    
O1    C2    A    
C29   H24   S    
O5    V1    S    
O8    C3    A    
O15   V3    S    
O13   V3    S    
C21   C23   S    
C5    C9    S    
O19   C28   A    
C15   H10   S    
O7    V2    S    
C2    C24   S    
O4    V1    S    
C16   H11   S    
O3    V1    S    
V1    O10   S    
C31   H30   S    
C13   H9    S    
C13   C14   D    
C7    C9    S    
C4    C9    S    
C17   C19   S    
N2    H18   S    
C6    H3    S    
N1    H17   S    
C6    N5    S    
C10   C11   S    
O14   V3    S    
C10   C27   S    
N6    H28   S    
C12   C31   S    
O19   V4    S    
