data_mof_unit_35232.cif
_audit_creation_date              2012-12-10T18:28:01-0500
_audit_creation_method            fapswitch 2.2
_symmetry_space_group_name_H-M    P1
_symmetry_Int_Tables_number       1
_space_group_crystal_system       triclinic
_cell_length_a                    18.144503
_cell_length_b                    18.195136
_cell_length_c                    18.284
_cell_angle_alpha                 90.588412
_cell_angle_beta                  119.623945
_cell_angle_gamma                 119.418348
_cell_volume                      4307.8696674

loop_
_atom_site_label
_atom_site_type_symbol
_atom_type_description
_atom_site_fract_x
_atom_site_fract_y
_atom_site_fract_z
_atom_type_partial_charge
C1    C     C_R   0.782845 0.639683 0.640771 0.791648
C2    C     C_3   0.058625 0.205729 0.309541 -0.365708
C3    C     C_R   0.767796 0.941158 0.956694 -0.179267
C4    C     C_2   0.897103 0.835726 0.736704 0.854318
C5    C     C_R   0.923624 0.695382 0.560094 0.101692
C6    C     C_R   0.968301 0.648511 0.565089 -0.182109
C7    C     C_R   0.972951 0.625021 0.495132 -0.093503
C8    C     C_R   0.934398 0.648686 0.419323 -0.126964
C9    C     C_R   0.889358 0.694472 0.412519 -0.104908
C10   C     C_R   0.883121 0.717001 0.481706 -0.122789
C11   C     C_R   0.910350 0.553202 0.712012 0.091137
C12   C     C_R   0.952104 0.514594 0.772613 -0.111565
C13   C     C_3   0.102465 0.301009 0.301971 0.064803
C14   C     C_R   0.930796 0.431269 0.742648 -0.071784
C15   C     C_R   0.866086 0.384033 0.651645 -0.169669
C16   C     C_R   0.820695 0.419239 0.591166 -0.154073
C17   C     C_R   0.841264 0.502694 0.620688 -0.138234
C18   C     C_2   0.677181 0.422292 0.341966 0.881066
C19   C     C_R   0.322620 0.271047 0.140304 0.118006
C20   C     C_R   0.225382 0.209058 0.059433 -0.188725
C21   C     C_R   0.172671 0.237575 0.995313 -0.106592
C22   C     C_R   0.214985 0.328586 0.010795 -0.035238
C23   C     C_R   0.308284 0.390845 0.091660 -0.059527
C24   C     C_R   0.217746 0.358859 0.360516 0.794035
C25   C     C_R   0.360577 0.362615 0.156939 -0.135649
C26   C     C_2   0.290009 0.619639 0.614964 0.853657
C27   C     C_R   0.369322 0.714617 0.327860 0.130780
C28   C     C_R   0.272365 0.645985 0.250195 -0.105750
C29   C     C_R   0.185371 0.594013 0.251136 -0.136984
C30   C     C_R   0.191812 0.608385 0.329602 -0.131960
C31   C     C_R   0.285136 0.675146 0.407169 -0.072728
C32   C     C_R   0.372554 0.727200 0.406933 -0.072683
C33   C     C_R   0.556217 0.847794 0.421384 0.090044
C34   C     C_R   0.552646 0.922399 0.437417 -0.189604
C35   C     C_3   0.898131 0.201651 0.198482 0.065055
C36   C     C_R   0.624551 0.990781 0.519937 -0.136591
C37   C     C_R   0.699138 0.985049 0.590682 -0.122164
C38   C     C_R   0.699502 0.909600 0.579782 -0.154391
C39   C     C_R   0.628525 0.841234 0.497133 -0.158195
C40   C     C_2   0.348892 0.802137 0.198251 0.920739
C41   C     C_2   0.332808 0.659781 0.057810 0.958575
C42   C     C_3   0.942326 0.226325 0.140103 -0.244605
C43   C     C_3   0.939690 0.148779 0.251991 -0.456210
C44   C     C_3   0.624798 0.353058 0.789405 -0.093208
C45   C     C_3   0.620695 0.288323 0.847844 -0.364895
C46   C     C_3   0.433283 0.288297 0.728234 -0.196813
C47   C     C_3   0.468599 0.210502 0.647789 -0.443185
C48   C     C_3   0.600552 0.812835 0.814271 0.065462
C49   C     C_3   0.507834 0.304462 0.701259 0.033791
C50   C     C_3   0.506655 0.197749 0.799280 0.030836
C51   C     C_3   0.432643 0.225810 0.784760 -0.448090
C52   C     C_R   0.503657 0.645596 0.363389 0.749386
C53   C     C_3   0.475880 0.146216 0.704352 0.033234
C54   C     C_3   0.937687 0.779323 0.773079 -0.168226
C55   C     C_3   0.058244 0.837418 0.839678 -0.469003
C56   C     C_3   0.948187 0.649003 0.751345 -0.177424
C57   C     C_3   0.946539 0.746509 0.643905 -0.103720
C58   C     C_3   0.899446 0.698860 0.697384 0.000876
C59   C     C_3   0.550219 0.797043 0.713377 -0.257809
C60   C     C_3   0.103829 0.807559 0.803350 0.135454
C61   C     C_3   0.066891 0.710675 0.801038 -0.403876
C62   C     C_3   0.064437 0.813861 0.708710 -0.426889
C63   C     C_3   0.566781 0.357951 0.263890 -0.138943
C64   C     C_R   0.501063 0.359547 0.641347 0.872618
C65   C     C_3   0.558480 0.296015 0.199013 -0.429695
C66   C     C_3   0.526086 0.243454 0.342219 -0.390621
C67   C     C_3   0.379186 0.233955 0.204152 -0.162802
C68   C     C_3   0.492102 0.301358 0.291856 0.063226
C69   C     C_3   0.494796 0.198004 0.193951 0.179329
C70   C     C_3   0.456201 0.790079 0.702456 -0.217204
C71   C     C_3   0.538945 0.190968 0.288509 -0.410544
C72   C     C_3   0.382518 0.168742 0.151064 -0.430422
C73   C     C_3   0.612639 0.769874 0.327177 -0.403935
C74   C     C_3   0.610382 0.833013 0.271732 -0.462679
C75   C     C_3   0.432219 0.645761 0.210760 -0.477835
C76   C     C_R   0.496077 0.358737 0.354357 0.736699
C77   C     C_3   0.469604 0.769699 0.328476 -0.027252
C78   C     C_3   0.504297 0.707770 0.310133 0.106037
C79   C     C_3   0.496708 0.801157 0.199582 0.016920
C80   C     C_3   0.436497 0.700287 0.146635 -0.173506
C81   C     C_3   0.402386 0.688620 0.685394 0.045448
C82   C     C_3   0.453970 0.815199 0.252369 -0.228852
C83   C     C_R   0.503228 0.140898 0.858513 0.768391
C84   C     C_R   0.499200 0.858351 0.140980 0.825130
C85   C     C_R   0.782483 0.141611 0.142134 0.798136
C86   C     C_R   0.218339 0.863403 0.859663 0.787523
C87   C     C_R   0.498459 0.141067 0.140034 0.742492
C88   C     C_R   0.497531 0.639501 0.640852 0.835538
C89   C     C_R   0.503205 0.861088 0.859067 0.787508
C90   C     C_3   0.545185 0.711023 0.796717 -0.206649
C91   C     C_3   0.451532 0.704225 0.785882 -0.219826
C92   C     C_3   0.495454 0.695955 0.696615 -0.032392
C93   C     C_3   0.507025 0.805790 0.803380 0.005106
C94   C     C_R   0.905641 0.348092 0.242748 0.148188
C95   C     C_R   0.937994 0.405823 0.198543 -0.106223
C96   C     C_R   0.920001 0.472543 0.186823 -0.051291
C97   C     C_R   0.868315 0.482418 0.217964 -0.102052
C98   C     C_R   0.836017 0.426459 0.262178 -0.137298
C99   C     C_R   0.853055 0.359009 0.273767 -0.115823
C100  C     C_2   0.891156 0.252451 0.060357 0.885731
C101  C     C_2   0.114365 0.271724 0.172158 0.929581
C102  C     C_R   0.677280 0.453503 0.844428 0.089426
C103  C     C_3   0.061695 0.342825 0.332842 -0.459077
C104  C     C_R   0.645272 0.475307 0.893431 -0.134425
C105  C     C_R   0.690942 0.563628 0.939454 -0.137889
C106  C     C_R   0.772035 0.634068 0.940599 -0.120052
C107  C     C_R   0.808060 0.616289 0.896045 -0.123621
C108  C     C_R   0.761548 0.528374 0.848186 -0.024976
C109  C     C_2   0.692894 0.359083 0.759609 0.828418
C110  C     C_2   0.681586 0.339824 0.947074 1.022932
C111  C     C_R   0.559920 0.128410 0.722625 0.055844
C112  C     C_R   0.629590 0.170214 0.697520 -0.123390
C113  C     C_R   0.708643 0.158437 0.723777 -0.117533
C114  C     C_3   0.942091 0.286723 0.271890 -0.150753
C115  C     C_R   0.717301 0.100514 0.771076 -0.089545
C116  C     C_R   0.643182 0.050277 0.787265 -0.105342
C117  C     C_R   0.564422 0.062169 0.761237 -0.156151
C118  C     C_R   0.370214 0.052735 0.640640 0.114472
C119  C     C_R   0.353481 0.010704 0.562870 -0.171921
C120  C     C_R   0.261867 0.928524 0.500633 -0.144841
C121  C     C_R   0.182650 0.886331 0.512517 -0.102760
C122  C     C_R   0.194937 0.926424 0.586520 -0.145179
C123  C     C_R   0.287071 0.008218 0.649877 -0.102466
C124  C     C_R   0.325673 0.264840 0.655037 0.131216
C125  C     C_3   0.062301 0.294773 0.202771 -0.220059
C126  C     C_R   0.308596 0.333180 0.648742 -0.163838
C127  C     C_R   0.209566 0.313189 0.590894 -0.129180
C128  C     C_R   0.125750 0.224844 0.538384 -0.149371
C129  C     C_R   0.141514 0.156936 0.540684 -0.143710
C130  C     C_R   0.240607 0.176743 0.598092 -0.126413
C131  C     C_R   0.716580 0.871144 0.879916 0.083644
C132  C     C_R   0.774930 0.850712 0.865686 -0.131724
C133  C     C_R   0.881810 0.898394 0.927348 -0.149455
C134  C     C_R   0.931550 0.966193 0.004650 -0.105195
C135  C     C_R   0.874462 0.986908 0.019518 -0.115110
H1    H     H_    0.410961 0.666262 0.816049 0.155379
H2    H     H_    0.467293 0.352729 0.772062 0.133178
H3    H     H_    0.112693 0.542891 0.190162 0.147100
H4    H     H_    0.124819 0.568250 0.330811 0.128828
H5    H     H_    0.290281 0.686350 0.468253 0.138305
H6    H     H_    0.442462 0.775416 0.470745 0.130823
H7    H     H_    0.492737 0.927875 0.386907 0.184226
H8    H     H_    0.621108 0.047591 0.529341 0.129565
H9    H     H_    0.755131 0.037960 0.654619 0.120095
H10   H     H_    0.754086 0.903552 0.636272 0.177310
H11   H     H_    0.631014 0.783521 0.495096 0.122177
H12   H     H_    0.254890 0.831159 0.198404 0.340672
H13   H     H_    0.456930 0.261173 0.850464 0.196912
H14   H     H_    0.179276 0.564291 0.979537 0.342494
H15   H     H_    0.386925 0.179349 0.591464 0.186398
H16   H     H_    0.501609 0.216704 0.609701 0.177148
H17   H     H_    0.353474 0.168187 0.756309 0.155077
H18   H     H_    0.907187 0.751459 0.813127 0.114504
H19   H     H_    0.093876 0.910354 0.852753 0.203328
H20   H     H_    0.079581 0.827963 0.905591 0.175477
H21   H     H_    0.933309 0.643394 0.804002 0.136894
H22   H     H_    0.103578 0.709119 0.870551 0.186849
H23   H     H_    0.084356 0.362974 0.200384 0.161140
H24   H     H_    0.916308 0.788020 0.620885 0.147820
H25   H     H_    0.085790 0.883174 0.711515 0.177815
H26   H     H_    0.590112 0.834575 0.682541 0.158609
H27   H     H_    0.104901 0.803357 0.684320 0.199350
H28   H     H_    0.094195 0.686539 0.770447 0.179120
H29   H     H_    0.544327 0.399718 0.228214 0.125633
H30   H     H_    0.520489 0.301720 0.131455 0.174262
H31   H     H_    0.636042 0.316306 0.219048 0.202827
H32   H     H_    0.598947 0.285191 0.409621 0.173809
H33   H     H_    0.622052 0.218062 0.322888 0.192789
H34   H     H_    0.085195 0.171175 0.289547 0.233528
H35   H     H_    0.328946 0.192748 0.225794 0.151297
H36   H     H_    0.419695 0.822995 0.663726 0.163763
H37   H     H_    0.348898 0.165701 0.080176 0.158620
H38   H     H_    0.335221 0.099649 0.149968 0.177569
H39   H     H_    0.467061 0.195276 0.352847 0.179334
H40   H     H_    0.498208 0.119779 0.285051 0.176573
H41   H     H_    0.633148 0.728679 0.306961 0.194640
H42   H     H_    0.676564 0.809689 0.398142 0.171360
H43   H     H_    0.655789 0.902435 0.316853 0.176511
H44   H     H_    0.650033 0.834624 0.240248 0.196895
H45   H     H_    0.087964 0.210762 0.379941 0.180279
H46   H     H_    0.459651 0.604630 0.204552 0.156393
H47   H     H_    0.484268 0.695802 0.127663 0.120385
H48   H     H_    0.506578 0.889015 0.283983 0.101437
H49   H     H_    0.353794 0.594932 0.191606 0.209983
H50   H     H_    0.096232 0.413424 0.334248 0.191472
H51   H     H_    0.088213 0.346029 0.403006 0.166071
H52   H     H_    0.916747 0.259008 0.315469 0.114971
H53   H     H_    0.983459 0.404247 0.178392 0.144065
H54   H     H_    0.948194 0.518016 0.155058 0.156313
H55   H     H_    0.855226 0.534636 0.209499 0.126038
H56   H     H_    0.912233 0.128865 0.295696 0.164072
H57   H     H_    0.800662 0.437783 0.289678 0.171361
H58   H     H_    0.829026 0.318029 0.310347 0.119294
H59   H     H_    0.909303 0.329268 0.983483 0.359803
H60   H     H_    0.141673 0.182244 0.148396 0.337881
H61   H     H_    0.587506 0.425497 0.900923 0.149277
H62   H     H_    0.664175 0.577266 0.975771 0.129511
H63   H     H_    0.807874 0.702389 0.976995 0.132191
H64   H     H_    0.872876 0.671007 0.898910 0.105731
H65   H     H_    0.792953 0.521265 0.813739 0.138036
H66   H     H_    0.717228 0.366453 0.663199 0.349647
H67   H     H_    0.910138 0.085673 0.206215 0.197100
H68   H     H_    0.819649 0.393047 0.965568 0.329760
H69   H     H_    0.625900 0.211805 0.657016 0.139984
H70   H     H_    0.762768 0.193839 0.706364 0.119980
H71   H     H_    0.778795 0.091762 0.791928 0.122053
H72   H     H_    0.645547 0.000749 0.818728 0.118096
H73   H     H_    0.504558 0.015134 0.767558 0.188690
H74   H     H_    0.412076 0.042158 0.549770 0.134813
H75   H     H_    0.252033 0.898020 0.442524 0.139599
H76   H     H_    0.111250 0.823132 0.463747 0.136520
H77   H     H_    0.132094 0.894468 0.594276 0.129448
H78   H     H_    0.924919 0.163118 0.107117 0.132134
H79   H     H_    0.288920 0.034577 0.703783 0.134922
H80   H     H_    0.371872 0.402246 0.690061 0.115070
H81   H     H_    0.197689 0.366170 0.587692 0.147809
H82   H     H_    0.048811 0.209236 0.494408 0.120504
H83   H     H_    0.076641 0.088589 0.498489 0.129010
H84   H     H_    0.249319 0.122584 0.599136 0.130513
H85   H     H_    0.737156 0.796540 0.807343 0.185821
H86   H     H_    0.925742 0.881726 0.915931 0.133111
H87   H     H_    0.014127 0.002192 0.053344 0.133486
H88   H     H_    0.912920 0.037475 0.080612 0.163521
H89   H     H_    0.580903 0.677352 0.834912 0.156625
H90   H     H_    0.726642 0.960334 0.969293 0.165148
H91   H     H_    0.924862 0.950987 0.710792 0.328654
H92   H     H_    0.005028 0.634335 0.624671 0.168007
H93   H     H_    0.008571 0.590116 0.500608 0.179178
H94   H     H_    0.939629 0.631753 0.365975 0.121238
H95   H     H_    0.859753 0.713053 0.353796 0.126530
H96   H     H_    0.850899 0.755204 0.475490 0.118836
H97   H     H_    0.003403 0.550173 0.843804 0.132001
H98   H     H_    0.964596 0.403475 0.790075 0.139240
H99   H     H_    0.849020 0.319216 0.628043 0.128689
H100  H     H_    0.667024 0.263485 0.852315 0.162706
H101  H     H_    0.768058 0.380397 0.521630 0.190051
H102  H     H_    0.804968 0.527415 0.571844 0.149603
H103  H     H_    0.771749 0.540365 0.434422 0.356333
H104  H     H_    0.190247 0.137781 0.045449 0.122554
H105  H     H_    0.099002 0.188922 0.933471 0.130318
H106  H     H_    0.174428 0.350823 0.961010 0.125728
H107  H     H_    0.339078 0.461097 0.104157 0.123925
H108  H     H_    0.429357 0.413431 0.219537 0.122480
H109  H     H_    0.181588 0.506605 0.508058 0.325769
H110  H     H_    0.260979 0.633341 0.186864 0.185311
O1    O     O_3   0.500000 0.500000 0.500000 -0.489167
O2    O     O_R   0.266230 0.883210 0.944500 -0.625603
O3    O     O_R   0.561150 0.178510 0.117240 -0.643100
O4    O     O_R   0.733670 0.616970 0.678220 -0.621428
O5    O     O_R   0.438720 0.882700 0.821420 -0.637837
O6    O     O_R   0.438610 0.055960 0.117240 -0.658327
O7    O     O_R   0.561250 0.882700 0.943960 -0.650203
O8    O     O_R   0.733630 0.055440 0.116700 -0.669344
O9    O     O_R   0.266260 0.883000 0.821740 -0.649049
O10   O     O_R   0.561190 0.178210 0.944500 -0.581370
O11   O     O_R   0.438650 0.883210 0.116920 -0.612429
O12   O     O_R   0.438720 0.616970 0.383270 -0.638246
O13   O     O_R   0.266300 0.444520 0.383270 -0.626792
O14   O     O_R   0.561280 0.616750 0.383040 -0.639897
O15   O     O_R   0.438750 0.321760 0.555460 -0.641815
O16   O     O_R   0.561320 0.444010 0.382720 -0.626993
O17   O     O_R   0.561210 0.617270 0.678540 -0.648626
O18   O     O_R   0.438790 0.321460 0.382720 -0.638974
O19   O     O_R   0.438680 0.617270 0.556010 -0.614958
O20   O     O_2   0.797408 0.205463 0.006046 -0.631830
O21   O     O_R   0.951711 0.324220 0.042915 -0.806633
O22   O     O_2   0.170428 0.326982 0.154084 -0.617427
O23   O     O_R   0.561250 0.444520 0.678220 -0.645346
O24   O     O_R   0.099347 0.188287 0.165499 -0.855644
O25   O     O_2   0.773240 0.365626 0.811472 -0.673538
O26   O     O_R   0.669336 0.366533 0.676003 -0.849202
O27   O     O_2   0.638705 0.340402 0.981434 -0.593911
O28   O     O_R   0.789230 0.391964 0.999494 -0.784501
O29   O     O_2   0.807477 0.806457 0.706922 -0.688051
O30   O     O_R   0.960825 0.920060 0.736188 -0.834952
O31   O     O_2   0.732233 0.396745 0.382244 -0.700285
O32   O     O_R   0.715041 0.511846 0.368961 -0.771854
O33   O     O_2   0.225400 0.626306 0.613255 -0.642797
O34   O     O_R   0.733700 0.616750 0.555460 -0.652470
O35   O     O_R   0.259366 0.548017 0.552209 -0.821038
O36   O     O_2   0.284575 0.755837 0.119560 -0.606096
O37   O     O_R   0.326275 0.844539 0.239997 -0.843748
O38   O     O_2   0.328937 0.691019 0.998095 -0.642188
O39   O     O_R   0.242361 0.584728 0.041738 -0.812023
O40   O     O_R   0.266330 0.321760 0.383040 -0.639821
O41   O     O_3   0.499930 0.999970 0.999970 -0.489725
O42   O     O_R   0.438680 0.055440 0.821740 -0.687046
O43   O     O_R   0.561210 0.883000 0.116700 -0.647402
O44   O     O_R   0.733610 0.178210 0.116920 -0.598334
Zn1   Zn    Zn3+2 0.412450 0.543930 0.456390 1.007026
Zn2   Zn    Zn3+2 0.587550 0.543620 0.456070 0.988966
Zn3   Zn    Zn3+2 0.412480 0.368530 0.456070 0.993275
Zn4   Zn    Zn3+2 0.587520 0.543930 0.631470 1.000389
Zn5   Zn    Zn3+2 0.587490 0.956040 0.043570 0.971889
Zn6   Zn    Zn3+2 0.587450 0.131440 0.043900 1.022549
Zn7   Zn    Zn3+2 0.412380 0.956350 0.043900 0.999529
Zn8   Zn    Zn3+2 0.412420 0.956040 0.868500 0.972294

loop_
_geom_bond_atom_site_label_1
_geom_bond_atom_site_label_2
_ccdc_geom_bond_type
C44   C49   S    
C96   H54   S    
C55   H19   S    
C66   C68   S    
C76   O16   A    
O15   Zn3   S    
C86   O2    A    
C56   C61   S    
C89   O7    A    
C65   H30   S    
C73   C74   S    
C95   C96   A    
H59   O21   S    
C56   H21   S    
H103  O32   S    
C33   C77   S    
C128  C129  A    
C41   C80   S    
C63   C65   S    
C97   C98   A    
C94   C114  S    
C88   O17   A    
C7    C8    A    
C47   C49   S    
C62   H27   S    
C77   C78   S    
H68   O28   S    
C87   O6    A    
C29   H3    S    
C107  H64   S    
C46   C49   S    
C40   O37   S    
C33   C39   A    
C14   H98   S    
C66   H32   S    
C46   C51   S    
O7    Zn5   S    
O6    Zn7   S    
C77   C82   S    
C28   C29   A    
C37   H9    S    
C36   H8    S    
C1    O34   A    
C61   H22   S    
H66   O26   S    
C5    C6    A    
C102  C104  A    
C1    O4    A    
C127  H81   S    
C7    H93   S    
C16   H101  S    
C15   C16   A    
C110  O28   S    
C24   O13   A    
H109  O35   S    
C116  C117  A    
C15   H99   S    
C35   C114  S    
C60   C62   S    
C67   C72   S    
O18   Zn3   S    
O23   Zn4   S    
C69   C71   S    
C2    C13   S    
C27   C77   S    
C118  C119  A    
C112  C113  A    
C42   C125  S    
C24   O40   A    
C81   C92   S    
C34   H7    S    
C91   H1    S    
C88   C92   S    
C56   C58   S    
C16   C17   A    
C134  H87   S    
C103  H50   S    
C84   O11   A    
C121  H76   S    
C133  H86   S    
C107  C108  A    
O41   Zn8   S    
C19   C67   S    
C30   H4    S    
O43   Zn5   S    
C128  H82   S    
C13   C103  S    
C35   C43   S    
C9    C10   A    
C3    H90   S    
C34   C36   A    
C69   C87   S    
C41   O39   S    
C47   C53   S    
C73   H42   S    
C44   C109  S    
C117  H73   S    
C105  H62   S    
C101  O22   D    
C43   H56   S    
C49   C64   S    
C48   C90   S    
C55   C60   S    
C6    H92   S    
C62   H25   S    
C57   C58   S    
C46   C124  S    
C94   C95   A    
C103  H51   S    
C2    H45   S    
C37   C38   A    
C54   H18   S    
C52   C78   S    
C75   H49   S    
C74   C79   S    
C26   O35   S    
C104  C105  A    
C50   C83   S    
C12   H97   S    
C18   O31   D    
C25   H108  S    
C67   H35   S    
C120  H75   S    
C63   H29   S    
O1    Zn2   S    
C40   O36   D    
C119  H74   S    
C50   C53   S    
C121  C122  A    
C48   C93   S    
C74   H44   S    
O41   Zn7   S    
C67   C68   S    
C40   C82   S    
C57   C62   S    
C103  C114  S    
C38   C39   A    
O10   Zn6   S    
C64   O23   A    
O11   Zn7   S    
H12   O37   S    
C44   C102  S    
C53   C118  S    
C8    C9    A    
O19   Zn1   S    
C2    H34   S    
C50   C51   S    
C52   O14   A    
C101  O24   S    
C65   H31   S    
C114  H52   S    
C3    C131  A    
C13   C24   S    
C83   O10   A    
C60   C61   S    
C132  H85   S    
C113  H70   S    
C53   C111  S    
C108  H65   S    
C69   C72   S    
C55   H20   S    
C70   H36   S    
C38   H10   S    
C90   H89   S    
C29   C30   A    
C59   H26   S    
C42   C100  S    
C91   C93   S    
C18   O32   S    
C8    H94   S    
C90   C92   S    
C31   C32   A    
C74   H43   S    
C47   H15   S    
O14   Zn2   S    
C2    C43   S    
C73   C78   S    
O5    Zn8   S    
O1    Zn3   S    
C96   C97   A    
C70   C93   S    
C43   H67   S    
C54   C58   S    
C33   C34   A    
C104  H61   S    
O17   Zn4   S    
C124  C130  A    
O4    Zn4   S    
C48   C131  S    
O44   Zn6   S    
C72   H38   S    
C84   O43   A    
C23   H107  S    
C102  C108  A    
C118  C123  A    
C32   H6    S    
C6    C7    A    
C66   C71   S    
C46   H2    S    
C98   H57   S    
C97   H55   S    
C129  H83   S    
C12   C14   A    
C51   H17   S    
C26   C81   S    
C80   H47   S    
C71   H33   S    
C133  C134  A    
C122  H77   S    
C115  H71   S    
C86   O9    A    
H91   O30   S    
C112  H69   S    
C131  C132  A    
H60   O24   S    
C72   H37   S    
C26   O33   D    
C83   O42   A    
C120  C121  A    
C88   O19   A    
C48   C59   S    
C124  C126  A    
C129  C130  A    
C75   C80   S    
C99   H58   S    
C54   C55   S    
O1    Zn1   S    
C60   C86   S    
C89   O5    A    
O42   Zn8   S    
C111  C112  A    
C4    C54   S    
C27   C32   A    
C61   H28   S    
C4    O30   S    
C85   O8    A    
C76   O18   A    
C22   C23   A    
C66   H39   S    
C44   C45   S    
C45   H100  S    
C57   H24   S    
C47   H16   S    
C41   O38   D    
C11   C17   A    
C19   C20   A    
C79   C82   S    
C119  C120  A    
C134  C135  A    
C5    C57   S    
C68   C76   S    
C20   H104  S    
C135  H88   S    
C105  C106  A    
C63   C68   S    
O1    Zn4   S    
O34   Zn2   S    
C82   H48   S    
C85   O44   A    
C106  H63   S    
C111  C117  A    
C4    O29   D    
C109  O25   D    
O8    Zn5   S    
C31   H5    S    
O2    Zn7   S    
C13   C125  S    
C45   C110  S    
C109  O26   S    
O9    Zn8   S    
C1    C58   S    
O41   Zn6   S    
C110  O27   D    
C19   C25   A    
C35   C85   S    
C30   C31   A    
O13   Zn1   S    
C90   C91   S    
C79   C84   S    
C113  C115  A    
C100  O21   S    
C94   C99   A    
C73   H41   S    
C126  C127  A    
C65   C69   S    
C52   O12   A    
O16   Zn2   S    
C39   H11   S    
C51   H13   S    
C10   H96   S    
C35   C42   S    
H14   O39   S    
C71   H40   S    
O41   Zn5   S    
C132  C133  A    
C3    C135  A    
C59   C92   S    
C23   C25   A    
C89   C93   S    
C130  H84   S    
C18   C63   S    
C75   C78   S    
C95   H53   S    
C28   H110  S    
C116  H72   S    
C87   O3    A    
C126  H80   S    
C59   C70   S    
C79   C80   S    
C81   C91   S    
C64   O15   A    
C5    C10   A    
C21   H105  S    
C20   C21   A    
O3    Zn6   S    
C36   C37   A    
C98   C99   A    
C106  C107  A    
C123  H79   S    
C27   C28   A    
C42   H78   S    
C14   C15   A    
C9    H95   S    
C100  O20   D    
O40   Zn3   S    
C45   C50   S    
C70   C81   S    
C115  C116  A    
C122  C123  A    
C21   C22   A    
C101  C125  S    
C22   H106  S    
C11   C56   S    
C127  C128  A    
C11   C12   A    
C17   H102  S    
O12   Zn1   S    
C125  H23   S    
C75   H46   S    
