data_mof_unit_25239.cif
_audit_creation_date              2012-12-11T16:35:15-0500
_audit_creation_method            fapswitch 2.2
_symmetry_space_group_name_H-M    P1
_symmetry_Int_Tables_number       1
_space_group_crystal_system       triclinic
_cell_length_a                    6.944688
_cell_length_b                    17.634674
_cell_length_c                    19.578909
_cell_angle_alpha                 108.853474
_cell_angle_beta                  90.074631
_cell_angle_gamma                 90.339903
_cell_volume                      2269.07792843

loop_
_atom_site_label
_atom_site_type_symbol
_atom_type_description
_atom_site_fract_x
_atom_site_fract_y
_atom_site_fract_z
_atom_type_partial_charge
O1    O     O_R   0.505700 0.440210 0.561730 -0.545692
O2    O     O_R   0.169350 0.406300 0.412660 -0.535096
O3    O     O_R   0.005650 0.559790 0.438270 -0.539080
C1    C     C_R   0.340461 0.381107 0.386407 0.713995
O4    O     O_R   0.175560 0.430650 0.559600 -0.541814
O5    O     O_R   0.011900 0.584320 0.586250 -0.531467
C2    C     C_R   0.343943 0.416358 0.581713 0.659072
O6    O     O_R   0.499450 0.415680 0.413750 -0.536434
O7    O     O_3   0.341370 0.550390 0.508570 -0.365655
V1    V     V_3+5 0.063940 0.490650 0.498410 1.407342
O8    O     O_R   0.682570 0.593700 0.587340 -0.542163
C3    C     C_R   0.850364 0.610633 0.619070 0.701633
O9    O     O_R   0.676370 0.569350 0.440400 -0.542525
C4    C     C_R   0.845496 0.583590 0.418298 0.694393
V2    V     V_3+5 0.564750 0.509350 0.501590 1.395333
O10   O     O_3   0.837190 0.449610 0.491430 -0.371493
C5    C     C_R   0.050014 0.705252 0.306279 -0.149347
H1    H     H_    0.187901 0.730933 0.299619 0.101185
C6    C     C_R   0.036271 0.662082 0.354801 -0.166800
H2    H     H_    0.165031 0.654611 0.383183 0.123620
C7    C     C_R   0.858454 0.630188 0.367403 -0.051123
C8    C     C_R   0.695565 0.641018 0.329093 -0.165590
H3    H     H_    0.557336 0.615961 0.336404 0.114060
C9    C     C_R   0.709724 0.683428 0.279995 -0.150054
H4    H     H_    0.581584 0.689592 0.250716 0.096304
C10   C     C_R   0.886597 0.717124 0.268638 0.102420
C11   C     C_R   0.745004 0.818328 0.218586 -0.138916
H5    H     H_    0.621769 0.821326 0.253207 0.105990
C12   C     C_R   0.749693 0.866957 0.174264 0.160413
C13   C     C_R   0.913665 0.865739 0.130199 -0.067339
C14   C     C_R   0.067755 0.815218 0.133025 -0.217201
H6    H     H_    0.194315 0.812231 0.100035 0.133705
C15   C     C_R   0.059855 0.766675 0.177256 -0.151815
H7    H     H_    0.180018 0.727719 0.176929 0.110322
C16   C     C_R   0.897683 0.767434 0.220335 0.048278
H8    H     H_    0.990440 0.647923 0.949908 0.123234
C17   C     C_R   0.869828 0.903965 0.743366 -0.138328
C18   C     C_R   0.845754 0.915395 0.676799 -0.115899
C19   C     C_R   0.829837 0.849782 0.614408 -0.127544
C20   C     C_R   0.836084 0.772270 0.618189 -0.126382
C21   C     C_R   0.857907 0.758323 0.685233 0.078074
C22   C     C_R   0.877261 0.825949 0.748890 0.062485
C23   C     C_R   0.859045 0.678856 0.689126 -0.187840
C24   C     C_R   0.876898 0.667766 0.759101 0.030121
C25   C     C_R   0.916311 0.736934 0.820988 0.059552
C26   C     C_R   0.908045 0.815114 0.816361 -0.172351
C27   C     C_R   0.856568 0.592290 0.772751 0.081761
C28   C     C_R   0.902259 0.587252 0.841357 -0.129396
C29   C     C_R   0.957415 0.653511 0.897665 -0.163824
C30   C     C_R   0.959756 0.727590 0.888474 -0.133575
H9    H     H_    0.884022 0.956977 0.790315 0.086650
H10   H     H_    0.840616 0.975511 0.673604 0.111560
H11   H     H_    0.812248 0.858925 0.562678 0.115158
H12   H     H_    0.822634 0.723759 0.567745 0.104565
H13   H     H_    0.888340 0.531146 0.852532 0.110674
H14   H     H_    0.995691 0.777648 0.935782 0.109586
H15   H     H_    0.442091 0.492739 0.193091 0.112090
C31   C     C_R   0.412641 0.208707 0.376332 0.130842
C32   C     C_R   0.367057 0.130484 0.374359 -0.101657
C33   C     C_R   0.312710 0.073331 0.309856 -0.161923
C34   C     C_R   0.324577 0.091414 0.245880 -0.165699
C35   C     C_R   0.369730 0.170018 0.246768 0.051963
C36   C     C_R   0.378306 0.232143 0.314422 0.057924
C37   C     C_R   0.413063 0.187014 0.182482 -0.163162
C38   C     C_R   0.423750 0.268536 0.185005 0.048145
C39   C     C_R   0.392331 0.331362 0.251608 0.068666
C40   C     C_R   0.363828 0.313590 0.316683 -0.176305
C41   C     C_R   0.458238 0.289190 0.122008 -0.189163
C42   C     C_R   0.461392 0.369678 0.124018 0.147603
C43   C     C_R   0.435490 0.430315 0.189872 -0.136979
C44   C     C_R   0.398471 0.411692 0.252296 -0.174007
H16   H     H_    0.383795 0.112531 0.421977 0.109451
H17   H     H_    0.277138 0.013079 0.308653 0.123975
H18   H     H_    0.298641 0.043194 0.196144 0.134033
H19   H     H_    0.482905 0.242929 0.070938 0.078739
H20   H     H_    0.376827 0.461448 0.301298 0.109235
C45   C     C_R   0.378602 0.361227 0.753217 -0.154107
H21   H     H_    0.385319 0.392413 0.810615 0.118081
C46   C     C_R   0.361289 0.405752 0.705812 -0.196099
H22   H     H_    0.351101 0.470348 0.727643 0.095692
C47   C     C_R   0.352810 0.367621 0.630989 -0.015144
C48   C     C_R   0.351150 0.283336 0.604716 -0.198343
H23   H     H_    0.328902 0.251547 0.548200 0.117326
C49   C     C_R   0.372700 0.238635 0.651925 -0.140921
H24   H     H_    0.372120 0.173810 0.630374 0.113031
C50   C     C_R   0.388500 0.277278 0.726600 0.086308
C51   C     C_R   0.242648 0.228935 0.821204 -0.178098
H25   H     H_    0.116848 0.263747 0.817912 0.110354
C52   C     C_R   0.243996 0.183252 0.868544 0.075836
C53   C     C_R   0.412285 0.138115 0.872756 -0.067737
C54   C     C_R   0.569752 0.140564 0.828038 -0.195971
H26   H     H_    0.697813 0.106049 0.828554 0.117017
C55   C     C_R   0.562962 0.185266 0.780426 -0.153959
H27   H     H_    0.685813 0.185126 0.746352 0.113558
C56   C     C_R   0.399571 0.230028 0.776998 0.062459
O11   O     O_R   0.273230 0.084330 0.086440 -0.539770
O12   O     O_R   0.596660 0.069390 0.940470 -0.548969
O13   O     O_R   0.760270 0.915710 0.913690 -0.530945
C57   C     C_R   0.426331 0.086434 0.920371 0.673974
O14   O     O_R   0.603330 0.093680 0.087390 -0.536925
O15   O     O_R   0.766990 0.940160 0.061660 -0.531629
C58   C     C_R   0.432728 0.119114 0.113257 0.686902
O16   O     O_R   0.266510 0.059870 0.938470 -0.541190
O17   O     O_3   0.431050 0.949630 0.991510 -0.363497
V3    V     V_3+5 0.708490 0.009340 0.001580 1.393612
O18   O     O_R   0.096270 0.930570 0.059390 -0.547859
C59   C     C_R   0.926880 0.915833 0.081473 0.698041
O19   O     O_R   0.089600 0.906290 0.912460 -0.538708
C60   C     C_R   0.920728 0.885590 0.883523 0.699834
V4    V     V_3+5 0.207670 0.990600 0.998190 1.396722
O20   O     O_3   0.935250 0.050360 0.008480 -0.372448
C61   C     C_3   0.769236 0.515931 0.722556 -0.415939
C62   C     C_3   0.922667 0.451339 0.698436 -0.302919
C63   C     C_3   0.847377 0.372662 0.645972 -0.685383
H28   H     H_    0.796034 0.380952 0.595431 0.252653
H29   H     H_    0.964116 0.327832 0.632067 0.212529
H30   H     H_    0.731238 0.348102 0.671409 0.232787
H31   H     H_    0.039136 0.476047 0.673900 0.209896
H32   H     H_    0.982437 0.438072 0.745927 0.191660
H33   H     H_    0.661130 0.495171 0.754020 0.180383
H34   H     H_    0.689283 0.523694 0.676971 0.189614
C64   C     C_3   0.543689 0.256789 0.435627 -0.770942
H35   H     H_    0.668665 0.279737 0.412665 0.225307
H36   H     H_    0.463341 0.306665 0.471592 0.198424
H37   H     H_    0.602205 0.220568 0.467879 0.192651
C65   C     C_3   0.494165 0.391303 0.056222 -0.393138
C66   C     C_3   0.334172 0.445705 0.044058 -0.298474
C67   C     C_3   0.335640 0.447916 0.966863 -0.785743
H38   H     H_    0.478417 0.468363 0.953822 0.231410
H39   H     H_    0.303196 0.387340 0.928674 0.230273
H40   H     H_    0.223837 0.489924 0.960496 0.215349
H41   H     H_    0.190423 0.424409 0.055274 0.199217
H42   H     H_    0.355323 0.507759 0.081439 0.188303
H43   H     H_    0.634854 0.422975 0.060775 0.172872
H44   H     H_    0.502054 0.335962 0.008630 0.175533
C68   C     C_3   0.062560 0.185969 0.912697 -0.358417
C69   C     C_3   0.096042 0.231227 0.992997 -0.299631
C70   C     C_3   0.907208 0.252959 0.033861 -0.740974
H45   H     H_    0.819451 0.198455 0.027845 0.251792
H46   H     H_    0.937104 0.283461 0.092079 0.220363
H47   H     H_    0.825214 0.294224 0.012634 0.209120
H48   H     H_    0.181637 0.194781 0.018296 0.205945
H49   H     H_    0.176226 0.287187 0.998539 0.200004
H50   H     H_    0.946245 0.217176 0.893367 0.168283
H51   H     H_    0.004641 0.124892 0.904147 0.191564
C71   C     C_3   0.579837 0.920656 0.177441 -0.759927
H52   H     H_    0.630177 0.983659 0.190929 0.211720
H53   H     H_    0.501522 0.901620 0.125158 0.220302
H54   H     H_    0.474732 0.917963 0.219239 0.186593

loop_
_geom_bond_atom_site_label_1
_geom_bond_atom_site_label_2
_ccdc_geom_bond_type
O15   C59   A    
C28   H13   S    
C57   O16   A    
C69   H48   S    
C55   H27   S    
O11   C58   A    
C13   C59   S    
C11   C12   A    
C21   C22   A    
C6    H2    S    
C1    O6    A    
C67   H38   S    
C63   H28   S    
C19   H11   S    
C45   H21   S    
C41   H19   S    
C37   C58   S    
O14   V3    S    
C17   C18   A    
O13   V3    S    
O16   V4    S    
C5    C10   A    
C4    C7    S    
C6    C7    A    
C49   C50   A    
C62   C63   S    
C3    C23   S    
C65   H44   S    
O5    C3    A    
C18   C19   A    
C17   H9    S    
C18   H10   S    
O18   C59   A    
V2    O10   S    
C33   H17   S    
O19   C60   A    
C22   C26   A    
C17   C22   A    
C66   H41   S    
C61   C62   S    
C35   C37   A    
C5    C6    A    
C62   H32   S    
O8    V2    S    
C39   C44   A    
O19   V4    S    
C41   C42   A    
C51   C56   A    
C14   C15   A    
C43   C44   A    
O1    V2    S    
H15   C43   S    
O7    V1    S    
C68   H51   S    
C24   C27   A    
C32   H16   S    
O12   V3    S    
C62   H31   S    
C39   C40   A    
V3    O20   S    
C32   C33   A    
C55   C56   A    
C52   C68   S    
O9    C4    A    
C21   C23   A    
C42   C43   A    
O17   V3    S    
O12   C57   A    
C47   C48   A    
C71   H53   S    
C45   C46   A    
O15   V3    S    
C36   C40   A    
C31   C64   S    
C9    H4    S    
C70   H45   S    
C54   H26   S    
C61   H33   S    
C11   C16   A    
C31   C32   A    
C25   C26   A    
O11   V4    S    
C48   H23   S    
C30   H14   S    
V4    O20   S    
C20   H12   S    
C33   C34   A    
O2    C1    A    
C23   C24   A    
C12   C13   A    
C54   C55   A    
C71   H54   S    
C27   C28   A    
C13   C14   A    
C38   C41   A    
C35   C36   A    
O14   C58   A    
C5    H1    S    
C49   H24   S    
O3    C4    A    
C70   H46   S    
C20   C21   A    
C2    C47   S    
C45   C50   A    
C38   C39   A    
O6    V2    S    
C48   C49   A    
C51   C52   A    
C8    C9    A    
C64   H36   S    
C66   C67   S    
O2    V1    S    
C67   H40   S    
C53   C57   S    
C12   C71   S    
C24   C25   A    
O4    C2    A    
C71   H52   S    
O18   V4    S    
C31   C36   A    
C28   C29   A    
O1    C2    A    
C14   H6    S    
C66   H42   S    
C9    C10   A    
C68   C69   S    
C70   H47   S    
C67   H39   S    
O5    V1    S    
C1    C40   S    
C63   H29   S    
O8    C3    A    
C64   H35   S    
C34   H18   S    
C69   C70   S    
C46   C47   A    
C42   C65   S    
C37   C38   A    
C64   H37   S    
O9    V2    S    
O7    V2    S    
C61   H34   S    
C68   H50   S    
O3    V1    S    
V1    O10   S    
O17   V4    S    
C53   C54   A    
C44   H20   S    
C25   C30   A    
C65   C66   S    
C15   C16   A    
C15   H7    S    
C69   H49   S    
C34   C35   A    
C63   H30   S    
C50   C56   S    
C46   H22   S    
C19   C20   A    
C10   C16   S    
O4    V1    S    
C65   H43   S    
C51   H25   S    
C29   C30   A    
C26   C60   S    
C11   H5    S    
O13   C60   A    
C8    H3    S    
C52   C53   A    
C7    C8    A    
H8    C29   S    
C27   C61   S    
