data_mof_unit_33751.cif
_audit_creation_date              2012-12-11T15:52:27-0500
_audit_creation_method            fapswitch 2.2
_symmetry_space_group_name_H-M    P1
_symmetry_Int_Tables_number       1
_space_group_crystal_system       triclinic
_cell_length_a                    6.942328
_cell_length_b                    14.536181
_cell_length_c                    16.026167
_cell_angle_alpha                 90.22985
_cell_angle_beta                  90.126906
_cell_angle_gamma                 90.27207
_cell_volume                      1617.24434034

loop_
_atom_site_label
_atom_site_type_symbol
_atom_type_description
_atom_site_fract_x
_atom_site_fract_y
_atom_site_fract_z
_atom_type_partial_charge
O1    O     O_R   0.494400 0.415640 0.412830 -0.541792
O2    O     O_R   0.823920 0.405510 0.586560 -0.548264
O3    O     O_R   0.994250 0.584360 0.587170 -0.542320
C1    C     C_R   0.654604 0.384257 0.616208 0.718216
O4    O     O_R   0.824110 0.404610 0.413450 -0.545213
O5    O     O_R   0.994440 0.583460 0.412820 -0.541133
C2    C     C_R   0.654801 0.382242 0.384372 0.678057
O6    O     O_R   0.494210 0.416540 0.587180 -0.511842
O7    O     O_3   0.660810 0.558680 0.500000 -0.374136
V1    V     V_3+5 0.935650 0.489110 0.500000 1.398173
O8    O     O_R   0.324150 0.594490 0.413440 -0.545114
C3    C     C_R   0.155363 0.616208 0.384186 0.689558
O9    O     O_R   0.323970 0.595390 0.586550 -0.541225
C4    C     C_R   0.155482 0.617088 0.616030 0.723716
V2    V     V_3+5 0.435660 0.510890 0.500000 1.413883
O10   O     O_3   0.160630 0.441320 0.500000 -0.364527
C5    C     C_3   0.934021 0.694202 0.719196 -0.380372
H1    H     H_    0.836576 0.712327 0.666538 0.158028
H2    H     H_    0.884936 0.625924 0.742456 0.143717
C6    C     C_3   0.917220 0.765812 0.790706 -0.015157
H3    H     H_    0.867179 0.729135 0.847690 0.180111
H4    H     H_    0.121510 0.805488 0.603120 0.104018
H5    H     H_    0.086489 0.909466 0.709583 0.065084
C7    C     C_3   0.210991 0.783691 0.657166 -0.399239
C8    C     C_3   0.272936 0.658814 0.761691 -0.374364
C9    C     C_3   0.144291 0.687033 0.686840 0.002137
H6    H     H_    0.425794 0.653875 0.741461 0.114238
H7    H     H_    0.229448 0.589162 0.783462 0.168651
C10   C     C_3   0.118831 0.810314 0.810180 -0.008610
C11   C     C_3   0.194321 0.856929 0.728425 0.274945
C12   C     C_3   0.257609 0.730037 0.834613 0.295334
H8    H     H_    0.402251 0.761123 0.845570 0.104169
H9    H     H_    0.362450 0.779792 0.634830 0.167583
C13   C     C_R   0.966821 0.748177 0.196363 0.206534
C14   C     C_R   0.979559 0.686187 0.263300 -0.210171
H10   H     H_    0.860620 0.639274 0.274363 0.122651
C15   C     C_R   0.144466 0.682948 0.314211 -0.066456
C16   C     C_R   0.297951 0.743111 0.296943 -0.171060
H11   H     H_    0.427180 0.742362 0.334918 0.126002
C17   C     C_R   0.285028 0.806397 0.231490 -0.228174
H12   H     H_    0.404294 0.853308 0.221451 0.132093
C18   C     C_R   0.119842 0.810395 0.180461 -0.037109
C19   C     C_R   0.794377 0.254638 0.699114 -0.231767
H13   H     H_    0.920544 0.255945 0.659545 0.129319
C20   C     C_R   0.784929 0.189466 0.763027 -0.165263
H14   H     H_    0.904739 0.142917 0.771480 0.122166
C21   C     C_R   0.621475 0.183231 0.814278 -0.078442
C22   C     C_R   0.468845 0.244385 0.800975 -0.220164
H15   H     H_    0.342599 0.241736 0.840559 0.125405
C23   C     C_R   0.478641 0.311392 0.738173 0.208423
C24   C     C_R   0.642052 0.316275 0.685420 -0.043334
C25   C     C_R   0.811660 0.274616 0.281446 -0.159570
H16   H     H_    0.952183 0.293485 0.305646 0.116488
C26   C     C_R   0.800890 0.210723 0.215891 -0.155039
H17   H     H_    0.933539 0.182224 0.191823 0.116320
C27   C     C_R   0.621725 0.183949 0.182061 -0.042514
C28   C     C_R   0.453634 0.222910 0.215730 -0.159730
H18   H     H_    0.313117 0.204042 0.191523 0.115512
C29   C     C_R   0.464404 0.286807 0.281288 -0.155409
H19   H     H_    0.331763 0.315312 0.305357 0.118144
C30   C     C_R   0.643571 0.313559 0.315131 -0.045534
O11   O     O_R   0.771300 0.080930 0.910090 -0.541981
O12   O     O_R   0.441270 0.092800 0.083770 -0.549084
O13   O     O_R   0.271080 0.913920 0.084380 -0.550539
C31   C     C_R   0.610547 0.115221 0.112856 0.668174
O14   O     O_R   0.441580 0.091910 0.910670 -0.541754
O15   O     O_R   0.271390 0.913020 0.910040 -0.523754
C32   C     C_R   0.610677 0.113964 0.881880 0.721685
O16   O     O_R   0.770990 0.081830 0.084440 -0.546126
O17   O     O_3   0.604750 0.938760 0.997250 -0.355089
V3    V     V_3+5 0.329850 0.008280 0.997210 1.433265
O18   O     O_R   0.941680 0.901940 0.910610 -0.522564
C33   C     C_R   0.109641 0.880306 0.881181 0.758124
O19   O     O_R   0.941370 0.902830 0.083720 -0.518303
C34   C     C_R   0.110085 0.879666 0.111991 0.720199
V4    V     V_3+5 0.829860 0.986420 0.997150 1.472600
O20   O     O_3   0.104830 0.056030 0.997180 -0.384898
O21   O     O_3   0.375380 0.899521 0.743479 -0.555406
C35   C     C_3   0.400627 0.977489 0.692334 -0.259316
H20   H     H_    0.301227 0.033489 0.711472 0.131461
H21   H     H_    0.380073 0.960203 0.625201 0.126437
H22   H     H_    0.550014 0.003484 0.700417 0.165680
N1    N     N_3   0.800095 0.745617 0.143569 -0.655392
H23   H     H_    0.789136 0.679702 0.117580 0.220078
H24   H     H_    0.678911 0.756085 0.180865 0.220559
N2    N     N_3   0.324429 0.375963 0.730156 -0.663558
H25   H     H_    0.197020 0.339128 0.719680 0.224944
H26   H     H_    0.310492 0.411037 0.786895 0.210991
N3    N     N_3   0.770745 0.834515 0.770474 -0.635376
H27   H     H_    0.794057 0.861876 0.711190 0.222297
H28   H     H_    0.641423 0.798566 0.765127 0.257791
O22   O     O_3   0.187690 0.685998 0.907649 -0.563489
C36   C     C_3   0.341726 0.654691 0.957463 -0.282075
H29   H     H_    0.423061 0.713792 0.984637 0.154589
H30   H     H_    0.439913 0.609177 0.921430 0.134098
H31   H     H_    0.281949 0.614107 0.009929 0.170101

loop_
_geom_bond_atom_site_label_1
_geom_bond_atom_site_label_2
_ccdc_geom_bond_type
C8    C12   S    
O14   C32   A    
O12   C31   A    
C36   H29   S    
C14   H10   S    
C13   C18   A    
O18   V4    S    
C20   H14   S    
C8    H7    S    
C18   C34   S    
C15   C16   A    
O19   V4    S    
N1    H23   S    
C5    C9    S    
C14   C15   A    
C7    C9    S    
C25   C30   A    
O5    C3    A    
C16   H11   S    
N2    H26   S    
C28   C29   A    
C10   C33   S    
C27   C31   S    
C5    C6    S    
C27   C28   A    
O16   V4    S    
C13   C14   A    
O13   V3    S    
C3    C15   S    
C2    C30   S    
O8    V2    S    
O14   V3    S    
O17   V3    S    
O15   C33   A    
N3    H28   S    
O7    V1    S    
C1    O6    A    
C17   C18   A    
C29   H19   S    
C36   H30   S    
O9    C4    A    
O11   V4    S    
C25   C26   A    
C23   C24   A    
C6    C10   S    
C20   C21   A    
C26   C27   A    
C29   C30   A    
O19   C34   A    
C1    C24   S    
H5    C11   S    
V4    O20   S    
C35   H21   S    
N2    H25   S    
C8    C9    S    
O2    C1    A    
C19   H13   S    
C10   C11   S    
C21   C22   A    
C5    H1    S    
C4    C9    S    
C19   C20   A    
O3    C4    A    
O1    V2    S    
C17   H12   S    
N1    H24   S    
O12   V3    S    
C36   H31   S    
O9    V2    S    
O17   V4    S    
H4    C7    S    
C8    H6    S    
C13   N1    S    
O2    V1    S    
C21   C32   S    
V3    O20   S    
C25   H16   S    
O4    C2    A    
C26   H17   S    
C22   H15   S    
O1    C2    A    
C12   H8    S    
O18   C33   A    
O5    V1    S    
C35   H22   S    
O8    C3    A    
O6    V2    S    
C6    N3    S    
C7    H9    S    
O11   C32   A    
O7    V2    S    
O4    V1    S    
C10   C12   S    
O3    V1    S    
V1    O10   S    
C16   C17   A    
O21   C35   S    
C19   C24   A    
C28   H18   S    
C31   O16   A    
C22   C23   A    
O22   C36   S    
C5    H2    S    
O13   C34   A    
O15   V3    S    
C7    C11   S    
C23   N2    S    
C35   H20   S    
C11   O21   S    
C6    H3    S    
C12   O22   S    
N3    H27   S    
V2    O10   S    
