data_mof_unit_10159.cif
_audit_creation_date              2012-10-26T19:52:24-0400
_audit_creation_method            fapswitch 2.2
_symmetry_space_group_name_H-M    P1
_symmetry_Int_Tables_number       1
_space_group_crystal_system       triclinic
_cell_length_a                    9.592897
_cell_length_b                    10.842289
_cell_length_c                    13.369954
_cell_angle_alpha                 90.646105
_cell_angle_beta                  73.130142
_cell_angle_gamma                 90.614369
_cell_volume                      1330.62775768

loop_
_atom_site_label
_atom_site_type_symbol
_atom_type_description
_atom_site_fract_x
_atom_site_fract_y
_atom_site_fract_z
_atom_type_partial_charge
C1    C     C_R   0.499924 0.737685 0.502924 0.578403
C2    C     C_R   0.379320 0.463474 0.813248 -0.005783
C3    C     C_R   0.370313 0.935024 0.519827 -0.037299
C4    C     C_R   0.422905 0.488567 0.699564 0.536659
C5    C     C_R   0.497935 0.871268 0.514958 0.042068
C6    C     C_R   0.619741 0.939412 0.526221 0.079352
C7    C     C_R   0.616413 0.068284 0.525899 -0.154874
C8    C     C_R   0.494111 0.130006 0.514393 -0.022034
C9    C     C_R   0.367833 0.062044 0.520415 0.068560
C10   C     C_3   0.266574 0.064342 0.453856 -0.029029
C11   C     C_3   0.269135 0.923751 0.453604 -0.254086
C12   C     C_R   0.439963 0.438477 0.977833 0.033256
C13   C     C_R   0.942705 0.403888 0.456529 0.172358
C14   C     C_R   0.905165 0.587064 0.553503 0.013058
C15   C     C_R   0.053726 0.587147 0.553466 0.003488
C16   C     C_R   0.498524 0.262612 0.502370 0.543047
C17   C     C_R   0.090283 0.404948 0.455240 0.222022
C18   C     C_3   0.137818 0.367623 0.343072 -0.283263
C19   C     C_3   0.978884 0.360671 0.346063 -0.279140
C20   C     C_R   0.578181 0.502296 0.299609 0.560948
C21   C     C_R   0.793496 0.530477 0.011085 0.122018
C22   C     C_R   0.622537 0.498698 0.184318 -0.013623
C23   C     C_R   0.481917 0.433955 0.867239 0.001951
C24   C     C_R   0.233225 0.476857 0.870634 -0.089442
C25   C     C_R   0.188341 0.460008 0.978202 -0.092752
C26   C     C_R   0.290428 0.445165 0.032125 -0.108191
C27   C     C_R   0.550732 0.448818 0.028424 -0.009076
C28   C     C_R   0.696571 0.464811 0.967290 0.056420
C29   C     C_R   0.734776 0.419716 0.863721 0.059661
C30   C     C_R   0.626323 0.401311 0.815459 -0.095766
C31   C     C_R   0.520622 0.452849 0.136768 -0.158324
C32   C     C_R   0.756513 0.546525 0.120923 0.087825
Cu1   Cu    Cu3+1 0.359330 0.500020 0.500010 0.977915
Cu2   Cu    Cu3+1 0.640670 0.499980 0.499990 0.976413
H1    H     H_    0.712851 0.119060 0.529438 0.141069
H2    H     H_    0.939680 0.264828 0.339882 0.126817
H3    H     H_    0.418215 0.418508 0.185169 0.118444
H4    H     H_    0.154408 0.502977 0.831917 0.188504
H5    H     H_    0.249602 0.444811 0.115919 0.108374
H6    H     H_    0.074589 0.464906 0.021386 0.190056
H7    H     H_    0.656598 0.360996 0.737981 0.172318
H8    H     H_    0.052735 0.096424 0.466023 0.213872
H9    H     H_    0.082722 0.072616 0.582285 0.255163
H10   H     H_    0.911966 0.598174 0.868058 0.237665
H11   H     H_    0.898394 0.692437 0.966956 0.256989
H12   H     H_    0.315633 0.106467 0.375971 0.140165
H13   H     H_    0.770037 0.908908 0.602079 0.218412
H14   H     H_    0.836366 0.909449 0.470307 0.232301
H15   H     H_    0.163833 0.879397 0.496060 0.137602
H16   H     H_    0.322749 0.883458 0.375165 0.138869
H17   H     H_    0.833630 0.658467 0.595912 0.142499
H18   H     H_    0.092798 0.658930 0.595575 0.115683
H19   H     H_    0.196156 0.444353 0.294003 0.141182
H20   H     H_    0.193125 0.277089 0.329308 0.132845
H21   H     H_    0.950062 0.427649 0.293469 0.185451
I1    I     I_    0.894881 0.658258 0.185790 -0.413887
I2    I     I_    0.942004 0.348374 0.782721 -0.434554
N1    N     N_R   0.852320 0.499070 0.499340 -0.229356
N2    N     N_R   0.148230 0.499110 0.499340 -0.224266
N3    N     N_3   0.124524 0.115857 0.509992 -0.600973
N4    N     N_3   0.914203 0.599460 0.945614 -0.628828
N5    N     N_3   0.749377 0.879882 0.532856 -0.609139
O1    O     O_R   0.381190 0.680360 0.500000 -0.520675
O2    O     O_R   0.618780 0.680320 0.499990 -0.449758
O3    O     O_R   0.323230 0.500000 0.650990 -0.488147
O4    O     O_R   0.560820 0.499960 0.650980 -0.517893
O5    O     O_R   0.381220 0.319680 0.500010 -0.467508
O6    O     O_R   0.618810 0.319640 0.500000 -0.521859
O7    O     O_R   0.439180 0.500040 0.349020 -0.514984
O8    O     O_R   0.676770 0.500000 0.349010 -0.475192

loop_
_geom_bond_atom_site_label_1
_geom_bond_atom_site_label_2
_ccdc_geom_bond_type
C10   H12   S    
C2    C4    S    
C1    O2    A    
C30   H7    S    
C6    C7    A    
C3    C9    A    
Cu1   O7    S    
H10   N4    S    
C9    C10   S    
Cu2   O8    S    
H14   N5    S    
C14   H17   S    
C13   C17   A    
Cu1   O1    S    
C20   O8    A    
Cu2   O4    S    
H13   N5    S    
Cu2   O2    S    
C17   C18   S    
Cu1   O3    S    
C7    C8    A    
C8    C16   S    
C11   H16   S    
C15   H18   S    
C24   C25   A    
C4    O4    A    
C12   C23   A    
C6    N5    S    
C29   C30   A    
C22   C32   A    
H9    N3    S    
C17   N2    A    
C16   O6    A    
C5    C6    A    
C1    O1    A    
C7    H1    S    
H11   N4    S    
C28   C29   A    
C21   C28   A    
C29   I2    S    
Cu1   Cu2   S    
C19   H2    S    
C25   H6    S    
C2    C24   A    
C4    O3    A    
C26   H5    S    
C21   C32   A    
C1    C5    S    
C20   O7    A    
C3    C11   S    
C10   C11   S    
C18   H20   S    
C12   C27   A    
C27   C31   A    
C24   H4    S    
C23   C30   A    
H8    N3    S    
C2    C23   A    
C11   H15   S    
Cu1   O5    S    
Cu1   N2    S    
C18   C19   S    
C22   C31   A    
C12   C26   A    
Cu2   O6    S    
C27   C28   A    
Cu2   N1    S    
C19   H21   S    
C10   N3    S    
C13   C19   S    
C13   N1    A    
C18   H19   S    
C25   C26   A    
C14   C15   A    
C16   O5    A    
C15   N2    A    
C32   I1    S    
C21   N4    S    
C31   H3    S    
C14   N1    A    
C20   C22   S    
C8    C9    A    
C3    C5    A    
