data_mof_unit_53848.cif
_audit_creation_date              2013-03-05T15:52:30-0500
_audit_creation_method            fapswitch 2.2
_symmetry_space_group_name_H-M    P1
_symmetry_Int_Tables_number       1
_space_group_crystal_system       triclinic
_cell_length_a                    27.820073
_cell_length_b                    10.821702
_cell_length_c                    9.62852
_cell_angle_alpha                 90.862118
_cell_angle_beta                  90.224155
_cell_angle_gamma                 92.34664
_cell_volume                      2895.978892

loop_
_atom_site_label
_atom_site_type_symbol
_atom_site_description
_atom_site_fract_x
_atom_site_fract_y
_atom_site_fract_z
_atom_type_partial_charge
O1    O     O_R   0.500000 0.319640 0.618810 -0.575912
O2    O     O_R   0.500000 0.319660 0.381240 -0.556342
C1    C     C_R   0.495903 0.262306 0.498329 0.813576
O3    O     O_R   0.430260 0.500010 0.618770 -0.581254
O4    O     O_R   0.430270 0.500030 0.381200 -0.527232
C2    C     C_R   0.407369 0.500352 0.499882 0.807334
Cu1   Cu    Cu3+1 0.500000 0.499990 0.640660 0.983333
Cu2   Cu    Cu3+1 0.500000 0.500010 0.359340 1.020698
O5    O     O_R   0.500000 0.680340 0.618760 -0.576760
O6    O     O_R   0.500000 0.680360 0.381190 -0.551847
O7    O     O_R   0.569730 0.499970 0.618800 -0.566870
O8    O     O_R   0.569740 0.499990 0.381230 -0.552130
C3    C     C_R   0.495524 0.736404 0.501030 0.823290
C4    C     C_R   0.592346 0.499667 0.499839 0.865973
C5    C     C_R   0.173761 0.415014 0.541759 0.539855
O9    O     O_2   0.195392 0.308355 0.567895 -0.538609
N1    N     N_R   0.200820 0.518347 0.506227 -0.453865
C6    C     C_R   0.179409 0.626348 0.474616 0.545037
C7    C     C_R   0.278110 0.543208 0.383613 -0.161125
C8    C     C_R   0.328385 0.540396 0.381146 0.069237
C9    C     C_R   0.327476 0.471374 0.621418 0.087286
C10   C     C_R   0.277414 0.478776 0.622448 -0.146427
C11   C     C_R   0.252486 0.513545 0.503987 0.296710
C12   C     C_R   0.100791 0.528185 0.515555 -0.045092
C13   C     C_R   0.123495 0.418899 0.550198 -0.022252
C14   C     C_R   0.095645 0.315551 0.591305 -0.144152
C15   C     C_R   0.129063 0.632420 0.475837 -0.025305
C16   C     C_R   0.353901 0.503327 0.500396 -0.031577
H1    H     H_    0.257717 0.456302 0.716218 0.159816
H2    H     H_    0.112157 0.229715 0.616571 0.188471
C17   C     C_R   0.645278 0.508864 0.498575 -0.150339
C18   C     C_R   0.971555 0.437885 0.581990 0.040357
C19   C     C_R   0.976226 0.641232 0.469140 0.041000
C20   C     C_R   0.948679 0.541014 0.525961 0.074694
C21   C     C_R   0.942871 0.346156 0.649215 -0.201529
C22   C     C_R   0.893099 0.351694 0.653100 -0.124276
C23   C     C_R   0.870047 0.448044 0.588926 -0.029538
C24   C     C_R   0.897680 0.543230 0.525567 -0.043426
C25   C     C_R   0.874217 0.639936 0.460708 -0.033219
C26   C     C_R   0.823705 0.636492 0.454750 0.598342
N2    N     N_R   0.797647 0.541988 0.515263 -0.442852
C27   C     C_R   0.819719 0.450778 0.585294 0.585220
C28   C     C_R   0.723326 0.446579 0.413740 0.127789
C29   C     C_R   0.672752 0.431543 0.413239 0.099263
C30   C     C_R   0.668490 0.602174 0.578965 -0.322670
C31   C     C_R   0.718620 0.614755 0.583469 0.185457
C32   C     C_R   0.746134 0.535676 0.502580 0.281197
O10   O     O_2   0.792920 0.361844 0.649132 -0.507647
C33   C     C_R   0.022129 0.429868 0.569358 0.043106
C34   C     C_R   0.049880 0.533082 0.520322 0.071257
C35   C     C_R   0.027265 0.640924 0.475563 0.041292
C36   C     C_R   0.045980 0.320929 0.601613 -0.205097
H3    H     H_    0.872684 0.278674 0.704984 0.194046
H4    H     H_    0.957977 0.269973 0.702771 0.144203
H5    H     H_    0.027044 0.236510 0.630966 0.142128
O11   O     O_2   0.206723 0.728049 0.443522 -0.532276
C37   C     C_R   0.106605 0.740707 0.439816 -0.138798
H6    H     H_    0.258913 0.569849 0.291361 0.163633
H7    H     H_    0.127538 0.822926 0.411040 0.191412
C38   C     C_R   0.951576 0.737424 0.405589 -0.200829
C39   C     C_R   0.901577 0.736128 0.400775 -0.133932
O12   O     O_2   0.800822 0.725836 0.387850 -0.520661
C40   C     C_R   0.056709 0.744888 0.438802 -0.204943
H8    H     H_    0.969957 0.813234 0.354020 0.143220
H9    H     H_    0.647536 0.666965 0.636630 0.179058
H10   H     H_    0.884428 0.811093 0.349244 0.191592
H11   H     H_    0.042260 0.832340 0.412069 0.141890
C41   C     C_R   0.437588 0.127430 0.708152 -0.183332
H12   H     H_    0.430597 0.224370 0.701286 0.160355
C42   C     C_R   0.416585 0.064736 0.819077 -0.143313
H13   H     H_    0.397321 0.115370 0.897501 0.149944
C43   C     C_R   0.418820 0.937113 0.826259 0.223688
C44   C     C_R   0.441245 0.871521 0.721042 -0.165289
H14   H     H_    0.437746 0.772265 0.726081 0.182050
C45   C     C_R   0.465097 0.933527 0.610731 0.078313
C46   C     C_R   0.464068 0.064464 0.605535 0.085383
C47   C     C_R   0.487093 0.127611 0.493394 -0.161242
C48   C     C_R   0.501308 0.058755 0.375514 0.162482
H15   H     H_    0.514395 0.882802 0.292118 0.197902
C49   C     C_R   0.501943 0.932269 0.382293 -0.191530
C50   C     C_R   0.487894 0.869297 0.501355 -0.124290
C51   C     C_R   0.580370 0.611669 0.140477 0.228714
C52   C     C_R   0.623743 0.610861 0.067326 -0.222121
H16   H     H_    0.657267 0.639656 0.118106 0.178875
C53   C     C_R   0.622168 0.606952 0.923693 -0.207320
H17   H     H_    0.654675 0.634858 0.869867 0.166758
C54   C     C_R   0.577438 0.616427 0.860072 0.205321
C55   C     C_R   0.537376 0.559696 0.926587 0.121961
C56   C     C_R   0.537984 0.558778 0.075360 0.152195
N3    N     N_R   0.500460 0.501210 0.147910 -0.179623
C57   C     C_R   0.463969 0.442371 0.071866 0.288966
H18   H     H_    0.435767 0.394821 0.866551 0.146030
C58   C     C_R   0.464391 0.442846 0.923938 -0.064102
N4    N     N_R   0.500480 0.501290 0.852040 -0.201515
N5    N     N_3   0.350990 0.429320 0.743538 -0.594460
H19   H     H_    0.342852 0.488334 0.826422 0.230760
H20   H     H_    0.336889 0.340824 0.765938 0.218674
N6    N     N_3   0.741916 0.707772 0.670353 -0.543443
H21   H     H_    0.729255 0.793632 0.642426 0.253421
H22   H     H_    0.731799 0.691404 0.773042 0.225221
I1    I     I_    0.521974 0.126071 0.175733 -0.295199
I2    I     I_    0.386103 0.841633 0.992654 -0.394949
N7    N     N_3   0.425223 0.378386 0.141835 -0.522720
H23   H     H_    0.397778 0.351691 0.071765 0.173913
H24   H     H_    0.438325 0.297081 0.181297 0.244445
N8    N     N_3   0.577558 0.703401 0.248079 -0.522893
H25   H     H_    0.579429 0.789528 0.200178 0.222505
H26   H     H_    0.608151 0.701329 0.311391 0.213045
I3    I     I_    0.572782 0.804596 0.803482 -0.346059
I4    I     I_    0.638770 0.287663 0.290529 -0.208213
I5    I     I_    0.766648 0.338734 0.279149 -0.229810
N9    N     N_3   0.353188 0.578864 0.258073 -0.523687
H27   H     H_    0.344531 0.670098 0.238662 0.254003
H28   H     H_    0.340175 0.523752 0.174925 0.228199

loop_
_geom_bond_atom_site_label_1
_geom_bond_atom_site_label_2
_geom_bond_distance
_ccdc_geom_bond_type
C54   C55   1.410898 A    
C58   N4    1.361568 A    
C10   H1    1.083580 S    
N2    C27   1.368361 A    
N5    H19   1.045893 S    
C12   C15   1.407116 A    
C4    C17   1.471962 S    
C28   C29   1.409700 A    
N9    H28   1.045642 S    
Cu1   Cu2   2.708699 S    
C47   C48   1.414943 A    
Cu1   O7    1.952106 S    
N1    C11   1.440658 S    
C51   C56   1.428048 A    
C43   I2    2.108813 S    
C22   C23   1.396882 A    
O4    C2    1.310534 A    
O7    C4    1.309028 A    
C48   C49   1.372172 A    
C5    C13   1.403368 A    
N8    H25   1.045604 S    
C5    O9    1.349866 S    
N6    H21   1.045589 S    
C3    C50   1.462242 S    
C26   O12   1.349412 S    
C5    N1    1.370685 A    
C44   H14   1.076392 S    
C23   C27   1.401965 A    
O5    C3    1.301675 A    
C22   H3    1.083471 S    
C8    N9    1.432271 S    
C39   H10   1.083463 S    
C2    C16   1.489184 S    
C7    C8    1.400533 A    
C41   H12   1.077692 S    
C37   C40   1.390688 A    
C42   H13   1.082788 S    
C36   H5    1.077733 S    
C6    O11   1.349638 S    
C43   C44   1.392470 A    
C31   N6    1.431829 S    
O1    Cu1   1.959850 S    
C9    C10   1.398358 A    
C48   I1    2.139617 S    
C44   C45   1.417467 A    
C28   I5    2.139143 S    
O3    Cu1   1.950778 S    
N9    H27   1.045166 S    
C19   C20   1.419831 A    
C55   N4    1.376862 A    
C53   C54   1.393081 A    
C7    H6    1.083485 S    
C12   C34   1.420398 A    
C25   C39   1.397347 A    
C40   H11   1.077569 S    
C17   C29   1.412824 A    
C18   C21   1.414096 A    
C35   C40   1.414501 A    
C46   C47   1.426500 A    
O3    C2    1.307879 A    
C15   C37   1.397996 A    
C25   C26   1.405150 A    
C45   C50   1.419056 A    
C8    C16   1.419135 A    
C34   C35   1.420088 A    
C13   C14   1.397337 A    
C53   H17   1.078740 S    
C38   C39   1.391062 A    
O1    C1    1.309655 A    
C21   C22   1.389023 A    
C18   C20   1.419561 A    
C7    C11   1.397660 A    
C45   C46   1.420049 A    
C23   C24   1.407803 A    
C14   C36   1.389149 A    
C57   C58   1.424510 A    
C52   H16   1.083528 S    
Cu2   O8    1.950773 S    
C33   C36   1.414223 A    
N1    C6    1.371027 A    
N2    C32   1.436554 S    
N7    H24   1.042407 S    
C27   O10   1.350019 S    
C41   C46   1.417673 A    
C12   C13   1.407242 A    
Cu2   O6    1.959851 S    
C26   N2    1.368009 A    
C52   C53   1.383451 A    
C9    C16   1.419813 A    
O8    C4    1.301702 A    
C51   C52   1.399812 A    
C19   C38   1.415146 A    
N6    H22   1.044786 S    
C30   H9    1.078895 S    
Cu2   N3    2.036082 S    
C1    C47   1.468192 S    
Cu1   O5    1.966204 S    
Cu1   N4    2.035102 S    
C31   C32   1.401104 A    
C20   C24   1.419993 A    
O2    Cu2   1.966204 S    
C6    C15   1.404941 A    
C57   N7    1.433106 S    
C49   C50   1.391606 A    
O6    C3    1.304232 A    
O4    Cu2   1.952109 S    
N5    H20   1.045789 S    
C14   H2    1.083465 S    
C54   I3    2.124771 S    
C19   C35   1.421145 A    
C9    N5    1.432509 S    
C38   H8    1.077478 S    
O2    C1    1.298269 A    
N3    C57   1.378174 A    
C24   C25   1.408431 A    
N8    H26   1.046130 S    
H18   C58   1.078693 S    
C51   N8    1.428631 S    
C18   C33   1.418768 A    
C37   H7    1.083439 S    
H15   C49   1.078882 S    
C30   C31   1.396118 A    
C55   C56   1.432685 A    
C41   C42   1.391632 A    
C33   C34   1.419378 A    
C17   C30   1.398202 A    
N7    H23   1.045774 S    
C10   C11   1.396999 A    
C42   C43   1.387784 A    
C56   N3    1.389749 A    
C28   C32   1.408827 A    
C21   H4    1.077811 S    
C29   I4    2.128233 S    
