data_mof_unit_49887.cif
_audit_creation_date              2013-03-05T16:00:37-0500
_audit_creation_method            fapswitch 2.2
_symmetry_space_group_name_H-M    P1
_symmetry_Int_Tables_number       1
_space_group_crystal_system       triclinic
_cell_length_a                    8.313084
_cell_length_b                    12.793151
_cell_length_c                    19.126586
_cell_angle_alpha                 99.776648
_cell_angle_beta                  91.781911
_cell_angle_gamma                 97.858072
_cell_volume                      1982.68259015

loop_
_atom_site_label
_atom_site_type_symbol
_atom_site_description
_atom_site_fract_x
_atom_site_fract_y
_atom_site_fract_z
_atom_type_partial_charge
P1    P     P_3+3 0.042930 0.392230 0.337410 0.437023
O1    O     O_2   0.875110 0.423180 0.326290 -0.390769
O2    O     O_3   0.123410 0.433040 0.414950 -0.415201
O3    O     O_3   0.661010 0.625070 0.369680 -0.368230
O4    O     O_2   0.717375 0.540039 0.241546 -0.418623
O5    O     O_3   0.013429 0.252289 0.317264 -0.561653
O6    O     O_3   0.692344 0.745305 0.257815 -0.515198
H1    H     H_    0.704787 0.859410 0.348624 0.129549
C1    C     C_3   0.605204 0.915333 0.258476 -1.070889
H2    H     H_    0.567054 0.985010 0.293557 0.258952
H3    H     H_    0.721348 0.940837 0.235236 0.274468
P2    P     P_3+3 0.672230 0.754900 0.555730 0.483604
P3    P     P_3+3 0.127861 0.822073 0.406126 0.437553
O7    O     O_2   0.847800 0.768730 0.534310 -0.357941
O8    O     O_3   0.082250 0.684470 0.405440 -0.381536
O9    O     O_2   0.027082 0.875072 0.464791 -0.365069
O10   O     O_3   0.685002 0.809635 0.647112 -0.600416
O11   O     O_3   0.042665 0.857334 0.329528 -0.531231
C2    C     C_3   0.093212 0.799203 0.266610 0.531847
H4    H     H_    0.228188 0.804021 0.268901 -0.026643
C3    C     C_3   0.038302 0.849896 0.203538 -0.635946
H5    H     H_    0.913432 0.813302 0.182890 0.249302
H6    H     H_    0.030836 0.935520 0.221538 0.212595
C4    C     C_3   0.236282 0.783835 0.615671 0.375941
H7    H     H_    0.357309 0.760369 0.604794 0.090095
H8    H     H_    0.150231 0.751501 0.569021 0.154154
C5    C     C_3   0.249328 0.905215 0.628188 -0.890313
H9    H     H_    0.329956 0.940087 0.676020 0.245969
H10   H     H_    0.300067 0.937234 0.581984 0.233281
H11   H     H_    0.126913 0.929190 0.636442 0.281892
Ba1   Ba    Ba6+2 0.853180 0.547790 0.465300 1.548215
C6    C     C_3   0.955679 0.209795 0.375489 0.350799
H12   H     H_    0.827827 0.223188 0.380624 0.100481
H13   H     H_    0.031891 0.245249 0.424748 0.130163
C7    C     C_3   0.962627 0.090143 0.361757 -0.875477
H14   H     H_    0.909947 0.054720 0.307841 0.257279
H15   H     H_    0.893578 0.049847 0.400647 0.230667
H16   H     H_    0.090743 0.075811 0.365875 0.263404
C8    C     C_3   0.717904 0.735692 0.689478 0.358313
H17   H     H_    0.839126 0.712208 0.677969 0.105901
H18   H     H_    0.619078 0.666536 0.681377 0.147109
C9    C     C_3   0.725465 0.788172 0.767886 -0.668800
H19   H     H_    0.810464 0.864812 0.776510 0.242508
H20   H     H_    0.773595 0.734212 0.800672 0.182059
P4    P     P_3+3 0.146790 0.607860 0.662600 0.456516
O12   O     O_2   0.314600 0.576860 0.673750 -0.370509
O13   O     O_3   0.066300 0.567050 0.585060 -0.417872
O14   O     O_3   0.528700 0.375020 0.630330 -0.345776
O15   O     O_3   0.181790 0.748093 0.677219 -0.574905
P5    P     P_3+3 0.062499 0.174281 0.588436 0.468040
O16   O     O_3   0.611760 0.365720 0.463870 -0.396753
O17   O     O_3   0.107460 0.315620 0.594570 -0.349607
O18   O     O_2   0.193745 0.123321 0.544643 -0.369587
O19   O     O_3   0.101949 0.141849 0.671803 -0.531887
Ba2   Ba    Ba6+2 0.336650 0.452300 0.534710 1.547915
P6    P     P_3+3 0.616712 0.622194 0.280432 0.437550
C10   C     C_3   0.623289 0.826577 0.300502 0.487672
H21   H     H_    0.500133 0.798931 0.317292 0.004466
H22   H     H_    0.512341 0.885417 0.214267 0.247917
O20   O     O_3   0.577950 0.634370 0.536140 -0.349934
C11   C     C_3   0.421479 0.260205 0.311614 0.380074
H23   H     H_    0.321645 0.288671 0.343137 0.134196
C12   C     C_3   0.351143 0.200186 0.238596 -0.537828
H24   H     H_    0.293250 0.255835 0.210532 0.188967
H25   H     H_    0.450326 0.171756 0.205821 0.195613
P7    P     P_3+3 0.519188 0.229979 0.438405 0.413239
O21   O     O_2   0.341900 0.231310 0.465740 -0.366226
O22   O     O_3   0.502914 0.190992 0.345280 -0.602974
C13   C     C_3   0.054476 0.220385 0.724343 0.490139
H26   H     H_    0.137603 0.297242 0.727881 0.142543
H27   H     H_    0.927216 0.233092 0.713538 0.023480
C14   C     C_3   0.065186 0.182753 0.795323 -0.997159
H28   H     H_    0.189714 0.164783 0.805730 0.290997
H29   H     H_    0.036601 0.245760 0.838689 0.222759
H30   H     H_    0.977906 0.108550 0.794299 0.258279
P8    P     P_3+3 0.559998 0.379044 0.721447 0.478858
C15   C     C_3   0.547979 0.173205 0.696560 0.466227
H31   H     H_    0.655561 0.202172 0.668152 0.030298
O23   O     O_2   0.447589 0.457377 0.755317 -0.404611
O24   O     O_3   0.482674 0.254268 0.741482 -0.483087
H32   H     H_    0.452522 0.130954 0.655719 0.130816
H33   H     H_    0.695350 0.135339 0.781434 0.268610
C16   C     C_3   0.599194 0.093947 0.740728 -1.053378
H34   H     H_    0.647107 0.027819 0.705959 0.251314
H35   H     H_    0.493798 0.060306 0.768250 0.274925
C17   C     C_R   0.054126 0.569012 0.804305 -0.294589
H36   H     H_    0.146029 0.635907 0.825816 0.133088
C18   C     C_R   0.014873 0.550924 0.730054 0.221148
C19   C     C_R   0.849352 0.419300 0.814264 -0.318693
H37   H     H_    0.798655 0.351959 0.837756 0.163342
C20   C     C_R   0.775810 0.431350 0.749965 0.172876
C21   C     C_R   0.332064 0.587377 0.190572 -0.384508
H38   H     H_    0.382904 0.654153 0.166554 0.144783
C22   C     C_R   0.401245 0.578293 0.256393 0.264037
C23   C     C_R   0.135940 0.433624 0.198819 -0.315672
H39   H     H_    0.047899 0.364880 0.176474 0.151475
C24   C     C_R   0.171580 0.453171 0.273353 0.296874
C25   C     C_R   0.980599 0.496343 0.848270 0.110507
C26   C     C_R   0.866648 0.489069 0.706171 -0.474957
C27   C     C_R   0.206418 0.507648 0.155614 0.119642
C28   C     C_R   0.312464 0.520271 0.300337 -0.442324
H40   H     H_    0.356725 0.524157 0.354662 0.160066
C29   C     C_R   0.758431 0.437166 0.962455 -0.253343
C30   C     C_R   0.656132 0.387358 0.007398 -0.035897
C31   C     C_R   0.707571 0.399181 0.078196 -0.161168
C32   C     C_R   0.861973 0.451596 0.100672 -0.173395
C33   C     C_R   0.981719 0.474354 0.052550 0.074419
C34   C     C_R   0.927152 0.469862 0.979734 0.093894
C35   C     C_R   0.149047 0.505077 0.076880 -0.053574
C36   C     C_R   0.259880 0.534657 0.024922 0.111454
C37   C     C_R   0.205559 0.529644 0.951899 0.056076
C38   C     C_R   0.037961 0.499212 0.927413 -0.077594
C39   C     C_R   0.428956 0.565940 0.042500 -0.181404
C40   C     C_R   0.533018 0.609690 0.996319 -0.141579
C41   C     C_R   0.482673 0.598938 0.925882 -0.097544
C42   C     C_R   0.326064 0.550169 0.903652 -0.108477
H41   H     H_    0.699209 0.455252 0.916447 0.179564
H42   H     H_    0.625370 0.374084 0.117038 0.165810
H43   H     H_    0.884525 0.473911 0.156451 0.183557
H44   H     H_    0.488851 0.550511 0.089344 0.157459
H45   H     H_    0.659104 0.639025 0.013080 0.141402
H46   H     H_    0.569056 0.619660 0.887459 0.127501
H47   H     H_    0.303295 0.525357 0.848068 0.182238
C43   C     C_R   0.771274 0.169636 0.511680 -0.430766
C44   C     C_R   0.432127 0.805229 0.466395 -0.512862
C45   C     C_R   0.402976 0.980075 0.440318 -0.218373
C46   C     C_R   0.341487 0.872237 0.436185 0.193889
C47   C     C_R   0.579309 0.845909 0.505489 0.287932
C48   C     C_R   0.642327 0.956851 0.511529 -0.064296
C49   C     C_R   0.553076 0.023722 0.477028 -0.062682
C50   C     C_R   0.617533 0.132782 0.480463 0.249043
C51   C     C_R   0.857911 0.110042 0.548379 0.221838
C52   C     C_R   0.791659 0.003707 0.550279 -0.208856
H48   H     H_    0.330563 0.029348 0.415954 0.174643
H49   H     H_    0.860317 0.958739 0.579994 0.191543
H50   H     H_    0.831799 0.242086 0.500505 0.147575
H51   H     H_    0.381313 0.722124 0.464071 0.169040
N1    N     N_3   0.565250 0.808804 0.791448 -0.178164
H52   H     H_    0.516192 0.855304 0.758580 0.191572
H53   H     H_    0.488036 0.735780 0.785996 0.158814
N2    N     N_3   0.534533 0.351551 0.298975 -0.224611
H54   H     H_    0.576914 0.400145 0.347044 0.186540
H55   H     H_    0.631896 0.322582 0.272591 0.164433
N3    N     N_3   0.230584 0.109495 0.245066 -0.161597
H56   H     H_    0.178147 0.079595 0.193968 0.146644
H57   H     H_    0.291143 0.049693 0.260215 0.162301
N4    N     N_3   0.146695 0.838129 0.144871 -0.204196
H58   H     H_    0.260667 0.881574 0.161989 0.128065
H59   H     H_    0.160728 0.757495 0.130367 0.131846
N5    N     N_3   0.015123 0.687764 0.256565 -0.103059
H60   H     H_    0.089434 0.644901 0.281433 0.119578
H61   H     H_    0.008945 0.653352 0.202848 0.087296
C53   C     C_2   0.814368 0.474170 0.632390 1.148719
O25   O     O_2   0.744506 0.538956 0.609300 -0.611278
O26   O     O_R   0.847467 0.385538 0.587766 -0.796696
H62   H     H_    0.859662 0.401713 0.538429 0.344426
C54   C     C_2   0.490501 0.333075 0.981705 1.003122
O27   O     O_2   0.398122 0.295465 0.022608 -0.662834
O28   O     O_R   0.439517 0.324793 0.910430 -0.774908
H63   H     H_    0.321947 0.290967 0.900469 0.331323

loop_
_geom_bond_atom_site_label_1
_geom_bond_atom_site_label_2
_geom_bond_distance
_ccdc_geom_bond_type
O14   Ba2   2.781229 S    
P7    O22   1.761951 S    
C12   H25   1.114363 S    
C45   C46   1.392274 A    
C42   H47   1.059851 S    
C32   H43   1.060358 S    
C9    N1    1.462781 S    
O14   P8    1.745064 S    
O4    P6    1.540066 D    
O5    C6    1.390587 S    
C23   H39   1.081038 S    
P8    O23   1.539604 D    
O7    Ba1   2.916265 S    
C47   C48   1.428084 A    
C40   C41   1.376709 A    
P7    C50   1.854298 S    
C8    H18   1.108362 S    
C15   H31   1.113721 S    
P6    C22   1.822423 S    
P5    O19   1.746878 S    
P3    O11   1.760335 S    
C16   H34   1.110909 S    
C3    N4    1.461619 S    
N4    H59   1.045193 S    
C4    H8    1.110402 S    
O11   C2    1.410945 S    
N2    H55   1.044516 S    
C17   C18   1.419803 A    
C5    H10   1.107045 S    
C32   C33   1.411232 A    
C15   C16   1.519751 S    
C41   C42   1.385050 A    
P1    Ba1   3.446336 S    
C2    N5    1.461845 S    
C43   C51   1.375895 A    
C13   H27   1.110488 S    
P1    O1    1.519707 D    
O10   C8    1.394110 S    
C11   C12   1.531067 S    
C36   C37   1.442632 A    
N4    H58   1.043408 S    
C39   C40   1.387387 A    
C40   H45   1.083030 S    
O2    Ba2   2.808261 S    
C54   O27   1.223717 D    
C2    H4    1.114391 S    
C22   C28   1.379426 A    
C51   C52   1.402991 A    
O12   Ba2   2.883761 S    
C44   C47   1.401363 A    
P5    O17   1.778585 S    
C33   C34   1.440534 A    
C4    C5    1.518697 S    
C37   C42   1.411349 A    
P4    O15   1.750199 S    
C53   O26   1.364223 S    
C1    H2    1.110305 S    
C30   C54   1.483300 S    
O16   Ba2   2.944284 S    
C11   H23   1.106399 S    
O17   Ba2   2.811228 S    
Ba2   O20   2.854350 S    
P7    O21   1.580354 D    
C27   C35   1.559005 S    
C54   O28   1.397148 S    
C41   H46   1.083038 S    
Ba1   O13   2.807669 S    
C3    H5    1.109748 S    
O3    P6    1.728218 S    
C5    H11   1.110634 S    
C33   C35   1.433205 A    
C29   H41   1.069404 S    
C9    H20   1.112119 S    
O6    P6    1.743703 S    
C14   H30   1.110155 S    
C30   C31   1.384229 A    
C8    C9    1.531148 S    
P4    O13   1.581014 S    
O26   H62   1.005023 S    
P5    O18   1.543674 D    
C25   C38   1.565747 S    
C43   H50   1.050890 S    
P1    O5    1.747430 S    
O3    Ba1   2.781832 S    
C28   H40   1.082189 S    
P4    C18   1.893780 S    
C44   C46   1.397951 A    
C4    H7    1.104562 S    
N3    H57   1.046052 S    
P1    C24   1.852185 S    
C8    H17   1.108309 S    
C17   H36   1.080484 S    
N3    H56   1.045216 S    
C44   H51   1.082004 S    
P4    O12   1.519980 D    
C34   C38   1.442696 A    
C43   C50   1.380008 A    
O1    Ba1   2.883378 S    
P1    O2    1.580988 S    
O16   P7    1.780198 S    
C6    H13   1.110832 S    
Ba1   O20   2.945121 S    
P2    O10   1.763231 S    
C13   C14   1.519548 S    
C6    C7    1.517903 S    
P3    C46   1.842752 S    
H1    C10   1.111172 S    
C39   H44   1.071832 S    
O28   H63   1.011723 S    
C15   H32   1.110330 S    
C12   N3    1.450642 S    
C7    H16   1.107796 S    
C21   C22   1.397178 A    
O2    Ba1   2.947060 S    
C1    H3    1.107277 S    
C36   C39   1.421217 A    
C45   H48   1.078407 S    
C29   C34   1.419596 A    
P5    C51   1.864918 S    
C48   C52   1.427644 A    
C14   H29   1.109839 S    
C16   H35   1.110186 S    
P2    O7    1.523341 D    
C3    H6    1.101865 S    
P2    Ba1   3.459759 S    
N5    H61   1.043550 S    
C31   H42   1.083774 S    
C19   C20   1.397638 A    
C9    H19   1.111844 S    
C5    H9    1.107596 S    
C21   C27   1.418474 A    
O13   Ba2   2.947898 S    
C48   C49   1.432715 A    
C15   O24   1.410242 S    
C11   N2    1.455029 S    
C4    O15   1.399796 S    
C37   C38   1.435706 A    
C7    H15   1.106521 S    
C23   C27   1.437750 A    
P8    O24   1.746607 S    
Ba1   O16   2.854941 S    
C14   H28   1.109926 S    
Ba2   O21   2.916444 S    
C23   C24   1.419505 A    
O8    Ba1   2.810622 S    
N1    H53   1.046139 S    
C31   C32   1.383621 A    
P2    C47   1.858874 S    
C19   C25   1.424435 A    
C20   C26   1.383492 A    
C6    H12   1.104180 S    
Ba1   Ba2   4.579268 S    
P3    O8    1.747060 S    
C49   C50   1.414330 A    
C53   O25   1.207991 D    
N2    H54   1.040075 S    
C11   O22   1.409729 S    
C10   H21   1.111937 S    
O19   C13   1.401860 S    
C26   C53   1.436849 S    
C21   H38   1.079849 S    
C1    C10   1.518916 S    
C13   H26   1.112467 S    
C17   C25   1.444671 A    
C18   C26   1.388809 A    
N1    H52   1.045383 S    
P8    C20   1.857646 S    
C12   H24   1.110858 S    
P2    O20   1.608531 S    
P4    Ba2   3.446844 S    
H33   C16   1.109540 S    
P3    O9    1.541443 D    
C29   C30   1.396957 A    
C52   H49   1.077216 S    
C45   C49   1.408404 A    
N5    H60   1.035118 S    
C7    H14   1.104320 S    
C1    H22   1.107300 S    
C19   H37   1.079655 S    
C35   C36   1.438421 A    
O6    C10   1.407559 S    
C24   C28   1.382740 A    
C2    C3    1.548101 S    
