data_mof_unit_17315.cif
_audit_creation_date              2013-03-05T16:45:09-0500
_audit_creation_method            fapswitch 2.2
_symmetry_space_group_name_H-M    P1
_symmetry_Int_Tables_number       1
_space_group_crystal_system       triclinic
_cell_length_a                    15.005051
_cell_length_b                    15.127503
_cell_length_c                    9.907851
_cell_angle_alpha                 90.03501
_cell_angle_beta                  90.220968
_cell_angle_gamma                 89.859757
_cell_volume                      2248.94886601

loop_
_atom_site_label
_atom_site_type_symbol
_atom_site_description
_atom_site_fract_x
_atom_site_fract_y
_atom_site_fract_z
_atom_type_partial_charge
O1    O     O_R   0.408400 0.908380 0.614690 -0.613614
O2    O     O_R   0.408400 0.091620 0.614690 -0.615294
O3    O     O_R   0.908400 0.408380 0.614690 -0.615102
O4    O     O_R   0.908400 0.591620 0.614690 -0.615304
O5    O     O_R   0.408370 0.908370 0.385350 -0.622188
O6    O     O_R   0.408370 0.091630 0.385350 -0.616762
O7    O     O_R   0.908370 0.408370 0.385350 -0.622229
O8    O     O_R   0.908370 0.591630 0.385350 -0.617907
C1    C     C_R   0.381857 0.878213 0.499941 0.874157
C2    C     C_R   0.379573 0.119211 0.499709 0.875691
C3    C     C_R   0.879968 0.380271 0.499889 0.872959
C4    C     C_R   0.877374 0.617219 0.499963 0.879751
Zn1   Zn    Zn3+2 0.500010 1.000000 0.653130 0.937734
Zn2   Zn    Zn3+2 0.000010 0.500000 0.653130 0.935846
Zn3   Zn    Zn3+2 0.499980 1.000000 0.346870 0.936970
Zn4   Zn    Zn3+2 0.999980 0.500000 0.346870 0.939183
O9    O     O_R   0.591610 0.091610 0.614650 -0.619238
O10   O     O_R   0.591610 0.908390 0.614650 -0.626112
O11   O     O_R   0.091610 0.591610 0.614650 -0.626645
O12   O     O_R   0.091610 0.408390 0.614650 -0.622007
O13   O     O_R   0.591590 0.091600 0.385310 -0.621917
O14   O     O_R   0.591590 0.908400 0.385310 -0.625368
O15   O     O_R   0.091590 0.591600 0.385310 -0.621348
O16   O     O_R   0.091590 0.408400 0.385310 -0.621054
C5    C     C_R   0.620908 0.118613 0.500186 0.874320
C6    C     C_R   0.617985 0.878019 0.500111 0.868797
C7    C     C_R   0.122135 0.617730 0.500155 0.873302
C8    C     C_R   0.120116 0.380729 0.499750 0.871081
C9    C     C_R   0.226445 0.164216 0.533593 0.110146
C10   C     C_R   0.292630 0.771710 0.622747 0.146453
C11   C     C_R   0.768514 0.704030 0.622967 0.125915
C12   C     C_R   0.758750 0.304468 0.608892 0.132357
C13   C     C_R   0.313218 0.184971 0.496513 -0.078714
C14   C     C_R   0.326181 0.802552 0.500755 -0.104222
C15   C     C_R   0.800225 0.671381 0.500827 -0.106610
C16   C     C_R   0.817446 0.310769 0.501016 -0.093939
C17   C     C_R   0.332459 0.266453 0.436647 -0.221708
C18   C     C_R   0.307953 0.756865 0.380623 -0.229224
C19   C     C_R   0.755219 0.690859 0.380157 -0.232623
C20   C     C_R   0.819431 0.245906 0.400087 -0.229669
H1    H     H_    0.398095 0.280425 0.396739 0.145859
H2    H     H_    0.338509 0.775233 0.285827 0.170373
H3    H     H_    0.774062 0.660877 0.285096 0.167238
H4    H     H_    0.868151 0.247760 0.319681 0.163438
C21   C     C_R   0.690884 0.756436 0.380234 -0.227514
C22   C     C_R   0.755638 0.180012 0.400705 -0.225148
C23   C     C_R   0.267712 0.331965 0.436595 -0.222386
C24   C     C_R   0.243513 0.691638 0.380836 -0.229946
H5    H     H_    0.660684 0.775808 0.285227 0.172189
H6    H     H_    0.754671 0.131370 0.320364 0.157532
H7    H     H_    0.282947 0.396863 0.396643 0.143404
H8    H     H_    0.225188 0.660666 0.286123 0.169379
C25   C     C_R   0.672818 0.801536 0.500900 -0.100376
C26   C     C_R   0.691220 0.180117 0.502455 -0.092505
C27   C     C_R   0.185358 0.314296 0.496371 -0.074083
C28   C     C_R   0.198207 0.673194 0.501156 -0.105248
C29   C     C_R   0.705564 0.769157 0.622918 0.141719
C30   C     C_R   0.696060 0.239099 0.609535 0.121689
C31   C     C_R   0.162566 0.228856 0.533058 0.114160
C32   C     C_R   0.229130 0.707374 0.622977 0.121833
C33   C     C_3   0.748784 0.816604 0.738262 -0.500210
C34   C     C_3   0.624465 0.298993 0.660308 -0.478977
C35   C     C_3   0.119043 0.195013 0.657639 -0.482277
C36   C     C_3   0.179004 0.749378 0.736389 -0.477795
C37   C     C_3   0.190345 0.123639 0.659347 -0.507221
C38   C     C_3   0.249440 0.821013 0.735922 -0.492204
C39   C     C_3   0.818085 0.743679 0.739262 -0.471985
C40   C     C_3   0.693223 0.371889 0.658251 -0.505693
H9    H     H_    0.776731 0.881694 0.708432 0.196841
H10   H     H_    0.602738 0.280784 0.763769 0.206469
H11   H     H_    0.123950 0.241780 0.743965 0.212218
H12   H     H_    0.180371 0.708096 0.829190 0.206634
H13   H     H_    0.706310 0.817246 0.829958 0.211673
H14   H     H_    0.569523 0.308843 0.586047 0.196709
H15   H     H_    0.051106 0.169010 0.637060 0.201215
H16   H     H_    0.111856 0.773449 0.705471 0.201155
H17   H     H_    0.236285 0.130484 0.746118 0.213777
H18   H     H_    0.291389 0.821324 0.828657 0.205302
H19   H     H_    0.885893 0.766842 0.711502 0.201787
H20   H     H_    0.708990 0.396495 0.760806 0.205912
H21   H     H_    0.163693 0.056079 0.641860 0.195130
H22   H     H_    0.223293 0.886701 0.704270 0.193446
H23   H     H_    0.815122 0.701364 0.830850 0.201623
H24   H     H_    0.678843 0.424259 0.582363 0.200791
C41   C     C_R   0.424406 0.979535 0.070764 0.195660
C42   C     C_R   0.924870 0.522275 0.070576 0.202340
N1    N     N_R   0.499140 1.000000 0.142800 -0.124753
N2    N     N_R   0.999140 0.500000 0.142800 -0.124114
C43   C     C_R   0.576129 0.012463 0.073959 -0.138230
C44   C     C_R   0.076208 0.487364 0.073987 -0.139609
H25   H     H_    0.636664 0.024871 0.130610 0.151981
H26   H     H_    0.136764 0.474989 0.130724 0.153160
C45   C     C_R   0.576897 0.013174 0.930508 0.214740
C46   C     C_R   0.077115 0.487127 0.930419 0.208983
N3    N     N_R   0.499160 1.000000 0.857150 -0.108974
N4    N     N_R   0.999160 0.500000 0.857150 -0.109222
C47   C     C_R   0.424272 0.980029 0.928391 0.176948
C48   C     C_R   0.924877 0.522278 0.928429 0.177790
C49   C     C_3   0.339346 0.031176 0.924872 -0.523395
C50   C     C_3   0.837588 0.475954 0.922909 -0.521763
C51   C     C_3   0.338412 0.028350 0.077685 -0.483160
C52   C     C_3   0.837243 0.476509 0.076131 -0.495886
H27   H     H_    0.349729 0.099038 0.885286 0.215197
H28   H     H_    0.283919 0.993519 0.877824 0.199797
H29   H     H_    0.784620 0.518202 0.877718 0.197167
H30   H     H_    0.843702 0.408394 0.879694 0.220752
H31   H     H_    0.345085 0.094669 0.125055 0.224257
H32   H     H_    0.284079 0.986702 0.119131 0.199179
H33   H     H_    0.784320 0.519399 0.119426 0.193062
H34   H     H_    0.841995 0.409317 0.121093 0.221200
C53   C     C_3   0.663544 0.035109 0.863720 -0.850956
H35   H     H_    0.720868 0.023385 0.932800 0.194507
H36   H     H_    0.674772 0.993410 0.774413 0.271714
H37   H     H_    0.664125 0.106117 0.836076 0.247812
C54   C     C_3   0.164671 0.468135 0.863399 -0.834549
H38   H     H_    0.221180 0.476635 0.934989 0.191650
H39   H     H_    0.166466 0.398438 0.829139 0.246115
H40   H     H_    0.177037 0.514039 0.779181 0.268807

loop_
_geom_bond_atom_site_label_1
_geom_bond_atom_site_label_2
_geom_bond_distance
_ccdc_geom_bond_type
C30   C34   1.492284 S    
C49   H27   1.110730 S    
C35   C37   1.518207 S    
C51   H31   1.111903 S    
C27   C31   1.386853 A    
C53   H35   1.111130 S    
O10   C6    1.287434 A    
O3    C3    1.285733 A    
C12   C30   1.366517 A    
O7    C3    1.286607 A    
C50   H29   1.111632 S    
Zn1   O10   1.987235 S    
Zn1   N3    2.021490 S    
C17   H1    1.084025 S    
C12   C16   1.391028 A    
Zn3   N1    2.021887 S    
C3    C16   1.410891 S    
C18   H2    1.083436 S    
C24   H8    1.083441 S    
C42   N2    1.363766 A    
C54   H38   1.111030 S    
C9    C13   1.390927 A    
C34   H10   1.111895 S    
O8    Zn4   1.987548 S    
O2    Zn1   1.985658 S    
O6    Zn3   1.987548 S    
C37   H21   1.111630 S    
Zn3   O14   1.985448 S    
C9    C31   1.367593 A    
C54   H39   1.107747 S    
C10   C32   1.363675 A    
O15   C7    1.287392 A    
C17   C23   1.386106 A    
O11   C7    1.287719 A    
C18   C24   1.383206 A    
C19   C21   1.382506 A    
C51   H32   1.111598 S    
C49   H28   1.110179 S    
C21   C25   1.403160 A    
Zn4   O16   1.985448 S    
O4    Zn2   1.985658 S    
C53   H37   1.108773 S    
Zn2   N4    2.021490 S    
C47   C49   1.489500 S    
C8    C27   1.401724 S    
C44   C46   1.422571 A    
C41   N1    1.363088 A    
C38   H18   1.111749 S    
C37   H17   1.104835 S    
C10   C14   1.392325 A    
C40   H24   1.112719 S    
Zn2   O12   1.987235 S    
C16   C20   1.400899 A    
O1    C1    1.286940 A    
C5    C26   1.408487 S    
C25   C29   1.392059 A    
C7    C28   1.418314 S    
C19   H3    1.083354 S    
O12   C8    1.286982 A    
C33   H13   1.111803 S    
C13   C17   1.399456 A    
C28   C32   1.391239 A    
N4    C48   1.363316 A    
C36   C38   1.515596 S    
C15   C19   1.401966 A    
O5    C1    1.288573 A    
C38   H22   1.112305 S    
C33   C39   1.514167 S    
C44   H26   1.082611 S    
C21   H5    1.083375 S    
O8    C4    1.287763 A    
C54   H40   1.102456 S    
C22   C26   1.399330 A    
C50   C52   1.518148 S    
C36   H16   1.112459 S    
C39   H19   1.112515 S    
C53   H36   1.099631 S    
C39   H23   1.111904 S    
C4    C15   1.416647 S    
C46   N4    1.387683 A    
C10   C38   1.495265 S    
O3    Zn2   1.990026 S    
C45   C53   1.499124 S    
C9    C37   1.493444 S    
O7    Zn4   1.992561 S    
C49   C51   1.514799 S    
C35   H11   1.111983 S    
Zn4   O15   1.989814 S    
C48   C50   1.487778 S    
N1    C43   1.357433 A    
C1    C14   1.418721 S    
C11   C15   1.391887 A    
C52   H34   1.112047 S    
O4    C4    1.286216 A    
C20   C22   1.383725 A    
C40   H20   1.106839 S    
C42   C52   1.488695 S    
C6    C25   1.418086 S    
C41   C51   1.486930 S    
C23   C27   1.398805 A    
C26   C30   1.387631 A    
C33   H9    1.111784 S    
C24   C28   1.403105 A    
O13   C5    1.285462 A    
C14   C18   1.402338 A    
C50   H30   1.111556 S    
Zn2   O11   1.992245 S    
O16   C8    1.280633 A    
N2    C44   1.357753 A    
O6    C2    1.283321 A    
C23   H7    1.084002 S    
C46   C54   1.501380 S    
N3    C47   1.363899 A    
C29   C33   1.495767 S    
Zn1   O9    1.992245 S    
C22   H6    1.083756 S    
C31   C35   1.490222 S    
C12   C40   1.498100 S    
C32   C36   1.495130 S    
O9    C5    1.285140 A    
C11   C29   1.363195 A    
Zn3   O13   1.989814 S    
C35   H15   1.111643 S    
C2    C13   1.406027 S    
C34   C40   1.512163 S    
C36   H12   1.111895 S    
C43   C45   1.421423 A    
C42   C48   1.408373 A    
O5    Zn3   1.992561 S    
C41   C47   1.410628 A    
C11   C39   1.495120 S    
C20   H4    1.083735 S    
O1    Zn1   1.990027 S    
C45   N3    1.386733 A    
C43   H25   1.082637 S    
O14   C6    1.287676 A    
Zn4   N2    2.021887 S    
C34   H14   1.112684 S    
C52   H33   1.111466 S    
O2    C2    1.286468 A    
