data_mof_unit_46067.cif
_audit_creation_date              2013-03-05T16:09:45-0500
_audit_creation_method            fapswitch 2.2
_symmetry_space_group_name_H-M    P1
_symmetry_Int_Tables_number       1
_space_group_crystal_system       triclinic
_cell_length_a                    12.849704
_cell_length_b                    10.706377
_cell_length_c                    9.90109
_cell_angle_alpha                 89.791794
_cell_angle_beta                  96.822756
_cell_angle_gamma                 91.163268
_cell_volume                      1352.20450816

loop_
_atom_site_label
_atom_site_type_symbol
_atom_site_description
_atom_site_fract_x
_atom_site_fract_y
_atom_site_fract_z
_atom_type_partial_charge
O1    O     O_R   0.499990 0.316750 0.614620 -0.570212
O2    O     O_R   0.500010 0.683250 0.385380 -0.570206
O3    O     O_R   0.499990 0.316780 0.385290 -0.613671
O4    O     O_R   0.500010 0.683220 0.614710 -0.613675
C1    C     C_R   0.500131 0.260092 0.500159 0.909777
C2    C     C_R   0.499869 0.739908 0.499841 0.909787
O5    O     O_R   0.346360 0.499970 0.595710 -0.596845
O6    O     O_R   0.653640 0.500030 0.404290 -0.596844
O7    O     O_R   0.346360 0.499990 0.366380 -0.556017
O8    O     O_R   0.653640 0.500010 0.633620 -0.556019
C3    C     C_R   0.298571 0.504212 0.473444 0.935614
C4    C     C_R   0.701429 0.495789 0.526556 0.935598
Zn1   Zn    Zn3+2 0.500000 0.499980 0.653120 1.090889
Zn2   Zn    Zn3+2 0.500000 0.500020 0.346880 1.090890
C5    C     C_R   0.813227 0.485751 0.542256 -0.170456
C6    C     C_R   0.186773 0.514256 0.457745 -0.170451
C7    C     C_R   0.024026 0.593401 0.347577 -0.189856
C8    C     C_R   0.975974 0.406611 0.652429 -0.189859
C9    C     C_R   0.132305 0.585622 0.352745 0.315081
C10   C     C_R   0.867696 0.414394 0.647262 0.315089
C11   C     C_R   0.134229 0.453717 0.555187 -0.222174
C12   C     C_R   0.865771 0.546287 0.444814 -0.222171
C13   C     C_R   0.027697 0.464988 0.552321 0.102500
C14   C     C_R   0.972303 0.535019 0.447682 0.102499
H1    H     H_    0.823377 0.601928 0.365664 0.222009
H2    H     H_    0.176623 0.398073 0.634334 0.222007
H3    H     H_    0.980796 0.648422 0.268420 0.204595
H4    H     H_    0.019205 0.351593 0.731591 0.204589
C15   C     C_R   0.529016 0.065149 0.387186 -0.107698
C16   C     C_R   0.470984 0.934851 0.612814 -0.107697
H5    H     H_    0.552679 0.114864 0.299970 0.198304
H6    H     H_    0.447321 0.885136 0.700030 0.198305
C17   C     C_R   0.528031 0.937175 0.386526 -0.107924
C18   C     C_R   0.471970 0.062825 0.613475 -0.107926
H7    H     H_    0.550468 0.889446 0.298608 0.216804
H8    H     H_    0.449533 0.110554 0.701392 0.216804
C19   C     C_R   0.499412 0.872433 0.499541 -0.034220
C20   C     C_R   0.500588 0.127567 0.500459 -0.034223
C21   C     C_R   0.565862 0.578407 0.081146 0.326851
C22   C     C_R   0.434138 0.421593 0.918854 0.326848
C23   C     C_R   0.566216 0.577976 0.937601 0.236270
C24   C     C_R   0.433783 0.422025 0.062398 0.236264
N1    N     N_R   0.499970 0.499970 0.857200 -0.206256
N2    N     N_R   0.500030 0.500030 0.142800 -0.206256
N3    N     N_R   0.814626 0.344231 0.743450 0.231787
O9    O     O_R   0.856407 0.335932 0.869406 -0.309252
O10   O     O_R   0.735367 0.271168 0.701168 -0.380094
N4    N     N_R   0.185375 0.655800 0.256567 0.231789
O11   O     O_R   0.143580 0.664151 0.130624 -0.309262
O12   O     O_R   0.264651 0.728831 0.298859 -0.380104
Cl1   Cl    Cl    0.651169 0.682168 0.179162 -0.535520
Cl2   Cl    Cl    0.348831 0.317832 0.820838 -0.535522
N5    N     N_R   0.637282 0.658847 0.876996 0.264701
O13   O     O_R   0.733273 0.623999 0.873352 -0.308312
O14   O     O_R   0.615484 0.776421 0.860843 -0.346655
N6    N     N_R   0.362714 0.341157 0.123003 0.264702
O15   O     O_R   0.266722 0.376007 0.126638 -0.308326
O16   O     O_R   0.384511 0.223584 0.139165 -0.346651

loop_
_geom_bond_atom_site_label_1
_geom_bond_atom_site_label_2
_geom_bond_distance
_ccdc_geom_bond_type
C15   C20   1.396615 A    
C16   H6    1.083472 S    
C13   C14   1.408196 A    
C6    C11   1.392555 A    
C15   C17   1.369976 A    
C23   N1    1.367766 A    
C3    C6    1.432680 S    
C8    C10   1.390386 A    
C10   N3    1.436885 S    
C4    C5    1.432677 S    
O6    C4    1.291792 A    
O7    Zn2   2.006338 S    
C24   N6    1.427574 S    
Zn1   N1    2.020660 S    
N4    O12   1.301191 A    
C2    C19   1.418991 S    
C8    H4    1.084597 S    
C15   H5    1.083472 S    
C18   C20   1.396276 A    
N5    O13   1.300485 A    
O5    C3    1.291789 A    
O7    C3    1.288012 A    
C23   N5    1.427575 S    
C21   N2    1.372046 A    
O3    Zn2   1.997000 S    
C24   N2    1.367767 A    
C6    C9    1.413335 A    
O1    C1    1.287573 A    
O8    C4    1.288009 A    
C22   C24   1.421816 A    
N4    O11   1.301303 A    
C17   H7    1.082043 S    
C11   H2    1.083568 S    
N6    O16   1.300305 A    
C18   H8    1.082044 S    
N5    O14   1.300306 A    
C11   C13   1.373575 A    
C5    C10   1.413324 A    
O2    Zn2   1.999776 S    
C12   C14   1.373577 A    
C7    C14   1.396409 A    
O1    Zn1   1.999775 S    
C16   C18   1.369976 A    
C8    C13   1.396408 A    
C7    H3    1.084592 S    
N3    O9    1.301319 A    
O5    Zn1   1.988479 S    
C1    C20   1.418991 S    
N6    O15   1.300489 A    
C21   C23   1.421816 A    
Zn2   N2    2.020660 S    
O4    C2    1.287014 A    
C5    C12   1.392546 A    
N3    O10   1.301205 A    
O4    Zn1   1.997000 S    
C9    N4    1.436896 S    
O6    Zn2   1.988478 S    
C7    C9    1.390382 A    
C21   Cl1   1.755895 S    
C22   Cl2   1.755894 S    
C12   H1    1.083567 S    
C22   N1    1.372045 A    
C17   C19   1.396276 A    
O2    C2    1.287574 A    
C16   C19   1.396615 A    
O3    C1    1.287013 A    
O8    Zn1   2.006338 S    
