data_mof_unit_37393.cif
_audit_creation_date              2012-12-11T15:45:02-0500
_audit_creation_method            fapswitch 2.2
_symmetry_space_group_name_H-M    P1
_symmetry_Int_Tables_number       1
_space_group_crystal_system       triclinic
_cell_length_a                    6.928927
_cell_length_b                    16.840544
_cell_length_c                    17.062929
_cell_angle_alpha                 100.419831
_cell_angle_beta                  87.900252
_cell_angle_gamma                 91.918533
_cell_volume                      1956.14097435

loop_
_atom_site_label
_atom_site_type_symbol
_atom_type_description
_atom_site_fract_x
_atom_site_fract_y
_atom_site_fract_z
_atom_type_partial_charge
O1    O     O_R   0.494370 0.415690 0.413450 -0.536812
O2    O     O_R   0.819420 0.429360 0.578420 -0.534742
O3    O     O_R   0.994280 0.584310 0.586550 -0.544495
C1    C     C_R   0.645581 0.412935 0.604495 0.725232
O4    O     O_R   0.823790 0.406230 0.413570 -0.533093
O5    O     O_R   0.998670 0.561000 0.420530 -0.539810
C2    C     C_R   0.654935 0.381888 0.386232 0.722968
O6    O     O_R   0.489970 0.439000 0.579470 -0.544087
O7    O     O_3   0.662300 0.550810 0.502470 -0.376454
V1    V     V_3+5 0.935380 0.490570 0.499540 1.447275
O8    O     O_R   0.328650 0.570640 0.421580 -0.545430
C3    C     C_R   0.164899 0.587023 0.395046 0.696874
O9    O     O_R   0.324290 0.593770 0.586430 -0.545792
C4    C     C_R   0.154872 0.616967 0.615106 0.677891
V2    V     V_3+5 0.435930 0.509430 0.500460 1.414301
O10   O     O_3   0.159140 0.449190 0.497530 -0.359419
C5    C     C_R   0.312457 0.723590 0.717651 -0.154320
H1    H     H_    0.453635 0.704241 0.693858 0.116325
C6    C     C_R   0.301450 0.787370 0.782774 -0.150620
H2    H     H_    0.434637 0.815309 0.806994 0.117658
C7    C     C_R   0.121342 0.814715 0.816005 -0.044222
C8    C     C_R   0.952557 0.776500 0.782223 -0.154867
C9    C     C_R   0.963564 0.712723 0.717101 -0.151348
H3    H     H_    0.830372 0.684783 0.692887 0.116938
C10   C     C_R   0.143668 0.685373 0.683873 -0.044666
C11   C     C_R   0.175725 0.641234 0.334526 -0.069785
C12   C     C_R   0.089060 0.858058 0.164907 -0.075757
C13   C     C_R   0.891759 0.795339 0.260470 -0.201254
C14   C     C_R   0.913457 0.849876 0.207741 -0.118514
C15   C     C_R   0.243847 0.809841 0.176568 -0.236936
C16   C     C_R   0.221313 0.753369 0.228598 0.162609
C17   C     C_R   0.043730 0.745971 0.270894 0.155635
C18   C     C_R   0.021304 0.689710 0.323107 -0.232631
C19   C     C_R   0.350721 0.648706 0.291073 -0.165161
C20   C     C_R   0.372839 0.703575 0.238638 -0.196886
H4    H     H_    0.886014 0.685248 0.356212 0.123743
H5    H     H_    0.755075 0.791337 0.292625 0.128929
H6    H     H_    0.509220 0.707290 0.206197 0.118013
H7    H     H_    0.790619 0.885523 0.200132 0.165599
H8    H     H_    0.379350 0.814545 0.143677 0.122589
C21   C     C_R   0.616641 0.358615 0.664078 -0.070031
C22   C     C_R   0.648043 0.141113 0.835621 -0.068347
C23   C     C_R   0.865709 0.198223 0.742814 -0.189151
C24   C     C_R   0.828661 0.144174 0.795102 -0.160893
C25   C     C_R   0.503569 0.193070 0.821586 -0.237696
C26   C     C_R   0.540844 0.248318 0.769474 0.160447
C27   C     C_R   0.723641 0.251166 0.729940 0.151872
C28   C     C_R   0.760969 0.306488 0.677899 -0.204384
C29   C     C_R   0.435941 0.355451 0.704504 -0.165326
C30   C     C_R   0.398769 0.301260 0.756622 -0.197098
H9    H     H_    0.900291 0.307640 0.646992 0.139943
H10   H     H_    0.321484 0.394852 0.695564 0.129338
H11   H     H_    0.006166 0.198873 0.712809 0.127476
H12   H     H_    0.943159 0.104830 0.804130 0.131690
H13   H     H_    0.364207 0.191915 0.852457 0.123039
C31   C     C_R   0.777506 0.247146 0.311567 -0.068742
C32   C     C_R   0.766155 0.182340 0.245639 -0.056550
C33   C     C_R   0.621133 0.180630 0.188345 -0.129129
C34   C     C_R   0.487563 0.242712 0.199412 -0.094160
H14   H     H_    0.375117 0.242653 0.156934 0.135282
C35   C     C_R   0.499379 0.306691 0.263935 -0.113313
H15   H     H_    0.395509 0.354202 0.269332 0.126827
C36   C     C_R   0.644596 0.310747 0.319974 -0.132667
O11   O     O_R   0.774880 0.061150 0.920630 -0.543910
O12   O     O_R   0.440980 0.093710 0.086500 -0.532872
O13   O     O_R   0.266190 0.938890 0.079390 -0.538621
C37   C     C_R   0.609291 0.115085 0.116676 0.719672
O14   O     O_R   0.445420 0.070740 0.921670 -0.542921
O15   O     O_R   0.270660 0.915760 0.913380 -0.543553
C38   C     C_R   0.619225 0.087047 0.895464 0.693506
O16   O     O_R   0.770400 0.084270 0.086640 -0.532386
O17   O     O_3   0.602590 0.949210 0.997500 -0.374118
V3    V     V_3+5 0.329470 0.009420 0.000470 1.429874
O18   O     O_R   0.940650 0.906250 0.913470 -0.546941
C39   C     C_R   0.110097 0.883094 0.884796 0.675232
O19   O     O_R   0.936210 0.929220 0.078300 -0.537366
C40   C     C_R   0.099976 0.912573 0.104629 0.716117
V4    V     V_3+5 0.828930 0.990510 0.999490 1.434259
O20   O     O_3   0.105680 0.050790 0.002500 -0.363473
H16   H     H_    0.258279 0.300573 0.786595 0.117541
C41   C     C_2   0.917852 0.244693 0.374799 0.781477
O21   O     O_2   0.859597 0.244746 0.443346 -0.565003
O22   O     O_R   0.115903 0.243572 0.356180 -0.642560
H17   H     H_    0.196648 0.242812 0.404391 0.302714
C42   C     C_2   0.894777 0.112984 0.240951 0.779829
O23   O     O_2   0.826793 0.047507 0.250870 -0.577213
O24   O     O_R   0.092176 0.122344 0.224031 -0.637544
H18   H     H_    0.164664 0.070785 0.222629 0.292870
H19   H     H_    0.811375 0.795843 0.806016 0.115754
H20   H     H_    0.472504 0.612125 0.297934 0.125738

loop_
_geom_bond_atom_site_label_1
_geom_bond_atom_site_label_2
_ccdc_geom_bond_type
O24   H18   S    
C12   C14   A    
C6    H2    S    
C1    O6    A    
C41   O21   D    
C31   C41   S    
C42   O23   D    
O22   H17   S    
C13   C14   A    
C6    C7    A    
O19   V4    S    
O5    C3    A    
C15   C16   A    
C1    C21   S    
V2    O10   S    
C22   C38   S    
C18   H4    S    
O12   V3    S    
C31   C32   A    
C19   C20   A    
C35   C36   A    
O17   V4    S    
O8    V2    S    
C11   C19   A    
C28   H9    S    
C27   C28   A    
O12   C37   A    
C9    H3    S    
O15   V3    S    
O1    V2    S    
O11   C38   A    
O7    V1    S    
O14   V3    S    
C34   H14   S    
O9    C4    A    
C12   C15   A    
C22   C24   A    
C21   C29   A    
C41   O22   S    
C23   H11   S    
C42   O24   S    
C34   C35   A    
O18   C39   A    
C13   C17   A    
C20   H6    S    
O19   C40   A    
O4    C2    A    
V4    O20   S    
C33   C34   A    
C25   C26   A    
O13   V3    S    
C3    C11   S    
C22   C25   A    
O2    C1    A    
C23   C24   A    
C19   H20   S    
C11   C18   A    
C16   C17   A    
C29   H10   S    
C14   H7    S    
C5    H1    S    
V3    O20   S    
C31   C36   A    
C15   H8    S    
C2    C36   S    
O3    C4    A    
O6    V2    S    
O9    V2    S    
C21   C28   A    
C16   C20   A    
O2    V1    S    
O13   C40   A    
C26   C30   A    
C26   C27   A    
O1    C2    A    
O11   V4    S    
O17   V3    S    
C12   C40   S    
C30   H16   S    
O5    V1    S    
O8    C3    A    
C7    C39   S    
C5    C10   A    
C17   C18   A    
O7    V2    S    
O4    V1    S    
O3    V1    S    
V1    O10   S    
C32   C33   A    
C13   H5    S    
C5    C6    A    
C8    H19   S    
C32   C42   S    
O15   C39   A    
C37   O16   A    
C9    C10   A    
C4    C10   S    
C35   H15   S    
C24   H12   S    
C33   C37   S    
C25   H13   S    
O14   C38   A    
C29   C30   A    
O18   V4    S    
C8    C9    A    
C7    C8    A    
C23   C27   A    
O16   V4    S    
