data_mof_unit_5983.cif
_audit_creation_date              2012-12-10T17:56:17-0500
_audit_creation_method            fapswitch 2.2
_symmetry_space_group_name_H-M    P1
_symmetry_Int_Tables_number       1
_space_group_crystal_system       triclinic
_cell_length_a                    12.969329
_cell_length_b                    10.8128
_cell_length_c                    9.586673
_cell_angle_alpha                 89.437847
_cell_angle_beta                  95.566773
_cell_angle_gamma                 92.26101
_cell_volume                      1336.97852874

loop_
_atom_site_label
_atom_site_type_symbol
_atom_type_description
_atom_site_fract_x
_atom_site_fract_y
_atom_site_fract_z
_atom_type_partial_charge
C1    C     C_R   0.502021 0.262606 0.500504 0.781954
C2    C     C_R   0.497979 0.737394 0.499495 0.781954
C3    C     C_R   0.496434 0.871318 0.499419 -0.077028
C4    C     C_R   0.503566 0.128682 0.500581 -0.077028
C5    C     C_R   0.434135 0.423062 0.068830 -0.059042
C6    C     C_R   0.565865 0.576938 0.931170 -0.059042
C7    C     C_R   0.433344 0.421756 0.920998 0.308862
C8    C     C_R   0.566656 0.578244 0.079002 0.308862
C9    C     C_R   0.301004 0.504492 0.473949 0.803415
C10   C     C_R   0.698996 0.495508 0.526051 0.803415
C11   C     C_R   0.811304 0.485161 0.541160 -0.048521
C12   C     C_R   0.188696 0.514839 0.458840 -0.048521
C13   C     C_R   0.029520 0.596036 0.346306 -0.184175
C14   C     C_R   0.970480 0.403964 0.653694 -0.184175
C15   C     C_R   0.137083 0.587025 0.351224 0.147503
C16   C     C_R   0.862917 0.412975 0.648775 0.147504
C17   C     C_R   0.132633 0.454680 0.558708 -0.288348
C18   C     C_R   0.867366 0.545320 0.441292 -0.288348
C19   C     C_R   0.025913 0.464500 0.553454 0.127617
C20   C     C_R   0.974087 0.535500 0.446546 0.127617
C21   C     C_R   0.558690 0.065325 0.405452 -0.014962
C22   C     C_R   0.441310 0.934675 0.594548 -0.014961
C23   C     C_R   0.554156 0.936957 0.405313 -0.230367
C24   C     C_R   0.445844 0.063043 0.594687 -0.230368
Cu1   Cu    Cu3+1 0.500000 0.500020 0.640660 0.952021
Cu2   Cu    Cu3+1 0.500000 0.499980 0.359340 0.952021
H1    H     H_    0.827684 0.600581 0.359377 0.149165
H2    H     H_    0.172316 0.399419 0.640623 0.149165
H3    H     H_    0.988882 0.650963 0.264812 0.136475
H4    H     H_    0.011118 0.349037 0.735188 0.136475
H5    H     H_    0.597806 0.887999 0.333925 0.146201
H6    H     H_    0.402194 0.112001 0.666075 0.146202
H7    H     H_    0.381753 0.361692 0.120786 0.143769
H8    H     H_    0.618246 0.638308 0.879214 0.143769
N1    N     N_R   0.500030 0.500030 0.852080 -0.175300
N2    N     N_R   0.499970 0.499970 0.147920 -0.175300
O1    O     O_R   0.499990 0.319660 0.618740 -0.588301
O2    O     O_R   0.500010 0.680340 0.381260 -0.588301
O3    O     O_R   0.499990 0.319630 0.381170 -0.571798
O4    O     O_R   0.500010 0.680370 0.618830 -0.571797
O5    O     O_R   0.349000 0.499990 0.599490 -0.578439
O6    O     O_R   0.651000 0.500010 0.400510 -0.578439
O7    O     O_R   0.348990 0.499960 0.361920 -0.584302
O8    O     O_R   0.651010 0.500040 0.638080 -0.584303
C25   C     C_3   0.805516 0.341509 0.755169 -0.803023
H9    H     H_    0.857547 0.280768 0.821445 0.219390
H10   H     H_    0.772086 0.406425 0.825969 0.247624
H11   H     H_    0.742802 0.281596 0.701014 0.231767
C26   C     C_3   0.194484 0.658491 0.244832 -0.803023
H12   H     H_    0.142453 0.719232 0.178555 0.219389
H13   H     H_    0.257198 0.718404 0.298986 0.231767
H14   H     H_    0.227914 0.593576 0.174031 0.247624
C27   C     C_1   0.623424 0.129083 0.310895 0.246025
N3    N     N_1   0.675239 0.180141 0.235251 -0.274325
C28   C     C_1   0.376576 0.870917 0.689106 0.246025
N4    N     N_1   0.324762 0.819859 0.764751 -0.274325
C29   C     C_3   0.356183 0.330005 0.848816 -0.834792
H15   H     H_    0.354986 0.325822 0.735236 0.272618
H16   H     H_    0.372744 0.235635 0.889686 0.202054
H17   H     H_    0.276921 0.352259 0.872760 0.196264
C30   C     C_3   0.643817 0.669995 0.151184 -0.834792
H18   H     H_    0.645014 0.674178 0.264764 0.272618
H19   H     H_    0.723079 0.647741 0.127240 0.196264
H20   H     H_    0.627256 0.764365 0.110314 0.202054

loop_
_geom_bond_atom_site_label_1
_geom_bond_atom_site_label_2
_ccdc_geom_bond_type
C16   C25   S    
C12   C17   A    
C30   H20   S    
C28   N4    T    
C24   H6    S    
C11   C18   A    
C22   C28   S    
C10   O6    A    
C11   C16   A    
C2    O2    A    
C9    O5    A    
C19   C20   A    
C12   C15   A    
C1    O1    A    
C8    C30   S    
C26   H14   S    
C1    C4    S    
C22   C24   A    
C15   C26   S    
C2    C3    S    
Cu1   O4    S    
Cu1   O5    S    
C25   H9    S    
C21   C27   S    
C4    C21   A    
C29   H15   S    
C7    N1    A    
C14   H4    S    
C14   C19   A    
Cu1   O8    S    
C13   H3    S    
C17   C19   A    
Cu1   N1    S    
Cu2   O7    S    
C18   C20   A    
C25   H10   S    
C13   C15   A    
C30   H18   S    
C4    C24   A    
C9    C12   S    
C14   C16   A    
Cu2   O3    S    
C29   H16   S    
C9    O7    A    
C10   C11   S    
C1    O3    A    
C10   O8    A    
C5    N2    A    
C2    O4    A    
C6    N1    A    
Cu2   O6    S    
C30   H19   S    
C26   H12   S    
C8    N2    A    
C25   H11   S    
Cu2   N2    S    
C5    C7    A    
C26   H13   S    
Cu2   O2    S    
C29   H17   S    
C6    C8    A    
C13   C20   A    
Cu1   O1    S    
Cu1   Cu2   S    
C27   N3    T    
C17   H2    S    
C3    C23   A    
C21   C23   A    
C7    C29   S    
C18   H1    S    
C6    H8    S    
C5    H7    S    
C3    C22   A    
C23   H5    S    
