data_mof_unit_61449.cif
_audit_creation_date              2012-12-10T18:47:59-0500
_audit_creation_method            fapswitch 2.2
_symmetry_space_group_name_H-M    P1
_symmetry_Int_Tables_number       1
_space_group_crystal_system       triclinic
_cell_length_a                    19.463434
_cell_length_b                    18.148245
_cell_length_c                    14.357515
_cell_angle_alpha                 89.999959
_cell_angle_beta                  90.211483
_cell_angle_gamma                 89.998645
_cell_volume                      5071.42982579

loop_
_atom_site_label
_atom_site_type_symbol
_atom_type_description
_atom_site_fract_x
_atom_site_fract_y
_atom_site_fract_z
_atom_type_partial_charge
C1    C     C_R   0.367509 0.500001 0.499859 0.784626
C2    C     C_R   0.632491 0.499999 0.500141 0.784627
C3    C     C_R   0.964462 0.548787 0.557775 -0.177527
C4    C     C_R   0.035539 0.451213 0.442228 -0.177527
C5    C     C_R   0.036011 0.548807 0.557560 -0.176198
C6    C     C_R   0.963989 0.451193 0.442443 -0.176198
C7    C     C_R   0.072102 0.500020 0.499784 0.098170
C8    C     C_R   0.927898 0.499979 0.500219 0.098170
C9    C     C_R   0.454891 0.720976 0.444621 0.088391
C10   C     C_R   0.545109 0.279023 0.555379 0.088391
C11   C     C_R   0.545109 0.720974 0.555380 0.088352
C12   C     C_R   0.454891 0.279026 0.444620 0.088353
C13   C     C_R   0.454047 0.798319 0.443541 -0.286403
C14   C     C_R   0.545953 0.201681 0.556458 -0.286403
C15   C     C_R   0.545953 0.798316 0.556459 -0.286417
C16   C     C_R   0.454047 0.201683 0.443541 -0.286417
C17   C     C_R   0.500000 0.838458 0.500000 0.112271
C18   C     C_R   0.500000 0.161542 0.500000 0.112271
C19   C     C_R   0.512353 0.961303 0.582459 -0.178220
C20   C     C_R   0.487647 0.038697 0.417541 -0.178220
C21   C     C_R   0.487647 0.961303 0.417541 -0.178126
C22   C     C_R   0.512353 0.038696 0.582459 -0.178127
C23   C     C_R   0.500000 0.078710 0.500000 0.119412
C24   C     C_R   0.500000 0.921290 0.500000 0.119412
C25   C     C_R   0.499960 0.500000 0.330855 0.820117
C26   C     C_R   0.500040 0.500000 0.669145 0.820116
C27   C     C_1   0.499958 0.500000 0.228598 -0.204959
C28   C     C_1   0.500042 0.500000 0.771402 -0.204960
C29   C     C_1   0.499968 0.500000 0.143251 -0.010923
C30   C     C_1   0.500032 0.500000 0.856749 -0.010923
C31   C     C_1   0.499989 0.500000 0.042674 0.000298
C32   C     C_1   0.500010 0.500000 0.957326 0.000298
C33   C     C_R   0.744354 0.433182 0.500535 -0.186592
C34   C     C_R   0.255646 0.566818 0.499464 -0.186590
C35   C     C_R   0.255642 0.433197 0.499698 -0.186824
C36   C     C_R   0.744358 0.566803 0.500306 -0.186824
C37   C     C_R   0.815906 0.433201 0.500518 -0.169761
C38   C     C_R   0.184093 0.566799 0.499483 -0.169761
C39   C     C_R   0.184089 0.433225 0.499646 -0.169470
C40   C     C_R   0.815911 0.566775 0.500358 -0.169469
C41   C     C_R   0.852234 0.499985 0.500394 0.107644
C42   C     C_R   0.147766 0.500015 0.499609 0.107644
C43   C     C_R   0.707978 0.499995 0.500333 -0.034392
C44   C     C_R   0.292022 0.500005 0.499668 -0.034392
Cu1   Cu    Cu3+1 0.500000 0.573360 0.500000 0.931825
Cu2   Cu    Cu3+1 0.500000 0.426640 0.500000 0.931824
H1    H     H_    0.717608 0.380849 0.500891 0.148131
H2    H     H_    0.282392 0.619151 0.499107 0.148130
H3    H     H_    0.282386 0.380860 0.500019 0.148268
H4    H     H_    0.717615 0.619139 0.499985 0.148268
H5    H     H_    0.937696 0.586170 0.603910 0.128208
H6    H     H_    0.062304 0.413829 0.396093 0.128208
H7    H     H_    0.063156 0.586199 0.603544 0.129069
H8    H     H_    0.936844 0.413801 0.396459 0.129068
H9    H     H_    0.419213 0.690746 0.401120 0.116001
H10   H     H_    0.580787 0.309254 0.598880 0.116001
H11   H     H_    0.580786 0.690742 0.598881 0.115792
H12   H     H_    0.419214 0.309258 0.401119 0.115792
H13   H     H_    0.416957 0.826346 0.399768 0.128157
H14   H     H_    0.583043 0.173654 0.600232 0.128157
H15   H     H_    0.583043 0.826342 0.600233 0.128002
H16   H     H_    0.416957 0.173658 0.399767 0.128002
H17   H     H_    0.520888 0.932796 0.647707 0.128781
H18   H     H_    0.479112 0.067204 0.352293 0.128781
H19   H     H_    0.479112 0.932797 0.352293 0.128833
H20   H     H_    0.520888 0.067203 0.647707 0.128833
N1    N     N_R   0.500000 0.683620 0.500000 -0.163080
N2    N     N_R   0.500000 0.316380 0.500000 -0.163080
O1    O     O_R   0.400190 0.561980 0.499990 -0.585455
O2    O     O_R   0.599810 0.438020 0.500010 -0.585455
O3    O     O_R   0.599810 0.561980 0.500010 -0.585411
O4    O     O_R   0.400190 0.438020 0.499990 -0.585411
O5    O     O_R   0.500000 0.561970 0.376060 -0.561946
O6    O     O_R   0.500000 0.438030 0.623940 -0.561946
O7    O     O_R   0.500000 0.561970 0.623940 -0.562098
O8    O     O_R   0.500000 0.438030 0.376060 -0.562098
H21   H     H_    0.842872 0.381005 0.501715 0.126641
H22   H     H_    0.157127 0.618996 0.498285 0.126641
H23   H     H_    0.157127 0.381031 0.500841 0.126814
H24   H     H_    0.842873 0.618968 0.499165 0.126813

loop_
_geom_bond_atom_site_label_1
_geom_bond_atom_site_label_2
_ccdc_geom_bond_type
C27   C29   T    
C14   C18   A    
Cu2   O8    S    
Cu1   Cu2   S    
Cu2   N2    S    
C12   N2    A    
C4    H6    S    
C5    H7    S    
C38   C42   A    
Cu1   O3    S    
Cu1   O5    S    
C7    C42   S    
C9    C13   A    
C22   H20   S    
C11   C15   A    
C12   C16   A    
C19   H17   S    
C35   H3    S    
C40   H24   S    
C9    H9    S    
C10   H10   S    
Cu2   O4    S    
C12   H12   S    
C16   H16   S    
C6    H8    S    
C4    C7    A    
C11   N1    A    
C39   C42   A    
C1    O4    A    
Cu1   O1    S    
C18   C23   S    
C17   C24   S    
C36   C40   A    
C19   C22   A    
C34   C44   A    
C8    C41   S    
C4    C6    A    
C3    C8    A    
C10   C14   A    
C5    C7    A    
C3    H5    S    
C6    C8    A    
C38   H22   S    
C37   H21   S    
C33   C37   A    
C39   H23   S    
C20   H18   S    
C35   C39   A    
C9    N1    A    
Cu1   N1    S    
C1    C44   S    
C31   C32   T    
C20   C23   A    
C2    C43   S    
C26   O7    A    
C15   H15   S    
C35   C44   A    
C40   C41   A    
C33   H1    S    
C34   H2    S    
C2    O3    A    
Cu2   O6    S    
C36   H4    S    
C15   C17   A    
C21   H19   S    
C34   C38   A    
C3    C5    A    
C13   H13   S    
C10   N2    A    
C25   C27   S    
C14   H14   S    
C26   C28   S    
C13   C17   A    
Cu1   O7    S    
C25   O8    A    
C28   C30   T    
C19   C24   A    
C29   C31   S    
C11   H11   S    
C30   C32   S    
C26   O6    A    
C25   O5    A    
C37   C41   A    
C1    O1    A    
Cu2   O2    S    
C20   C21   A    
C16   C18   A    
C21   C24   A    
C22   C23   A    
C36   C43   A    
C2    O2    A    
C33   C43   A    
