data_mof_unit_53963.cif
_audit_creation_date              2012-12-10T20:30:16-0500
_audit_creation_method            fapswitch 2.2
_symmetry_space_group_name_H-M    P1
_symmetry_Int_Tables_number       1
_space_group_crystal_system       triclinic
_cell_length_a                    9.910461
_cell_length_b                    10.648897
_cell_length_c                    13.087372
_cell_angle_alpha                 90.540269
_cell_angle_beta                  70.230409
_cell_angle_gamma                 89.743282
_cell_volume                      1299.67481323

loop_
_atom_site_label
_atom_site_type_symbol
_atom_type_description
_atom_site_fract_x
_atom_site_fract_y
_atom_site_fract_z
_atom_type_partial_charge
C1    C     C_R   0.502253 0.739884 0.494545 0.874619
C2    C     C_R   0.427807 0.484030 0.985792 0.089751
C3    C     C_R   0.449978 0.442243 0.878996 0.082242
C4    C     C_R   0.534224 0.456289 0.031832 0.081498
C5    C     C_R   0.646252 0.369565 0.979801 0.171255
C6    C     C_R   0.652186 0.313111 0.881791 -0.283151
C7    C     C_R   0.556199 0.350220 0.830985 -0.234157
C8    C     C_R   0.533564 0.514641 0.127511 -0.264107
C9    C     C_R   0.738118 0.390870 0.128741 -0.201216
C10   C     C_R   0.366921 0.495935 0.822108 -0.117083
C11   C     C_R   0.393657 0.936274 0.465567 0.138604
C12   C     C_R   0.420088 0.496287 0.704032 0.846865
C13   C     C_R   0.512184 0.870632 0.471892 -0.105704
C14   C     C_R   0.642181 0.933713 0.453456 -0.236209
C15   C     C_R   0.641953 0.063758 0.455356 -0.233786
C16   C     C_R   0.511972 0.128474 0.474150 -0.106659
C17   C     C_R   0.393368 0.064358 0.466966 0.145763
C18   C     C_3   0.238694 0.072253 0.536083 -0.479191
C19   C     C_3   0.239065 0.929879 0.533672 -0.506042
C20   C     C_R   0.887929 0.487791 0.594304 0.198540
C21   C     C_R   0.970204 0.503584 0.405363 -0.164762
C22   C     C_R   0.113657 0.504475 0.405391 -0.126949
C23   C     C_R   0.502309 0.259927 0.495499 0.871458
C24   C     C_R   0.029799 0.484206 0.593904 0.170458
C25   C     C_3   0.996221 0.560020 0.695689 -0.512359
C26   C     C_3   0.842297 0.568330 0.695805 -0.091364
C27   C     C_R   0.579600 0.498061 0.295920 0.865746
C28   C     C_R   0.749570 0.339769 0.027541 -0.201868
C29   C     C_R   0.626579 0.475407 0.179803 -0.055113
C30   C     C_R   0.243763 0.566630 0.877651 -0.202533
C31   C     C_R   0.208179 0.590587 0.988047 -0.146679
C32   C     C_R   0.300883 0.552829 0.041606 -0.197850
H1    H     H_    0.810187 0.358805 0.169652 0.150428
H2    H     H_    0.739820 0.112173 0.450439 0.172502
H3    H     H_    0.222070 0.112701 0.618159 0.201938
H4    H     H_    0.171431 0.114532 0.492296 0.207232
H5    H     H_    0.221585 0.887391 0.614424 0.200373
H6    H     H_    0.174143 0.890108 0.486788 0.210964
H7    H     H_    0.950491 0.508376 0.329116 0.150071
H8    H     H_    0.200368 0.510291 0.328830 0.151574
H9    H     H_    0.005728 0.502381 0.763333 0.175725
H10   H     H_    0.057170 0.648858 0.683751 0.215894
H11   H     H_    0.768466 0.517261 0.765301 0.162558
H12   H     H_    0.734587 0.244240 0.842183 0.151339
H13   H     H_    0.834962 0.273069 0.988984 0.136923
H14   H     H_    0.456147 0.586927 0.166754 0.137965
H15   H     H_    0.178299 0.607635 0.834958 0.147339
H16   H     H_    0.269212 0.576328 0.126860 0.120295
H17   H     H_    0.112187 0.643974 0.031115 0.141828
H18   H     H_    0.566494 0.307182 0.753409 0.168790
H19   H     H_    0.740438 0.883863 0.446143 0.175459
N1    N     N_R   0.856940 0.500860 0.500710 -0.101766
N2    N     N_R   0.142580 0.500820 0.500710 -0.095827
O1    O     O_R   0.385310 0.683210 0.499990 -0.611405
O2    O     O_R   0.614650 0.683240 0.500000 -0.617248
O3    O     O_R   0.328390 0.499940 0.653610 -0.608550
O4    O     O_R   0.557730 0.499980 0.653620 -0.626247
O5    O     O_R   0.385350 0.316760 0.500000 -0.607758
O6    O     O_R   0.614690 0.316790 0.500010 -0.624038
O7    O     O_R   0.442270 0.500020 0.346380 -0.618497
O8    O     O_R   0.671610 0.500060 0.346390 -0.622579
Zn1   Zn    Zn3+2 0.346870 0.499980 0.499990 0.936752
Zn2   Zn    Zn3+2 0.653130 0.500020 0.500010 0.926202
C33   C     C_3   0.783799 0.701908 0.689260 -0.300993
C34   C     C_3   0.881381 0.787718 0.602997 -0.852368
H20   H     H_    0.973703 0.816999 0.626456 0.244101
H21   H     H_    0.919084 0.741889 0.521801 0.268930
H22   H     H_    0.821234 0.874429 0.598568 0.235477
H23   H     H_    0.679695 0.694740 0.675910 0.239034
H24   H     H_    0.761095 0.748541 0.769723 0.187563

loop_
_geom_bond_atom_site_label_1
_geom_bond_atom_site_label_2
_ccdc_geom_bond_type
C25   H10   S    
O5    Zn1   S    
C23   O5    A    
C2    C4    A    
C1    O1    A    
C18   H4    S    
C6    C7    A    
C19   H6    S    
C33   H24   S    
C27   C29   S    
C5    C28   A    
C11   C13   A    
C18   H3    S    
C10   C30   A    
C15   H2    S    
O6    Zn2   S    
C31   C32   A    
C21   H7    S    
C17   C18   S    
C9    C29   A    
C30   C31   A    
C4    C8    A    
C34   H22   S    
C22   H8    S    
C33   C34   S    
C2    C3    A    
C1    O2    A    
C20   N1    A    
C3    C10   A    
C6    H12   S    
C33   H23   S    
C9    H1    S    
C32   H16   S    
C11   C19   S    
C12   O3    A    
C20   C26   S    
C31   H17   S    
C8    C29   A    
C10   C12   S    
O7    Zn1   S    
C26   H11   S    
O4    Zn2   S    
C16   C23   S    
C3    C7    A    
C27   O7    A    
C5    C6    A    
C20   C24   A    
C8    H14   S    
C28   H13   S    
C1    C13   S    
C12   O4    A    
C15   C16   A    
C16   C17   A    
C21   C22   A    
C30   H15   S    
C24   C25   S    
C22   N2    A    
C2    C32   A    
C34   H20   S    
N2    Zn1   S    
C25   H9    S    
C7    H18   S    
O8    Zn2   S    
C26   C33   S    
C14   C15   A    
C18   C19   S    
C19   H5    S    
C23   O6    A    
C25   C26   S    
C13   C14   A    
O1    Zn1   S    
C9    C28   A    
O3    Zn1   S    
C21   N1    A    
C11   C17   A    
C14   H19   S    
C24   N2    A    
O2    Zn2   S    
C4    C5    A    
C34   H21   S    
N1    Zn2   S    
C27   O8    A    
