data_mof_unit_20435.cif
_audit_creation_date              2012-12-10T21:42:34-0500
_audit_creation_method            fapswitch 2.2
_symmetry_space_group_name_H-M    P1
_symmetry_Int_Tables_number       1
_space_group_crystal_system       triclinic
_cell_length_a                    10.725763
_cell_length_b                    16.12256
_cell_length_c                    16.76009
_cell_angle_alpha                 88.364433
_cell_angle_beta                  90.133254
_cell_angle_gamma                 92.175393
_cell_volume                      2894.9970968

loop_
_atom_site_label
_atom_site_type_symbol
_atom_type_description
_atom_site_fract_x
_atom_site_fract_y
_atom_site_fract_z
_atom_type_partial_charge
C1    C     C_R   0.495091 0.489453 0.652978 0.929617
C2    C     C_R   0.506132 0.510293 0.346844 0.909514
C3    C     C_R   0.128013 0.499006 0.501417 -0.151737
C4    C     C_R   0.872635 0.500049 0.497857 -0.177551
C5    C     C_R   0.060032 0.452245 0.560101 -0.076513
C6    C     C_R   0.941045 0.548275 0.440212 -0.110673
C7    C     C_R   0.481094 0.482966 0.739039 -0.109299
C8    C     C_R   0.523019 0.515132 0.260477 -0.108999
C9    C     C_R   0.412573 0.541250 0.780430 0.140910
C10   C     C_R   0.566635 0.446774 0.218442 0.136302
C11   C     C_R   0.400324 0.531780 0.863563 0.006864
C12   C     C_R   0.576488 0.453543 0.135095 -0.002347
C13   C     C_R   0.459654 0.466641 0.903734 0.263431
C14   C     C_R   0.537529 0.525848 0.094643 0.277816
C15   C     C_R   0.520779 0.406207 0.862063 0.077845
C16   C     C_R   0.502673 0.595008 0.136622 0.058648
C17   C     C_R   0.531509 0.414946 0.779530 -0.313086
C18   C     C_R   0.496107 0.589324 0.219587 -0.330125
C19   C     C_R   0.444689 0.762694 0.458600 -0.068527
C20   C     C_R   0.540301 0.236158 0.547925 -0.085089
C21   C     C_R   0.447316 0.849754 0.461249 -0.322883
C22   C     C_R   0.537327 0.149217 0.544883 -0.355694
C23   C     C_R   0.739913 0.500110 0.497650 0.922723
C24   C     C_R   0.260348 0.499771 0.502690 0.932245
C25   C     C_R   0.523334 0.891150 0.517645 0.241498
C26   C     C_R   0.473532 0.108806 0.482385 0.287689
C27   C     C_R   0.595002 0.842449 0.570295 0.061601
C28   C     C_R   0.411879 0.158110 0.425100 0.062450
C29   C     C_R   0.590585 0.754848 0.564756 0.196662
C30   C     C_R   0.419728 0.246119 0.429698 0.170107
C31   C     C_R   0.794502 0.625121 0.247641 -0.111317
C32   C     C_R   0.189795 0.392930 0.763025 -0.129279
C33   C     C_R   0.849421 0.573650 0.304917 -0.224717
C34   C     C_R   0.136650 0.438442 0.700365 -0.248895
C35   C     C_R   0.879152 0.603238 0.380698 0.117358
C36   C     C_R   0.123200 0.404388 0.624648 0.143488
C37   C     C_R   0.858590 0.687002 0.397607 0.168506
C38   C     C_R   0.161091 0.322833 0.612762 0.179107
C39   C     C_R   0.799258 0.737415 0.340335 -0.161021
C40   C     C_R   0.217370 0.278392 0.675576 -0.197681
C41   C     C_R   0.766889 0.706293 0.265875 -0.137799
C42   C     C_R   0.232081 0.313593 0.750322 -0.124458
C43   C     C_R   0.070417 0.546031 0.441144 0.188153
C44   C     C_R   0.930437 0.453591 0.558553 0.167602
H1    H     H_    0.722857 0.745710 0.221608 0.138479
H2    H     H_    0.274404 0.278849 0.798796 0.129998
H3    H     H_    0.581325 0.369530 0.746904 0.165416
H4    H     H_    0.465781 0.642085 0.252090 0.177704
H5    H     H_    0.586124 0.266279 0.597096 0.152053
H6    H     H_    0.385622 0.731465 0.415511 0.157257
H7    H     H_    0.583849 0.114256 0.591508 0.173897
H8    H     H_    0.389712 0.883964 0.419753 0.181111
H9    H     H_    0.773071 0.601902 0.189045 0.149501
H10   H     H_    0.198002 0.419144 0.821574 0.137786
H11   H     H_    0.872200 0.511508 0.289406 0.135503
H12   H     H_    0.102452 0.499358 0.711193 0.122676
H13   H     H_    0.781312 0.801480 0.352457 0.126156
H14   H     H_    0.247494 0.215964 0.666764 0.130407
N1    N     N_2   0.467475 0.465208 0.987068 -0.148982
N2    N     N_2   0.525847 0.527943 0.011119 -0.137438
N3    N     N_R   0.515300 0.716920 0.509720 -0.099021
N4    N     N_R   0.484700 0.283080 0.490280 -0.088949
N5    N     N_2   0.529518 0.979962 0.524893 -0.187126
N6    N     N_2   0.467399 0.020016 0.474805 -0.154591
O1    O     O_R   0.494530 0.422540 0.612660 -0.627135
O2    O     O_R   0.505470 0.577460 0.387340 -0.620424
O3    O     O_R   0.504350 0.561840 0.618900 -0.579878
O4    O     O_R   0.495650 0.438160 0.381100 -0.575317
O5    O     O_R   0.678330 0.430350 0.496870 -0.608876
O6    O     O_R   0.321670 0.569650 0.503130 -0.603479
O7    O     O_R   0.688150 0.569660 0.503110 -0.615055
O8    O     O_R   0.311850 0.430340 0.496890 -0.607479
Zn1   Zn    Zn3+2 0.493440 0.406980 0.495830 0.965361
Zn2   Zn    Zn3+2 0.506560 0.593020 0.504170 0.972161
N7    N     N_2   0.674502 0.880991 0.627617 -0.318825
H15   H     H_    0.724700 0.932256 0.605161 0.236570
C45   C     C_3   0.613687 0.897536 0.702117 -0.806994
H16   H     H_    0.540534 0.943785 0.692331 0.247871
H17   H     H_    0.683629 0.922850 0.744823 0.238700
H18   H     H_    0.570687 0.839600 0.728900 0.241777
N8    N     N_2   0.341847 0.118633 0.363528 -0.302018
H19   H     H_    0.341308 0.150598 0.309433 0.214460
C46   C     C_3   0.218873 0.087536 0.387568 -0.800332
H20   H     H_    0.174014 0.053928 0.337520 0.238882
H21   H     H_    0.159768 0.139757 0.403420 0.226397
H22   H     H_    0.224856 0.043577 0.439578 0.257488
N9    N     N_3   0.665436 0.705006 0.616541 -0.391352
H23   H     H_    0.757046 0.729121 0.614533 0.164542
H24   H     H_    0.635128 0.711503 0.674947 0.185094
N10   N     N_3   0.353515 0.297284 0.374154 -0.389345
H25   H     H_    0.387122 0.288122 0.316814 0.164050
H26   H     H_    0.258952 0.279245 0.375673 0.168870
N11   N     N_3   0.906263 0.721792 0.470023 -0.476513
H27   H     H_    0.873258 0.684462 0.517764 0.200727
H28   H     H_    0.871327 0.780740 0.477558 0.170578
N12   N     N_3   0.136040 0.283724 0.538550 -0.456225
H29   H     H_    0.074143 0.233111 0.549755 0.162070
H30   H     H_    0.219095 0.259767 0.519028 0.193917
N13   N     N_2   0.144025 0.590658 0.381940 -0.293967
H31   H     H_    0.111797 0.647706 0.364169 0.238471
C47   C     C_3   0.180654 0.541608 0.315548 -0.785640
H32   H     H_    0.242283 0.580065 0.275027 0.233967
H33   H     H_    0.097524 0.520093 0.281323 0.234039
H34   H     H_    0.232304 0.486842 0.336865 0.245979
N14   N     N_2   0.857334 0.417365 0.622632 -0.301547
H35   H     H_    0.882297 0.438227 0.678201 0.221771
C48   C     C_3   0.835446 0.328370 0.621628 -0.741152
H36   H     H_    0.919451 0.295685 0.641230 0.230779
H37   H     H_    0.807621 0.308300 0.561077 0.257463
H38   H     H_    0.760170 0.310346 0.664612 0.210628
N15   N     N_2   0.593865 0.370277 0.258831 -0.286207
H39   H     H_    0.569601 0.317409 0.228450 0.205762
C49   C     C_3   0.716052 0.366706 0.295007 -0.745988
H40   H     H_    0.725523 0.305449 0.325977 0.233790
H41   H     H_    0.728311 0.415099 0.340185 0.248352
H42   H     H_    0.789926 0.374697 0.248837 0.208525
N16   N     N_2   0.347440 0.604010 0.737774 -0.282690
H43   H     H_    0.251897 0.598727 0.743345 0.209995
C50   C     C_3   0.395853 0.688526 0.744928 -0.768864
H44   H     H_    0.404542 0.717965 0.684525 0.256827
H45   H     H_    0.488363 0.691043 0.774979 0.229228
H46   H     H_    0.330329 0.724959 0.779857 0.212970
N17   N     N_3   0.626075 0.387858 0.090095 -0.427380
H47   H     H_    0.713974 0.373949 0.112642 0.189180
H48   H     H_    0.566516 0.335228 0.095778 0.178161
N18   N     N_3   0.327883 0.587012 0.908548 -0.455489
H49   H     H_    0.368250 0.646853 0.903135 0.206243
H50   H     H_    0.237373 0.587168 0.885343 0.174829
N19   N     N_3   0.576873 0.338663 0.904808 -0.430874
H51   H     H_    0.623399 0.301282 0.865487 0.174453
H52   H     H_    0.504650 0.301504 0.930289 0.173261
N20   N     N_3   0.469207 0.669518 0.094031 -0.453083
H53   H     H_    0.454868 0.717051 0.133793 0.174477
H54   H     H_    0.383644 0.657138 0.065965 0.199175

loop_
_geom_bond_atom_site_label_1
_geom_bond_atom_site_label_2
_ccdc_geom_bond_type
C33   H11   S    
N9    H23   S    
C34   H12   S    
N11   H27   S    
C27   C29   A    
C9    N16   S    
C23   O5    A    
N15   H39   S    
C30   N10   S    
N8    H19   S    
C24   O6    A    
N17   H47   S    
C39   C41   A    
C45   H16   S    
N14   C48   S    
C3    C43   A    
N18   H49   S    
C35   C37   A    
C43   N13   S    
N19   H51   S    
C2    O4    A    
N16   C50   S    
C25   N5    S    
N17   H48   S    
C39   H13   S    
C5    C36   S    
O1    Zn1   S    
C6    C35   S    
C15   C17   A    
C42   H2    S    
C26   N6    S    
C1    O3    A    
C46   H20   S    
N20   H53   S    
C7    C17   A    
N12   H30   S    
O6    Zn2   S    
C1    O1    A    
C48   H36   S    
C31   C33   A    
N4    Zn1   S    
O5    Zn1   S    
C46   H21   S    
C49   H42   S    
C50   H45   S    
N1    N2    D    
C47   H33   S    
C48   H37   S    
C3    C24   S    
C27   N7    S    
C32   H10   S    
N8    C46   S    
C45   H17   S    
C32   C42   A    
C29   N3    A    
C40   H14   S    
C47   H32   S    
C23   O7    A    
C11   N18   S    
C4    C6    A    
C4    C23   S    
C4    C44   A    
C3    C5    A    
O4    Zn1   S    
C44   N14   S    
C8    C18   A    
C32   C34   A    
N7    H15   S    
C20   H5    S    
N7    C45   S    
N10   H26   S    
N13   H31   S    
C15   N19   S    
N12   H29   S    
C37   N11   S    
C10   N15   S    
N15   C49   S    
O3    Zn2   S    
C31   H9    S    
C9    C11   A    
C10   C12   A    
C16   C18   A    
N13   C47   S    
C5    C44   A    
C12   C14   A    
C47   H34   S    
C6    C43   A    
C30   N4    A    
C48   H38   S    
C14   C16   A    
C36   C38   A    
C24   O8    A    
C49   H40   S    
C50   H46   S    
C7    C9    A    
C21   C25   A    
N18   H50   S    
C31   C41   A    
C19   C21   A    
C28   N8    S    
C1    C7    S    
C8    C10   A    
C2    C8    S    
C17   H3    S    
C20   C22   A    
O8    Zn1   S    
C2    O2    A    
C18   H4    S    
O7    Zn2   S    
C50   H44   S    
C13   N1    S    
N3    Zn2   S    
C25   C27   A    
C14   N2    S    
N14   H35   S    
C26   C28   A    
C13   C15   A    
C28   C30   A    
C37   C39   A    
N16   H43   S    
C38   C40   A    
C11   C13   A    
C19   H6    S    
N10   H25   S    
N11   H28   S    
C12   N17   S    
C45   H18   S    
C19   N3    A    
C40   C42   A    
C33   C35   A    
C34   C36   A    
C20   N4    A    
C16   N20   S    
C29   N9    S    
N5    N6    D    
C46   H22   S    
N20   H54   S    
C22   C26   A    
C38   N12   S    
N9    H24   S    
C41   H1    S    
C49   H41   S    
C21   H8    S    
C22   H7    S    
N19   H52   S    
O2    Zn2   S    
