data_mof_unit_8035.cif
_audit_creation_date              2012-12-10T17:46:24-0500
_audit_creation_method            fapswitch 2.2
_symmetry_space_group_name_H-M    P1
_symmetry_Int_Tables_number       1
_space_group_crystal_system       triclinic
_cell_length_a                    20.782529
_cell_length_b                    21.144726
_cell_length_c                    14.77002
_cell_angle_alpha                 89.702227
_cell_angle_beta                  127.907191
_cell_angle_gamma                 89.954613
_cell_volume                      5120.95525898

loop_
_atom_site_label
_atom_site_type_symbol
_atom_type_description
_atom_site_fract_x
_atom_site_fract_y
_atom_site_fract_z
_atom_type_partial_charge
C1    C     C_R   0.602309 0.913083 0.630941 0.810467
C2    C     C_R   0.397693 0.086919 0.369060 0.810462
C3    C     C_R   0.396141 0.914681 0.367377 0.805671
C4    C     C_R   0.603859 0.085319 0.632622 0.805664
C5    C     C_R   0.104091 0.414515 0.633130 0.805225
C6    C     C_R   0.895911 0.585487 0.366872 0.805227
C7    C     C_R   0.897800 0.413308 0.369366 0.808735
C8    C     C_R   0.102200 0.586691 0.630634 0.808726
C9    C     C_R   0.312111 0.786777 0.905365 -0.267337
C10   C     C_R   0.687906 0.213211 0.094655 -0.267333
C11   C     C_R   0.639169 0.749481 0.038272 -0.271881
C12   C     C_R   0.360847 0.250534 0.961733 -0.271874
C13   C     C_R   0.847951 0.258008 0.944490 -0.266344
C14   C     C_R   0.152031 0.742009 0.055485 -0.266343
C15   C     C_R   0.219044 0.309271 0.131650 -0.272550
C16   C     C_R   0.781019 0.690767 0.868415 -0.272542
C17   C     C_R   0.322758 0.006582 0.666446 -0.343616
C18   C     C_R   0.677239 0.993411 0.333548 -0.343614
C19   C     C_R   0.822593 0.502411 0.666139 -0.345694
C20   C     C_R   0.177405 0.497591 0.333857 -0.345697
C21   C     C_R   0.351828 0.001931 0.603418 0.783558
C22   C     C_R   0.648172 0.998068 0.396579 0.783557
C23   C     C_R   0.851903 0.503152 0.603294 0.781078
C24   C     C_R   0.148097 0.496847 0.396704 0.781076
C25   C     C_R   0.488090 0.999365 0.774998 0.035249
C26   C     C_R   0.511908 0.000630 0.225002 0.035243
C27   C     C_R   0.988025 0.497575 0.774776 0.024918
C28   C     C_R   0.011974 0.502427 0.225224 0.024945
C29   C     C_R   0.462052 0.998949 0.844879 0.014084
C30   C     C_R   0.537942 0.001042 0.155117 0.014085
C31   C     C_R   0.962371 0.501215 0.844930 0.012367
C32   C     C_R   0.037626 0.498790 0.155068 0.012370
C33   C     C_R   0.377547 0.006887 0.786708 -0.010024
C34   C     C_R   0.622447 0.993103 0.213286 -0.010021
C35   C     C_R   0.877266 0.500233 0.786343 -0.018094
C36   C     C_R   0.122731 0.499773 0.213653 -0.018112
C37   C     C_R   0.515832 0.994012 0.968745 -0.007273
C38   C     C_R   0.484160 0.005974 0.031250 -0.007265
C39   C     C_R   0.016593 0.503365 0.969080 -0.025701
C40   C     C_R   0.983403 0.496643 0.030917 -0.025674
C41   C     C_R   0.400655 0.023854 0.967697 0.466178
C42   C     C_R   0.599334 0.976126 0.032296 0.466162
C43   C     C_R   0.897792 0.486810 0.966271 0.506116
C44   C     C_R   0.102203 0.513201 0.033725 0.506107
C45   C     C_R   0.348141 0.019158 0.847797 -0.233016
C46   C     C_R   0.651850 0.980824 0.152195 -0.233015
C47   C     C_R   0.846423 0.493311 0.846685 -0.239352
C48   C     C_R   0.153573 0.506698 0.153311 -0.239329
C49   C     C_R   0.667914 0.130053 0.712817 -0.094867
C50   C     C_R   0.332083 0.869950 0.287179 -0.094871
C51   C     C_R   0.345977 0.141957 0.303310 -0.094297
C52   C     C_R   0.654038 0.858055 0.696701 -0.094285
C53   C     C_R   0.158647 0.637746 0.702369 -0.101378
C54   C     C_R   0.841355 0.362252 0.297633 -0.101378
C55   C     C_R   0.830566 0.629822 0.284654 -0.094824
C56   C     C_R   0.169442 0.370188 0.715357 -0.094817
C57   C     C_R   0.789725 0.188930 0.782711 -0.161964
C58   C     C_R   0.210259 0.811087 0.217265 -0.161964
C59   C     C_R   0.262562 0.230556 0.278557 -0.160151
C60   C     C_R   0.737473 0.769466 0.721476 -0.160153
C61   C     C_R   0.270913 0.706815 0.763775 -0.155790
C62   C     C_R   0.729100 0.293174 0.236242 -0.155788
C63   C     C_R   0.709194 0.690228 0.215828 -0.161291
C64   C     C_R   0.290802 0.309773 0.784161 -0.161288
C65   C     C_R   0.728933 0.147199 0.704009 -0.145811
C66   C     C_R   0.271055 0.852813 0.295974 -0.145815
C67   C     C_R   0.305269 0.175262 0.336465 -0.161059
C68   C     C_R   0.694747 0.824751 0.663547 -0.161038
C69   C     C_R   0.219839 0.657278 0.695624 -0.158528
C70   C     C_R   0.780169 0.342714 0.304388 -0.158529
C71   C     C_R   0.772621 0.650380 0.297783 -0.148665
C72   C     C_R   0.227371 0.349616 0.702204 -0.148657
C73   C     C_R   0.669631 0.153700 0.802394 -0.150813
C74   C     C_R   0.330372 0.846297 0.197611 -0.150807
C75   C     C_R   0.343125 0.164375 0.211719 -0.141537
C76   C     C_R   0.656903 0.835646 0.788305 -0.141550
C77   C     C_R   0.149812 0.667615 0.778329 -0.142987
C78   C     C_R   0.850186 0.332387 0.221666 -0.142987
C79   C     C_R   0.823668 0.648889 0.188218 -0.149349
C80   C     C_R   0.176364 0.351142 0.811821 -0.149368
C81   C     C_R   0.734311 0.191273 0.888683 0.101904
C82   C     C_R   0.265688 0.808729 0.111313 0.101904
C83   C     C_R   0.306283 0.222576 0.158423 0.095108
C84   C     C_R   0.693758 0.777452 0.841616 0.095107
C85   C     C_R   0.205644 0.712986 0.856650 0.093159
C86   C     C_R   0.794357 0.287014 0.143349 0.093158
C87   C     C_R   0.756940 0.685088 0.100376 0.103446
C88   C     C_R   0.243093 0.314941 0.899658 0.103450
C89   C     C_R   0.791837 0.211929 0.873419 0.051752
C90   C     C_R   0.208151 0.788083 0.126564 0.051750
C91   C     C_R   0.262332 0.254218 0.189422 0.058823
C92   C     C_R   0.737716 0.745813 0.810625 0.058820
C93   C     C_R   0.263975 0.734951 0.843393 0.053885
C94   C     C_R   0.736035 0.265042 0.156619 0.053884
C95   C     C_R   0.701567 0.708384 0.118139 0.050588
C96   C     C_R   0.298448 0.291632 0.881871 0.050590
C97   C     C_R   0.740043 0.212215 0.984949 -0.126454
C98   C     C_R   0.259960 0.787784 0.015053 -0.126455
C99   C     C_R   0.308770 0.248613 0.071661 -0.140155
C100  C     C_R   0.691270 0.751416 0.928376 -0.140164
C101  C     C_R   0.204657 0.738022 0.945704 -0.135040
C102  C     C_R   0.795340 0.261982 0.054289 -0.135038
C103  C     C_R   0.746346 0.701602 0.998498 -0.126651
C104  C     C_R   0.253700 0.298433 0.001549 -0.126646
C105  C     C_R   0.307355 0.815042 0.985454 0.589984
C106  C     C_R   0.692660 0.184950 0.014562 0.589984
C107  C     C_R   0.634051 0.771480 0.945240 0.614671
C108  C     C_R   0.365975 0.228541 0.054777 0.614670
C109  C     C_R   0.847165 0.285404 0.028856 0.603857
C110  C     C_R   0.152820 0.714609 0.971124 0.603863
C111  C     C_R   0.213727 0.331075 0.038340 0.592502
C112  C     C_R   0.786334 0.668966 0.961724 0.592500
Cu1   Cu    Cu3+1 0.526640 0.000000 0.436960 1.021396
Cu2   Cu    Cu3+1 0.473360 0.000000 0.563040 1.021399
Cu3   Cu    Cu3+1 0.026640 0.500000 0.436960 1.015295
Cu4   Cu    Cu3+1 0.973360 0.500000 0.563040 1.015292
H1    H     H_    0.351864 0.807171 0.888795 0.181350
H2    H     H_    0.648161 0.192811 0.111234 0.181353
H3    H     H_    0.594527 0.765573 0.048697 0.174346
H4    H     H_    0.405476 0.234434 0.951291 0.174343
H5    H     H_    0.889675 0.276169 0.929824 0.174674
H6    H     H_    0.110298 0.723856 0.070139 0.174678
H7    H     H_    0.188079 0.335346 0.157877 0.174367
H8    H     H_    0.811992 0.664695 0.842199 0.174375
H9    H     H_    0.382429 0.855275 0.200171 0.213170
H10   H     H_    0.617580 0.144714 0.799845 0.213172
H11   H     H_    0.631936 0.865331 0.819021 0.234003
H12   H     H_    0.368084 0.134691 0.180994 0.233991
H13   H     H_    0.903815 0.343584 0.230104 0.233532
H14   H     H_    0.096179 0.656422 0.769883 0.233534
H15   H     H_    0.127314 0.363057 0.814861 0.209762
H16   H     H_    0.872733 0.636989 0.185201 0.209755
H17   H     H_    0.271051 0.870708 0.364543 0.188530
H18   H     H_    0.728932 0.129309 0.635432 0.188523
H19   H     H_    0.693233 0.841157 0.592670 0.172720
H20   H     H_    0.306768 0.158847 0.407324 0.172722
H21   H     H_    0.772940 0.364702 0.363734 0.183894
H22   H     H_    0.227072 0.635287 0.636284 0.183898
H23   H     H_    0.223415 0.363912 0.628398 0.184857
H24   H     H_    0.776560 0.636069 0.371569 0.184873
H25   H     H_    0.316078 0.723073 0.754546 0.155213
H26   H     H_    0.683941 0.276911 0.245479 0.155217
H27   H     H_    0.666051 0.706853 0.228767 0.142277
H28   H     H_    0.333932 0.293137 0.771203 0.142273
H29   H     H_    0.834575 0.203807 0.771951 0.142481
H30   H     H_    0.165400 0.796218 0.228013 0.142484
H31   H     H_    0.230323 0.255165 0.304129 0.144065
H32   H     H_    0.769712 0.744855 0.695903 0.144069
H33   H     H_    0.283747 0.029401 0.800882 0.139481
H34   H     H_    0.716243 0.970578 0.199108 0.139483
H35   H     H_    0.781031 0.488997 0.799213 0.145225
H36   H     H_    0.218965 0.511014 0.200782 0.145235
H37   H     H_    0.448737 0.997236 0.188908 0.225932
H38   H     H_    0.551263 0.002759 0.811098 0.225915
H39   H     H_    0.949652 0.510231 0.190315 0.236203
H40   H     H_    0.050348 0.489772 0.809688 0.236184
H41   H     H_    0.257670 0.011334 0.621260 0.171374
H42   H     H_    0.742326 0.988659 0.378732 0.171374
H43   H     H_    0.757250 0.502490 0.620821 0.172616
H44   H     H_    0.242748 0.497511 0.379173 0.172617
N1    N     N_R   0.433280 0.000000 0.657760 -0.256180
N2    N     N_R   0.566720 0.000000 0.342240 -0.256184
N3    N     N_R   0.933280 0.500000 0.657760 -0.259394
N4    N     N_R   0.066720 0.500000 0.342240 -0.259402
O1    O     O_R   0.600040 0.935040 0.546740 -0.540808
O2    O     O_R   0.399960 0.064960 0.453260 -0.540797
O3    O     O_R   0.399960 0.935040 0.453260 -0.534558
O4    O     O_R   0.600040 0.064960 0.546740 -0.534560
O5    O     O_R   0.100040 0.435040 0.546740 -0.535972
O6    O     O_R   0.899960 0.564960 0.453260 -0.535972
O7    O     O_R   0.899960 0.435040 0.453260 -0.543005
O8    O     O_R   0.100040 0.564960 0.546740 -0.543011
O9    O     O_R   0.555010 0.935070 0.653220 -0.580119
O10   O     O_R   0.444990 0.064930 0.346780 -0.580124
O11   O     O_R   0.444990 0.935070 0.346780 -0.602512
O12   O     O_R   0.555010 0.064930 0.653220 -0.602515
O13   O     O_R   0.055010 0.435070 0.653220 -0.601520
O14   O     O_R   0.944990 0.564930 0.346780 -0.601504
O15   O     O_R   0.944990 0.435070 0.346780 -0.580248
O16   O     O_R   0.055010 0.564930 0.653220 -0.580242
O17   O     O_3   0.371797 0.050182 0.022019 -0.738142
H45   H     H_    0.313282 0.061429 0.965002 0.323307
O18   O     O_3   0.628186 0.949789 0.977971 -0.738117
H46   H     H_    0.686696 0.938528 0.034989 0.323299
O19   O     O_3   0.864806 0.466830 0.018963 -0.683886
H47   H     H_    0.805003 0.461340 0.961425 0.344790
O20   O     O_3   0.135186 0.533188 0.981032 -0.683878
H48   H     H_    0.194989 0.538679 0.038569 0.344800
F1    F     F_    0.345171 0.871639 0.026577 -0.693982
F2    F     F_    0.654854 0.128348 0.973447 -0.693982
F3    F     F_    0.567759 0.807281 0.866883 -0.666475
F4    F     F_    0.432266 0.192736 0.133124 -0.666492
F5    F     F_    0.895124 0.336884 0.078556 -0.672300
F6    F     F_    0.104851 0.663135 0.921414 -0.672297
F7    F     F_    0.175942 0.387623 0.992815 -0.694796
F8    F     F_    0.824128 0.612422 0.007260 -0.694791
F9    F     F_    0.701595 0.997843 0.512755 -0.665421
F10   F     F_    0.298406 0.002159 0.487242 -0.665424
F11   F     F_    0.201408 0.495105 0.512864 -0.666410
F12   F     F_    0.798592 0.504891 0.487134 -0.666414

loop_
_geom_bond_atom_site_label_1
_geom_bond_atom_site_label_2
_ccdc_geom_bond_type
C88   C96   A    
C14   H6    S    
C57   H29   S    
C33   C45   A    
C22   F9    S    
C53   C77   A    
C21   F10   S    
Cu3   O5    S    
C35   C47   A    
C76   C84   A    
Cu1   O4    S    
C79   C87   A    
C3    O3    A    
Cu2   O3    S    
C61   C69   A    
O17   H45   S    
C99   C108  A    
C1    O9    A    
C98   C105  A    
C57   C89   A    
C10   H2    S    
C32   C36   A    
C78   H13   S    
C51   C75   A    
C7    O7    A    
C50   C74   A    
Cu1   O1    S    
C22   N2    A    
C61   C93   A    
C74   H9    S    
C10   C94   A    
C9    C105  A    
C73   H10   S    
C29   C33   A    
C37   C42   A    
C55   C79   A    
C62   C70   A    
C75   H12   S    
C42   C46   A    
Cu3   N4    S    
C8    O16   A    
C112  F8    S    
C13   C109  A    
C86   C94   A    
C77   C85   A    
C59   C67   A    
Cu1   N2    S    
C12   H4    S    
C85   C93   A    
C58   C66   A    
Cu2   O9    S    
C14   C90   A    
C20   C24   A    
C24   F11   S    
C25   N1    A    
C56   C72   A    
C87   C95   A    
C110  F6    S    
C28   H39   S    
C109  F5    S    
C34   C46   A    
C17   H41   S    
C2    O2    A    
C97   C102  A    
C52   C68   A    
Cu1   O11   S    
C27   N3    A    
C78   C86   A    
Cu2   O12   S    
C99   C104  A    
C53   C69   A    
C80   H15   S    
C83   C99   A    
Cu4   O13   S    
C6    O14   A    
C82   C98   A    
C41   O17   S    
C24   N4    A    
C17   C33   A    
C74   C82   A    
C6    C55   S    
C5    O5    A    
C73   C81   A    
C88   C104  A    
C3    C50   S    
Cu2   O2    S    
C23   N3    A    
C60   C92   A    
C25   C29   A    
C21   N1    A    
C30   C34   A    
C27   C31   A    
C84   C100  A    
C105  F1    S    
C28   C32   A    
C63   C95   A    
Cu4   O6    S    
C64   C96   A    
C38   C41   A    
C11   H3    S    
C57   C65   A    
C39   C40   A    
C12   C108  A    
Cu2   N1    S    
C59   C91   A    
C64   H28   S    
C101  C110  A    
C23   F12   S    
C26   N2    A    
C100  C103  A    
C17   C21   A    
C4    O4    A    
Cu4   O7    S    
C103  C112  A    
C19   C23   A    
O18   H46   S    
C62   C94   A    
C37   C38   A    
C18   H42   S    
C15   C111  A    
C66   H17   S    
C13   H5    S    
C62   H26   S    
C54   C70   A    
C1    O1    A    
C40   C43   A    
C4    O12   A    
C7    C54   S    
C7    O15   A    
C51   C67   A    
C84   C92   A    
C50   C66   A    
C5    O13   A    
C71   H24   S    
C49   C65   A    
C58   C90   A    
C87   C103  A    
C97   C106  A    
C3    O11   A    
C46   H34   S    
C63   C71   A    
C26   C30   A    
Cu4   N3    S    
C48   H36   S    
C11   C107  A    
C49   C73   A    
C10   C106  A    
C106  F2    S    
C107  F3    S    
C86   C102  A    
C9    C93   A    
C32   C40   A    
C85   C101  A    
C16   C112  A    
Cu1   Cu2   S    
C6    O6    A    
C11   C95   A    
C27   H40   S    
C14   C110  A    
C28   N4    A    
C100  C107  A    
C41   C45   A    
C13   C89   A    
C25   H38   S    
C18   C22   A    
C5    C56   S    
C68   H19   S    
C108  F4    S    
C65   H18   S    
C61   H25   S    
C47   H35   S    
Cu3   O8    S    
C52   C76   A    
C82   C90   A    
C8    C53   S    
C104  C111  A    
C58   H30   S    
C16   C92   A    
C39   C44   A    
C60   H32   S    
C42   O18   S    
C98   C101  A    
C83   C91   A    
C56   C80   A    
C4    C49   S    
C60   C68   A    
C19   H43   S    
Cu4   O16   S    
C67   H20   S    
C16   H8    S    
C81   C89   A    
O20   H48   S    
C80   C88   A    
C19   C35   A    
C2    O10   A    
C75   C83   A    
O19   H47   S    
C81   C97   A    
C18   C34   A    
C63   H27   S    
C79   H16   S    
C31   C35   A    
C69   H22   S    
C31   C39   A    
C36   C48   A    
C45   H33   S    
C77   H14   S    
C64   C72   A    
C1    C52   S    
Cu3   O15   S    
Cu3   O14   S    
C2    C51   S    
C26   H37   S    
C44   O20   S    
C15   C91   A    
C20   C36   A    
C44   C48   A    
C72   H23   S    
C70   H21   S    
C20   H44   S    
C29   C37   A    
C76   H11   S    
C43   O19   S    
C12   C96   A    
C102  C109  A    
C15   H7    S    
C30   C38   A    
Cu3   Cu4   S    
C43   C47   A    
C55   C71   A    
C9    H1    S    
C8    O8    A    
C111  F7    S    
Cu1   O10   S    
C54   C78   A    
C59   H31   S    
