data_mof_unit_51553.cif
_audit_creation_date              2012-12-10T17:00:45-0500
_audit_creation_method            fapswitch 2.2
_symmetry_space_group_name_H-M    P1
_symmetry_Int_Tables_number       1
_space_group_crystal_system       triclinic
_cell_length_a                    27.731862
_cell_length_b                    10.885262
_cell_length_c                    9.686652
_cell_angle_alpha                 91.096321
_cell_angle_beta                  90.318789
_cell_angle_gamma                 90.918875
_cell_volume                      2923.13427712

loop_
_atom_site_label
_atom_site_type_symbol
_atom_type_description
_atom_site_fract_x
_atom_site_fract_y
_atom_site_fract_z
_atom_type_partial_charge
C1    C     C_R   0.500160 0.265125 0.498599 0.869168
C2    C     C_R   0.281836 0.419192 0.611696 0.384188
C3    C     C_R   0.253703 0.485514 0.519553 0.167855
C4    C     C_R   0.101814 0.465799 0.535657 -0.044997
C5    C     C_R   0.127502 0.382113 0.452617 -0.038243
C6    C     C_R   0.102318 0.292945 0.374366 -0.141853
C7    C     C_R   0.127502 0.554829 0.615267 -0.035283
C8    C     C_R   0.354539 0.495400 0.501740 -0.211895
C9    C     C_R   0.645286 0.487083 0.502775 -0.227028
C10   C     C_R   0.974091 0.360654 0.468013 0.038538
C11   C     C_R   0.973961 0.549483 0.613633 0.041234
C12   C     C_R   0.407502 0.500164 0.499834 0.878671
C13   C     C_R   0.948696 0.453968 0.540251 0.073538
C14   C     C_R   0.947132 0.263436 0.404230 -0.200507
C15   C     C_R   0.897015 0.261640 0.404995 -0.141977
C16   C     C_R   0.871728 0.356377 0.469440 -0.040085
C17   C     C_R   0.897412 0.452359 0.538048 -0.042342
C18   C     C_R   0.871695 0.547396 0.603315 -0.043730
C19   C     C_R   0.821164 0.546467 0.595677 0.611118
C20   C     C_R   0.821092 0.357907 0.466306 0.602513
C21   C     C_R   0.715793 0.396897 0.608233 0.378424
C22   C     C_R   0.666021 0.411126 0.601589 -0.324779
C23   C     C_R   0.500511 0.735064 0.501274 0.867360
C24   C     C_R   0.675118 0.550610 0.409612 0.335176
C25   C     C_R   0.725350 0.531505 0.412376 0.304811
C26   C     C_R   0.745593 0.458429 0.514902 0.157363
C27   C     C_R   0.025281 0.367581 0.461624 0.040782
C28   C     C_R   0.050559 0.460709 0.538784 0.074248
C29   C     C_R   0.025199 0.549248 0.618479 0.038915
C30   C     C_R   0.052286 0.285590 0.378601 -0.197878
C31   C     C_R   0.102312 0.637549 0.698507 -0.144024
C32   C     C_R   0.946878 0.643521 0.677836 -0.197501
C33   C     C_R   0.896829 0.642313 0.672490 -0.163437
C34   C     C_R   0.592514 0.498590 0.500409 0.866831
C35   C     C_R   0.052231 0.634947 0.700406 -0.201022
C36   C     C_2   0.508247 0.931261 0.388422 -0.274700
C37   C     C_2   0.504430 0.867852 0.505217 -0.370720
C38   C     C_2   0.515542 0.065875 0.390311 0.478671
C39   C     C_2   0.496626 0.132560 0.494407 -0.394987
C40   C     C_2   0.478196 0.416634 0.921502 -0.083758
C41   C     C_2   0.471195 0.428609 0.077432 0.534302
C42   C     C_R   0.178047 0.390418 0.448840 0.632504
C43   C     C_R   0.178077 0.558682 0.610121 0.602791
C44   C     C_R   0.275793 0.560109 0.420448 0.312374
C45   C     C_R   0.326583 0.560162 0.406046 0.295228
C46   C     C_R   0.331839 0.425920 0.603871 -0.360527
Cu1   Cu    Cu3+1 0.500010 0.500020 0.638630 1.013478
Cu2   Cu    Cu3+1 0.499990 0.499980 0.361370 1.023048
H1    H     H_    0.353123 0.375150 0.676888 0.197804
H2    H     H_    0.121245 0.705505 0.762547 0.186683
H3    H     H_    0.963211 0.721865 0.730237 0.141108
H4    H     H_    0.877869 0.716990 0.722578 0.188782
H5    H     H_    0.035855 0.700480 0.769517 0.140413
H6    H     H_    0.508266 0.882378 0.289874 0.185765
H7    H     H_    0.507495 0.912455 0.606116 0.167632
H8    H     H_    0.475133 0.090797 0.574727 0.111276
H9    H     H_    0.463925 0.335791 0.867829 0.106353
H10   H     H_    0.532031 0.523136 0.110418 0.223822
H11   H     H_    0.121219 0.228224 0.308690 0.181156
H12   H     H_    0.643368 0.362109 0.673629 0.211509
H13   H     H_    0.878125 0.185640 0.353614 0.188825
H14   H     H_    0.963633 0.185724 0.354208 0.140903
H15   H     H_    0.035855 0.216068 0.312390 0.139730
N1    N     N_R   0.202114 0.478055 0.526539 -0.412436
N2    N     N_R   0.797051 0.452844 0.527579 -0.411193
N3    N     N_2   0.499480 0.498660 0.846910 -0.007581
N4    N     N_2   0.499460 0.498630 0.153040 -0.282771
O1    O     O_R   0.500010 0.321960 0.617040 -0.613217
O2    O     O_2   0.796091 0.266185 0.401478 -0.537895
O3    O     O_2   0.203066 0.642159 0.687877 -0.556544
O4    O     O_2   0.796239 0.638852 0.654854 -0.545186
O5    O     O_R   0.499990 0.321920 0.382900 -0.536518
O6    O     O_R   0.430270 0.500040 0.617060 -0.592849
O7    O     O_R   0.430260 0.500000 0.382910 -0.512490
O8    O     O_R   0.500010 0.678080 0.617100 -0.517051
O9    O     O_R   0.499990 0.678040 0.382960 -0.578676
O10   O     O_R   0.569740 0.500000 0.617090 -0.569523
O11   O     O_R   0.569730 0.499960 0.382940 -0.548520
O12   O     O_2   0.203008 0.311631 0.368350 -0.535173
O13   O     O_3   0.246886 0.629278 0.335943 -0.603342
C47   C     C_3   0.250443 0.754296 0.377620 0.075935
H16   H     H_    0.284152 0.796130 0.336603 0.181038
H17   H     H_    0.250235 0.766181 0.492330 0.173040
C48   C     C_3   0.207376 0.822371 0.319064 -0.363378
H18   H     H_    0.207150 0.812826 0.204590 0.239093
H19   H     H_    0.173440 0.780731 0.358847 0.231166
C49   C     C_3   0.209335 0.958637 0.359496 -0.817491
H20   H     H_    0.208689 0.970440 0.473638 0.270001
H21   H     H_    0.177584 0.005247 0.315455 0.260604
H22   H     H_    0.242616 0.002667 0.318777 0.266355
O14   O     O_3   0.654974 0.627837 0.313699 -0.594514
C50   C     C_3   0.666423 0.752198 0.348019 0.093602
H23   H     H_    0.667125 0.804131 0.250388 0.170553
H24   H     H_    0.702601 0.766289 0.396999 0.188272
C51   C     C_3   0.627731 0.806441 0.441765 -0.418982
H25   H     H_    0.592405 0.795537 0.388821 0.237868
H26   H     H_    0.626362 0.755897 0.540250 0.219879
C52   C     C_3   0.637588 0.942349 0.474093 -0.805661
H27   H     H_    0.672778 0.954688 0.528327 0.273075
H28   H     H_    0.608777 0.978602 0.542003 0.263102
H29   H     H_    0.638108 0.995736 0.377586 0.265793
O15   O     O_3   0.755626 0.592785 0.323051 -0.603187
C53   C     C_3   0.756891 0.527305 0.196018 0.078725
H30   H     H_    0.722985 0.542122 0.137030 0.188813
H31   H     H_    0.761530 0.426764 0.210969 0.171454
C54   C     C_3   0.799650 0.575067 0.112752 -0.374924
H32   H     H_    0.795699 0.675177 0.096084 0.241982
H33   H     H_    0.833539 0.560988 0.171883 0.227795
C55   C     C_3   0.803088 0.508915 0.973052 -0.775482
H34   H     H_    0.807285 0.408603 0.987064 0.275467
H35   H     H_    0.834939 0.544498 0.916569 0.254594
H36   H     H_    0.770194 0.525222 0.910554 0.295054
O16   O     O_3   0.546654 0.123115 0.297780 -0.590626
C56   C     C_3   0.538092 0.085494 0.159048 0.064112
H37   H     H_    0.538654 0.169743 0.096122 0.158348
H38   H     H_    0.502057 0.040982 0.140840 0.109028
C57   C     C_3   0.578659 0.002820 0.107530 -0.359848
H39   H     H_    0.613842 0.052155 0.120584 0.234542
H40   H     H_    0.579837 0.917876 0.168856 0.224274
C58   C     C_3   0.571567 0.967504 0.955399 -0.834443
H41   H     H_    0.536490 0.918446 0.939675 0.283411
H42   H     H_    0.600958 0.905974 0.921465 0.273515
H43   H     H_    0.572393 0.050852 0.890963 0.243183
Cl1   Cl    Cl    0.255025 0.328116 0.739184 -0.600296
Cl2   Cl    Cl    0.503265 0.649087 0.910759 -0.590665
O17   O     O_3   0.432239 0.372179 0.141821 -0.593046
C59   C     C_3   0.425583 0.247530 0.101013 0.013620
H44   H     H_    0.421770 0.193299 0.196491 0.177201
H45   H     H_    0.456567 0.207543 0.044513 0.090831
C60   C     C_3   0.379125 0.231605 0.016026 -0.347954
H46   H     H_    0.348080 0.264299 0.077974 0.238645
H47   H     H_    0.381431 0.287343 0.921482 0.211077
C61   C     C_3   0.370267 0.097295 0.973868 -0.856959
H48   H     H_    0.400452 0.063363 0.909359 0.246776
H49   H     H_    0.336322 0.088710 0.912849 0.282958
H50   H     H_    0.366857 0.039597 0.066799 0.247704
Cl3   Cl    Cl    0.740173 0.301713 0.734643 -0.612704
O18   O     O_3   0.349319 0.633840 0.310265 -0.612268
C62   C     C_3   0.341456 0.584205 0.175976 0.102041
H51   H     H_    0.303009 0.591673 0.144801 0.191905
H52   H     H_    0.351797 0.485861 0.170258 0.180843
C63   C     C_3   0.372045 0.656693 0.073955 -0.323406
H53   H     H_    0.361853 0.755038 0.079053 0.214660
H54   H     H_    0.410728 0.650492 0.103015 0.265286
C64   C     C_3   0.364943 0.608119 0.926186 -0.816003
H55   H     H_    0.375803 0.510658 0.917798 0.256206
H56   H     H_    0.387563 0.662859 0.854982 0.280358
H57   H     H_    0.326590 0.615493 0.894123 0.265396

loop_
_geom_bond_atom_site_label_1
_geom_bond_atom_site_label_2
_ccdc_geom_bond_type
C10   C27   A    
C21   C26   A    
O17   C59   S    
C12   O7    A    
C35   H5    S    
C11   C13   A    
Cu2   O9    S    
C19   O4    S    
C51   H25   S    
C48   C49   S    
C21   Cl3   S    
C23   O9    A    
C49   H20   S    
C47   C48   S    
C64   H55   S    
C51   C52   S    
C41   N4    D    
C3    N1    S    
C2    C46   A    
C33   H4    S    
C46   H1    S    
C36   C37   D    
C48   H19   S    
C55   H35   S    
C34   O10   A    
C22   H12   S    
C5    C6    A    
C62   C63   S    
C25   O15   S    
C54   H32   S    
C15   C16   A    
C14   H14   S    
C1    O1    A    
C18   C19   A    
Cu2   O11   S    
C8    C45   A    
C45   O18   S    
C47   H17   S    
C39   H8    S    
C16   C17   A    
C61   H50   S    
C7    C43   A    
Cu1   N3    S    
C58   H43   S    
C16   C20   A    
C42   O12   S    
C40   N3    D    
C12   O6    A    
C27   C30   A    
C63   C64   S    
Cu2   O5    S    
C4    C7    A    
C30   H15   S    
C41   O17   S    
C64   H56   S    
C58   H42   S    
C43   N1    A    
C47   H16   S    
C38   C39   D    
C3    C44   A    
C1    O5    A    
C7    C31   A    
Cu2   O7    S    
C20   N2    A    
C44   O13   S    
C48   H18   S    
Cu1   O6    S    
C10   C14   A    
C57   C58   S    
O14   C50   S    
C38   O16   S    
O13   C47   S    
C25   C26   A    
C23   C37   S    
C50   C51   S    
C60   H47   S    
C59   H45   S    
C32   H3    S    
C60   H46   S    
Cu1   Cu2   S    
C8    C12   S    
C50   H24   S    
C17   C18   A    
C15   H13   S    
C53   H31   S    
C24   C25   A    
C40   C41   S    
C6    C30   A    
C11   C32   A    
C43   O3    S    
C52   H28   S    
C49   H21   S    
C61   H48   S    
C31   C35   A    
C20   O2    S    
C55   H36   S    
C60   C61   S    
Cu1   O10   S    
C31   H2    S    
C59   H44   S    
C24   O14   S    
C42   N1    A    
Cu1   O1    S    
C27   C28   A    
C64   H57   S    
C58   H41   S    
C5    C42   A    
O16   C56   S    
C28   C29   A    
C40   H9    S    
C14   C15   A    
C26   N2    S    
C6    H11   S    
C44   C45   A    
C23   O8    A    
C4    C5    A    
C10   C13   A    
C56   H38   S    
C62   H51   S    
C51   H26   S    
C9    C24   A    
C56   H37   S    
C2    Cl1   S    
C52   H29   S    
C29   C35   A    
N3    Cl2   S    
C13   C17   A    
C32   C33   A    
C57   H40   S    
C2    C3    A    
C59   C60   S    
Cu1   O8    S    
C57   H39   S    
C34   O11   A    
C62   H52   S    
C9    C34   S    
C54   H33   S    
C36   C38   S    
C50   H23   S    
C19   N2    A    
C53   C54   S    
C63   H54   S    
Cu2   N4    S    
O15   C53   S    
C9    C22   A    
C18   C33   A    
C8    C46   A    
C56   C57   S    
C36   H6    S    
O18   C62   S    
C1    C39   S    
C37   H7    S    
H10   N4    S    
C11   C29   A    
C52   H27   S    
C4    C28   A    
C49   H22   S    
C55   H34   S    
C53   H30   S    
C61   H49   S    
C63   H53   S    
C21   C22   A    
C54   C55   S    
