data_mof_unit_18867.cif
_audit_creation_date              2012-12-10T18:33:43-0500
_audit_creation_method            fapswitch 2.2
_symmetry_space_group_name_H-M    P1
_symmetry_Int_Tables_number       1
_space_group_crystal_system       triclinic
_cell_length_a                    10.499142
_cell_length_b                    15.0059
_cell_length_c                    15.470228
_cell_angle_alpha                 82.337897
_cell_angle_beta                  89.729693
_cell_angle_gamma                 104.610488
_cell_volume                      2335.57722926

loop_
_atom_site_label
_atom_site_type_symbol
_atom_type_description
_atom_site_fract_x
_atom_site_fract_y
_atom_site_fract_z
_atom_type_partial_charge
C1    C     C_R   0.484598 0.442010 0.662171 0.861433
C2    C     C_R   0.521929 0.558170 0.337820 0.859561
C3    C     C_R   0.527368 0.475031 0.811060 -0.267623
C4    C     C_R   0.557890 0.528786 0.189011 -0.269027
C5    C     C_R   0.561213 0.452043 0.896492 0.090987
C6    C     C_R   0.594583 0.557006 0.100985 0.091245
C7    C     C_R   0.551583 0.357378 0.927761 0.180009
C8    C     C_R   0.621626 0.653075 0.068537 0.179490
C9    C     C_R   0.595696 0.520451 0.952871 0.070393
C10   C     C_R   0.594174 0.491094 0.043436 0.069110
C11   C     C_R   0.589419 0.396739 0.073143 -0.234761
C12   C     C_R   0.629919 0.616981 0.921890 -0.232956
C13   C     C_R   0.571145 0.331338 0.015523 -0.240212
C14   C     C_R   0.645230 0.682291 0.979333 -0.240849
C15   C     C_R   0.681924 0.838713 0.645401 -0.281209
C16   C     C_R   0.312470 0.159687 0.357858 -0.280417
C17   C     C_R   0.655087 0.751299 0.619346 -0.010128
C18   C     C_R   0.342247 0.247926 0.382182 -0.010592
C19   C     C_R   0.517527 0.794680 0.509031 -0.023674
C20   C     C_R   0.482329 0.205322 0.491142 -0.025208
C21   C     C_R   0.539765 0.884979 0.532490 -0.035324
C22   C     C_R   0.456011 0.113878 0.470059 -0.035209
C23   C     C_R   0.742641 0.500961 0.500192 0.860330
C24   C     C_R   0.257346 0.499041 0.499807 0.862998
C25   C     C_R   0.624352 0.906313 0.602453 0.060747
C26   C     C_R   0.369309 0.091920 0.401266 0.058809
C27   C     C_R   0.481624 0.953879 0.489054 0.014403
C28   C     C_R   0.512331 0.044501 0.514574 0.015554
C29   C     C_R   0.597232 0.062675 0.584306 -0.327365
C30   C     C_R   0.393724 0.934876 0.421037 -0.328348
C31   C     C_R   0.649657 0.994345 0.629212 0.466178
C32   C     C_R   0.340686 0.002970 0.376347 0.466565
C33   C     C_3   0.931681 0.431566 0.560290 -0.172845
C34   C     C_3   0.068251 0.568442 0.439719 -0.173407
C35   C     C_3   0.047020 0.512399 0.579335 -0.175769
C36   C     C_3   0.952913 0.487610 0.420671 -0.176326
C37   C     C_3   0.121562 0.497795 0.499505 0.019921
C38   C     C_3   0.878389 0.502212 0.500502 0.022164
C39   C     C_3   0.008873 0.416929 0.480450 -0.134491
C40   C     C_3   0.991060 0.583076 0.519557 -0.131982
C41   C     C_R   0.497567 0.408800 0.754087 -0.057324
C42   C     C_R   0.553914 0.593200 0.245488 -0.058049
C43   C     C_R   0.520156 0.290065 0.870933 -0.207400
C44   C     C_R   0.620990 0.718281 0.125601 -0.206884
C45   C     C_R   0.494797 0.315908 0.783932 -0.200251
C46   C     C_R   0.587724 0.688459 0.213974 -0.197137
H1    H     H_    0.089962 0.522130 0.643919 0.138595
H2    H     H_    0.909910 0.477898 0.356095 0.138370
H3    H     H_    0.547263 0.229558 0.541288 0.123540
H4    H     H_    0.455931 0.771420 0.456991 0.122406
H5    H     H_    0.299406 0.300822 0.348930 0.135753
H6    H     H_    0.697698 0.698314 0.652688 0.131593
H7    H     H_    0.746479 0.852725 0.699089 0.185428
H8    H     H_    0.245893 0.145070 0.305304 0.187314
H9    H     H_    0.625205 0.129363 0.606901 0.150142
H10   H     H_    0.362328 0.867301 0.400498 0.151376
H11   H     H_    0.871336 0.376149 0.609492 0.138710
H12   H     H_    0.128542 0.623892 0.390526 0.136686
H13   H     H_    0.020120 0.349263 0.464515 0.149547
H14   H     H_    0.979797 0.650738 0.535493 0.149967
H15   H     H_    0.567051 0.259591 0.040397 0.141980
H16   H     H_    0.669544 0.755609 0.953486 0.144157
H17   H     H_    0.526632 0.455847 0.214068 0.162086
H18   H     H_    0.520807 0.544764 0.788271 0.161301
H19   H     H_    0.587038 0.739519 0.257173 0.155198
H20   H     H_    0.473798 0.263726 0.740281 0.153052
H21   H     H_    0.515058 0.217720 0.893793 0.131694
H22   H     H_    0.643599 0.791977 0.101571 0.133478
H23   H     H_    0.602687 0.372136 0.140467 0.147786
H24   H     H_    0.647908 0.643772 0.853395 0.142725
N1    N     N_R   0.574200 0.731700 0.552740 -0.098285
N2    N     N_R   0.425800 0.268300 0.447260 -0.099519
O1    O     O_R   0.462600 0.383110 0.605620 -0.618348
O2    O     O_R   0.537400 0.616890 0.394380 -0.619645
O3    O     O_R   0.510210 0.531900 0.639510 -0.623785
O4    O     O_R   0.489790 0.468100 0.360490 -0.624501
O5    O     O_R   0.662240 0.425610 0.483080 -0.620849
O6    O     O_R   0.337760 0.574390 0.516920 -0.618251
O7    O     O_R   0.709860 0.574400 0.516970 -0.622449
O8    O     O_R   0.290140 0.425600 0.483030 -0.621348
Zn1   Zn    Zn3+2 0.468210 0.400660 0.477370 0.936346
Zn2   Zn    Zn3+2 0.531790 0.599340 0.522630 0.937450
O9    O     O_3   0.733094 0.016018 0.696619 -0.609352
C47   C     C_3   0.656021 0.011931 0.772819 0.080713
H25   H     H_    0.583690 0.942829 0.788376 0.133638
H26   H     H_    0.602478 0.067662 0.765338 0.138247
C48   C     C_3   0.745676 0.026227 0.849407 -0.827163
H27   H     H_    0.818256 0.095055 0.836571 0.262873
H28   H     H_    0.686097 0.023477 0.909672 0.197919
H29   H     H_    0.799090 0.970730 0.859417 0.251292
O10   O     O_3   0.253246 0.980202 0.311257 -0.609394
C49   C     C_3   0.325779 0.981567 0.233770 0.076861
H30   H     H_    0.379540 0.925961 0.241337 0.138577
H31   H     H_    0.397481 0.050447 0.215137 0.132027
C50   C     C_3   0.231412 0.964323 0.159966 -0.815194
H32   H     H_    0.177491 0.019525 0.149934 0.253365
H33   H     H_    0.287354 0.965053 0.098659 0.200157
H34   H     H_    0.159380 0.895584 0.175958 0.260600

loop_
_geom_bond_atom_site_label_1
_geom_bond_atom_site_label_2
_ccdc_geom_bond_type
C25   C31   A    
C38   C40   S    
C48   H27   S    
C26   C32   A    
C40   H14   S    
C34   C37   S    
C19   N1    A    
C50   H32   S    
C47   C48   S    
C35   H1    S    
C50   H34   S    
C3    H18   S    
C4    H17   S    
C33   C39   S    
C34   C40   S    
C15   H7    S    
C28   C29   A    
C35   C37   S    
C47   H26   S    
C15   C25   A    
C32   O10   S    
C14   H16   S    
C31   O9    S    
C42   C46   A    
C12   H24   S    
C24   O8    A    
C8    C14   A    
C7    C43   A    
C9    C10   A    
N2    Zn1   S    
C2    O2    A    
N1    Zn2   S    
C21   C27   A    
C22   C28   A    
C27   C30   A    
C18   N2    A    
O2    Zn2   S    
C17   H6    S    
O1    Zn1   S    
C44   C46   A    
C18   H5    S    
C16   C26   A    
C1    O3    A    
C47   H25   S    
C46   H19   S    
C4    C6    A    
O10   C49   S    
C5    C7    A    
C6    C8    A    
C29   H9    S    
C30   H10   S    
C49   C50   S    
C43   H21   S    
C5    C9    A    
C20   H3    S    
O6    Zn2   S    
O9    C47   S    
O5    Zn1   S    
C29   C31   A    
C39   H13   S    
C11   H23   S    
C24   C37   S    
C23   O5    A    
C43   C45   A    
C24   O6    A    
C20   C22   A    
C17   N1    A    
C48   H28   S    
C44   H22   S    
C45   H20   S    
C2    O4    A    
C1    C41   S    
C15   C17   A    
C21   C25   A    
C3    C41   A    
C33   H11   S    
C19   C21   A    
C36   C39   S    
C8    C44   A    
C12   C14   A    
O8    Zn1   S    
C3    C5    A    
O4    Zn1   S    
C6    C10   A    
O7    Zn2   S    
C50   H33   S    
O3    Zn2   S    
C23   C38   S    
C33   C38   S    
C1    O1    A    
C36   C38   S    
C35   C40   S    
C37   C39   S    
C30   C32   A    
C11   C13   A    
C19   H4    S    
C49   H31   S    
C4    C42   A    
C2    C42   S    
C49   H30   S    
C33   C35   S    
C36   H2    S    
C34   C36   S    
C9    C12   A    
C16   H8    S    
C10   C11   A    
C7    C13   A    
C13   H15   S    
C16   C18   A    
C22   C26   A    
C48   H29   S    
C27   C28   A    
C34   H12   S    
C41   C45   A    
C20   N2    A    
C23   O7    A    
