data_mof_unit_24480.cif
_audit_creation_date              2012-12-10T19:45:46-0500
_audit_creation_method            fapswitch 2.2
_symmetry_space_group_name_H-M    P1
_symmetry_Int_Tables_number       1
_space_group_crystal_system       triclinic
_cell_length_a                    10.811607
_cell_length_b                    14.685005
_cell_length_c                    14.525559
_cell_angle_alpha                 65.58565
_cell_angle_beta                  103.418945
_cell_angle_gamma                 102.665907
_cell_volume                      2022.74660679

loop_
_atom_site_label
_atom_site_type_symbol
_atom_type_description
_atom_site_fract_x
_atom_site_fract_y
_atom_site_fract_z
_atom_type_partial_charge
C1    C     C_R   0.474342 0.119351 0.311295 0.828125
C2    C     C_R   0.591578 0.779909 0.979974 -0.280692
C3    C     C_R   0.383083 0.150019 0.124244 0.257144
C4    C     C_R   0.590034 0.848093 0.878277 0.246859
C5    C     C_R   0.484942 0.290056 0.176645 -0.305665
C6    C     C_R   0.493049 0.710161 0.822365 -0.313506
C7    C     C_R   0.452517 0.360729 0.077404 0.086046
C8    C     C_R   0.498117 0.640169 0.923987 0.087972
C9    C     C_R   0.393238 0.323900 0.999616 0.111517
C10   C     C_R   0.547890 0.676951 0.003206 0.128506
C11   C     C_R   0.479315 0.466820 0.053213 0.075365
C12   C     C_R   0.524159 0.880538 0.688694 0.820622
C13   C     C_R   0.458815 0.534532 0.948926 0.076308
C14   C     C_R   0.399615 0.494153 0.873459 -0.217944
C15   C     C_R   0.522804 0.507389 0.130031 -0.224586
C16   C     C_R   0.262790 0.999464 0.502063 0.803758
C17   C     C_R   0.737242 0.000443 0.498130 0.803812
C18   C     C_R   0.366549 0.391018 0.898830 -0.219248
C19   C     C_R   0.556240 0.610467 0.105159 -0.215361
C20   C     C_R   0.722948 0.289755 0.662559 -0.328250
C21   C     C_R   0.279672 0.711489 0.335179 -0.329755
C22   C     C_R   0.687012 0.206832 0.634315 0.096186
C23   C     C_R   0.870642 0.000766 0.496219 -0.088086
C24   C     C_R   0.314752 0.794069 0.363976 0.098311
C25   C     C_R   0.515351 0.283531 0.511146 0.023150
C26   C     C_R   0.483967 0.716099 0.489480 0.028171
C27   C     C_R   0.548382 0.371519 0.534824 -0.029482
C28   C     C_R   0.452197 0.628725 0.464729 -0.025426
C29   C     C_R   0.653965 0.372156 0.613378 0.164334
C30   C     C_R   0.347917 0.628722 0.385065 0.161200
C31   C     C_R   0.481071 0.457857 0.484314 0.065277
C32   C     C_R   0.519807 0.542527 0.515000 0.064889
C33   C     C_R   0.624881 0.538184 0.594628 -0.243129
C34   C     C_R   0.129337 0.999961 0.503023 -0.053358
C35   C     C_R   0.377118 0.462748 0.403756 -0.247163
C36   C     C_R   0.690485 0.454923 0.642259 -0.199659
C37   C     C_R   0.312235 0.546376 0.355497 -0.199772
C38   C     C_R   0.344190 0.050149 0.792655 -0.169015
C39   C     C_R   0.642702 0.925438 0.221980 -0.105671
C40   C     C_R   0.251685 0.011137 0.727783 0.307356
C41   C     C_R   0.735801 0.974908 0.278048 0.319401
C42   C     C_R   0.186668 0.078409 0.637071 0.092780
C43   C     C_R   0.812594 0.915282 0.367626 0.051596
C44   C     C_R   0.212099 0.182596 0.615429 -0.208820
C45   C     C_R   0.906715 0.959422 0.435767 -0.008117
C46   C     C_R   0.799114 0.810364 0.394716 -0.184178
C47   C     C_R   0.302899 0.220041 0.681602 -0.138791
C48   C     C_R   0.708562 0.763755 0.336445 -0.145553
C49   C     C_R   0.369460 0.154014 0.769668 -0.158445
C50   C     C_R   0.629365 0.821000 0.251109 -0.191008
C51   C     C_R   0.963886 0.042440 0.558021 -0.260871
C52   C     C_R   0.036200 0.959374 0.440277 -0.249908
C53   C     C_3   0.099973 0.855866 0.779086 -0.696750
C54   C     C_3   0.740111 0.143618 0.138735 -0.720612
C55   C     C_3   0.783085 0.965840 0.850394 -0.699994
C56   C     C_R   0.093209 0.041227 0.563420 0.045941
C57   C     C_3   0.314361 0.002905 0.072148 -0.738648
C58   C     C_R   0.448053 0.186126 0.201909 -0.104598
C59   C     C_R   0.537104 0.813205 0.798264 -0.104229
C60   C     C_R   0.359249 0.220067 0.023061 -0.248812
Cu1   Cu    Cu3+1 0.466270 0.918260 0.475690 0.949188
Cu2   Cu    Cu3+1 0.533730 0.081740 0.524310 0.950407
H1    H     H_    0.440364 0.183314 0.820441 0.137038
H2    H     H_    0.741123 0.144001 0.670706 0.134251
H3    H     H_    0.804639 0.289668 0.722179 0.134778
H4    H     H_    0.199368 0.712248 0.274353 0.136015
H5    H     H_    0.395413 0.999727 0.861850 0.118897
H6    H     H_    0.579143 0.966973 0.155751 0.147845
H7    H     H_    0.322550 0.300484 0.664082 0.143862
H8    H     H_    0.698222 0.682799 0.358560 0.147378
H9    H     H_    0.935863 0.072582 0.605722 0.148275
H10   H     H_    0.064331 0.928763 0.393033 0.150168
H11   H     H_    0.320403 0.363570 0.838633 0.140022
H12   H     H_    0.556949 0.784357 0.207468 0.136356
H13   H     H_    0.591141 0.638095 0.166463 0.141958
H14   H     H_    0.457672 0.685887 0.759630 0.169176
H15   H     H_    0.540991 0.314409 0.236077 0.167521
H16   H     H_    0.771022 0.455382 0.702654 0.141726
H17   H     H_    0.232907 0.546529 0.294075 0.142854
H18   H     H_    0.659635 0.598404 0.622092 0.134962
H19   H     H_    0.343417 0.403038 0.375456 0.133801
H20   H     H_    0.299298 0.865044 0.801541 0.247880
H21   H     H_    0.108956 0.799472 0.859168 0.218619
H22   H     H_    0.051959 0.816284 0.726890 0.244334
H23   H     H_    0.310025 0.194557 0.962241 0.150303
H24   H     H_    0.038306 0.910518 0.772331 0.221229
H25   H     H_    0.819441 0.113439 0.290960 0.246847
H26   H     H_    0.763002 0.224791 0.127102 0.233779
H27   H     H_    0.641329 0.132443 0.097938 0.238924
H28   H     H_    0.809648 0.125398 0.105433 0.222799
H29   H     H_    0.162785 0.234918 0.546470 0.139520
H30   H     H_    0.857674 0.764273 0.462370 0.141826
H31   H     H_    0.632863 0.977842 0.908346 0.236935
H32   H     H_    0.795507 0.950335 0.784624 0.225547
H33   H     H_    0.823992 0.045359 0.838542 0.207218
H34   H     H_    0.632230 0.807073 0.041114 0.137353
H35   H     H_    0.837110 0.916049 0.922131 0.222325
H36   H     H_    0.265594 0.019049 0.195143 0.241507
H37   H     H_    0.305796 0.919323 0.109645 0.229796
H38   H     H_    0.396081 0.030157 0.028701 0.222369
H39   H     H_    0.223663 0.023325 0.018983 0.225541
H40   H     H_    0.373879 0.539814 0.793797 0.142568
H41   H     H_    0.529602 0.461589 0.210710 0.144153
H42   H     H_    0.562931 0.723563 0.547667 0.123768
H43   H     H_    0.434948 0.275334 0.454245 0.123115
H44   H     H_    0.261322 0.857369 0.326269 0.115420
N1    N     N_R   0.584450 0.204570 0.560790 -0.173569
N2    N     N_R   0.415550 0.795430 0.439210 -0.174548
N3    N     N_2   0.226216 0.904827 0.753364 -0.448587
N4    N     N_2   0.748527 0.082316 0.247267 -0.441132
N5    N     N_2   0.648304 0.949712 0.858187 -0.408885
N6    N     N_2   0.336261 0.045055 0.149744 -0.406807
O1    O     O_R   0.455540 0.022090 0.338120 -0.559775
O2    O     O_R   0.544460 0.977910 0.661880 -0.544496
O3    O     O_R   0.512510 0.160150 0.379180 -0.597123
O4    O     O_R   0.487490 0.839850 0.620820 -0.598121
O5    O     O_R   0.291160 0.930970 0.479480 -0.594727
O6    O     O_R   0.708840 0.069030 0.520520 -0.593313
O7    O     O_R   0.348130 0.069020 0.520540 -0.584050
O8    O     O_R   0.651870 0.930980 0.479460 -0.574546

loop_
_geom_bond_atom_site_label_1
_geom_bond_atom_site_label_2
_ccdc_geom_bond_type
C54   H26   S    
C34   C56   A    
C8    C13   A    
C23   C45   A    
C21   H4    S    
C27   C29   A    
C39   H6    S    
C14   C18   A    
C35   H19   S    
C25   H43   S    
C19   H13   S    
C39   C41   A    
C38   C49   A    
C7    C11   A    
C37   H17   S    
C29   C36   A    
C17   C23   S    
C42   C44   A    
C5    C58   A    
C53   H22   S    
C49   H1    S    
C35   C37   A    
Cu2   O2    S    
C50   H12   S    
C14   H40   S    
C57   N6    S    
C46   H30   S    
C22   N1    A    
C57   H37   S    
C33   C36   A    
C54   N4    S    
C51   C56   A    
Cu1   N2    S    
C47   H7    S    
C17   O8    A    
C16   C34   S    
C15   C19   A    
C12   C59   S    
C11   C15   A    
C53   H24   S    
C24   N2    A    
C3    N6    S    
C44   C47   A    
C26   H42   S    
C3    C60   A    
C40   C42   A    
C13   C14   A    
Cu1   O8    S    
C41   C43   A    
C51   H9    S    
C55   H32   S    
C12   O2    A    
C20   C29   A    
C46   C48   A    
H36   N6    S    
Cu1   O5    S    
H20   N3    S    
C20   H3    S    
C28   C32   A    
C54   H27   S    
C47   C49   A    
C16   O7    A    
C26   N2    A    
C5    C7    A    
C6    C8    A    
Cu2   N1    S    
C45   C52   A    
C57   H38   S    
C27   C31   A    
C30   C37   A    
C2    C4    A    
C52   H10   S    
C23   C51   A    
C31   C32   A    
C10   C19   A    
C55   H35   S    
Cu1   O4    S    
C42   C56   S    
C48   C50   A    
C43   C45   S    
Cu2   O7    S    
C44   H29   S    
C17   O6    A    
H31   N5    S    
C55   H33   S    
C4    N5    S    
C20   C22   A    
C6    H14   S    
C18   H11   S    
C41   N4    S    
Cu1   O1    S    
C31   C35   A    
C24   H44   S    
C5    H15   S    
C2    C10   A    
C25   N1    A    
C53   N3    S    
C7    C9    A    
H25   N4    S    
C55   N5    S    
C26   C28   A    
C6    C59   A    
C48   H8    S    
C60   H23   S    
C33   H18   S    
C54   H28   S    
C40   N3    S    
C25   C27   A    
C57   H39   S    
C21   C30   A    
C34   C52   A    
C53   H21   S    
C9    C60   A    
C32   C33   A    
C28   C30   A    
Cu2   O3    S    
C36   H16   S    
C16   O5    A    
C38   C40   A    
C11   C13   A    
C4    C59   A    
C2    H34   S    
C1    O1    A    
Cu1   Cu2   S    
C43   C46   A    
Cu2   O6    S    
C22   H2    S    
C3    C58   A    
C9    C18   A    
C39   C50   A    
C38   H5    S    
C8    C10   A    
C21   C24   A    
C1    O3    A    
C15   H41   S    
C1    C58   S    
C12   O4    A    
