data_mof_unit_55727.cif
_audit_creation_date              2012-12-11T20:50:48-0500
_audit_creation_method            fapswitch 2.2
_symmetry_space_group_name_H-M    P1
_symmetry_Int_Tables_number       1
_space_group_crystal_system       triclinic
_cell_length_a                    30.642588
_cell_length_b                    34.033444
_cell_length_c                    8.484756
_cell_angle_alpha                 88.865406
_cell_angle_beta                  90.373392
_cell_angle_gamma                 89.89473
_cell_volume                      8846.58144676

loop_
_atom_site_label
_atom_site_type_symbol
_atom_type_description
_atom_site_fract_x
_atom_site_fract_y
_atom_site_fract_z
_atom_type_partial_charge
Ba1   Ba    Ba6+2 0.999930 0.472870 0.844940 1.681064
Ba2   Ba    Ba6+2 0.999930 0.527130 0.344940 1.705535
Ba3   Ba    Ba6+2 0.499930 0.972870 0.844940 1.660163
Ba4   Ba    Ba6+2 0.499930 0.027130 0.344940 1.699447
C1    C     C_3   0.047922 0.296717 0.718757 -0.284480
C2    C     C_3   0.047352 0.670199 0.139197 -0.347555
C3    C     C_3   0.547246 0.795952 0.712498 -0.291598
C4    C     C_3   0.547969 0.171337 0.157436 -0.312518
C5    C     C_R   0.247099 0.694378 0.109986 0.000784
C6    C     C_R   0.222237 0.293984 0.660469 0.002955
C7    C     C_R   0.740339 0.196400 0.116044 0.002197
C8    C     C_R   0.721093 0.791181 0.671891 0.005786
C9    C     C_R   0.215018 0.666630 0.063200 0.576539
C10   C     C_R   0.194711 0.325088 0.609586 0.553741
C11   C     C_R   0.705196 0.170576 0.081978 0.582117
C12   C     C_R   0.694634 0.822758 0.619469 0.563842
C13   C     C_R   0.185174 0.714955 0.890414 0.629741
C14   C     C_R   0.169269 0.286568 0.394357 0.649240
C15   C     C_R   0.686080 0.212062 0.864555 0.649079
C16   C     C_R   0.665549 0.783051 0.413792 0.640515
C17   C     C_R   0.207009 0.745189 0.969039 -0.063402
C18   C     C_R   0.201419 0.257006 0.428987 -0.099577
C19   C     C_R   0.709798 0.243661 0.930863 -0.068771
C20   C     C_R   0.698011 0.753691 0.444523 -0.094718
C21   C     C_R   0.241574 0.734367 0.067999 -0.084000
C22   C     C_R   0.227622 0.261068 0.564544 -0.090768
C23   C     C_R   0.740475 0.234344 0.047789 -0.087660
C24   C     C_R   0.725067 0.757839 0.577666 -0.091760
C25   C     C_R   0.284891 0.683081 0.194477 -0.065630
C26   C     C_R   0.244749 0.295143 0.805638 -0.081366
C27   C     C_R   0.774858 0.185542 0.218477 -0.054490
C28   C     C_R   0.744219 0.792404 0.815724 -0.081079
C29   C     C_R   0.809426 0.211521 0.246214 -0.071552
C30   C     C_R   0.769247 0.760292 0.867787 -0.114878
C31   C     C_R   0.317188 0.710683 0.229183 -0.069065
C32   C     C_R   0.270407 0.263401 0.857558 -0.117354
C33   C     C_R   0.808156 0.250370 0.185501 -0.019056
C34   C     C_R   0.775560 0.728167 0.769275 -0.024929
C35   C     C_R   0.311431 0.750760 0.188936 -0.013714
C36   C     C_R   0.277504 0.231384 0.759155 -0.026296
C37   C     C_R   0.772199 0.262387 0.092932 -0.087777
C38   C     C_R   0.755801 0.728248 0.619826 -0.076743
C39   C     C_R   0.272522 0.762919 0.113777 -0.091918
C40   C     C_R   0.258455 0.231525 0.608507 -0.075271
C41   C     C_R   0.199041 0.785374 0.933029 0.177375
C42   C     C_R   0.207247 0.222815 0.336861 0.195332
C43   C     C_R   0.705952 0.283312 0.876535 0.169585
C44   C     C_R   0.703498 0.719772 0.350713 0.195914
C45   C     C_3   0.994111 0.332929 0.074214 0.329792
C46   C     C_3   0.987474 0.666527 0.562014 0.347898
C47   C     C_3   0.489374 0.833761 0.061991 0.331758
C48   C     C_3   0.477971 0.167511 0.562161 0.379088
C49   C     C_R   0.734015 0.312838 0.937677 0.171641
C50   C     C_R   0.738954 0.693522 0.380217 0.162290
C51   C     C_R   0.227988 0.814534 0.988305 0.174904
C52   C     C_R   0.242541 0.196497 0.369046 0.164847
C53   C     C_R   0.768139 0.302094 0.044977 -0.062187
C54   C     C_R   0.766397 0.698490 0.514563 -0.071515
C55   C     C_R   0.265355 0.803207 0.078845 -0.065176
C56   C     C_R   0.269521 0.201601 0.504562 -0.072203
C57   C     C_R   0.797389 0.329839 0.111957 0.585275
C58   C     C_R   0.804381 0.675379 0.549366 0.583217
C59   C     C_R   0.295582 0.830890 0.138143 0.582266
C60   C     C_R   0.307126 0.178096 0.542646 0.580037
C61   C     C_R   0.842165 0.277399 0.213350 0.616039
C62   C     C_R   0.801130 0.695625 0.815829 0.622991
C63   C     C_R   0.344125 0.778799 0.218573 0.620252
C64   C     C_R   0.302580 0.198609 0.808191 0.621279
C65   C     C_2   0.118522 0.650717 0.779306 0.121045
C66   C     C_2   0.134114 0.366050 0.260974 0.204989
C67   C     C_2   0.604151 0.160073 0.809579 0.170422
C68   C     C_2   0.628602 0.860710 0.277870 0.224944
C69   C     C_3   0.095058 0.615752 0.733969 -0.028862
C70   C     C_3   0.103039 0.396770 0.214139 -0.043597
C71   C     C_3   0.567384 0.133872 0.789578 -0.069416
C72   C     C_3   0.596954 0.891310 0.234884 -0.079583
C73   C     C_1   0.101119 0.588159 0.998341 -0.021258
C74   C     C_1   0.097585 0.413990 0.493658 -0.028681
C75   C     C_1   0.598615 0.087716 0.990424 0.012147
C76   C     C_1   0.594980 0.911252 0.509519 0.044549
C77   C     C_2   0.132960 0.616003 0.034854 -0.175232
C78   C     C_2   0.117496 0.379505 0.541339 -0.211037
C79   C     C_2   0.636926 0.109585 0.992342 -0.064105
C80   C     C_2   0.618696 0.878847 0.558854 -0.171956
C81   C     C_2   0.145864 0.648781 0.918625 0.183037
C82   C     C_2   0.140007 0.354646 0.423623 0.234116
C83   C     C_2   0.640390 0.150123 0.913707 0.224190
C84   C     C_2   0.637784 0.851605 0.440756 0.198245
C85   C     C_R   0.888482 0.343170 0.384988 0.144896
C86   C     C_R   0.888848 0.657562 0.862618 0.189509
C87   C     C_R   0.387158 0.844951 0.393592 0.148876
C88   C     C_R   0.389377 0.158335 0.863717 0.181163
C89   C     C_3   0.976214 0.291343 0.088797 -0.302144
C90   C     C_3   0.967492 0.706885 0.532983 -0.367715
C91   C     C_3   0.469811 0.792741 0.060989 -0.292029
C92   C     C_3   0.455192 0.206435 0.525544 -0.350269
C93   C     C_R   0.922855 0.371837 0.429268 -0.042538
C94   C     C_R   0.922723 0.628281 0.913866 -0.069834
C95   C     C_R   0.422369 0.872777 0.434484 -0.037625
C96   C     C_R   0.423198 0.128849 0.914253 -0.071818
C97   C     C_R   0.907040 0.410266 0.188764 0.011235
C98   C     C_R   0.904146 0.587976 0.689005 0.003200
C99   C     C_R   0.407021 0.910630 0.191310 0.009437
C100  C     C_R   0.404235 0.088468 0.688866 -0.003563
C101  C     C_R   0.877648 0.380473 0.143554 -0.146340
C102  C     C_R   0.867481 0.612383 0.662021 -0.145797
C103  C     C_R   0.377181 0.881031 0.148808 -0.151361
C104  C     C_R   0.368193 0.113720 0.659999 -0.148147
C105  C     C_R   0.868104 0.346754 0.240900 0.186390
C106  C     C_R   0.859880 0.648008 0.744176 0.190287
C107  C     C_R   0.367601 0.848032 0.249250 0.191460
C108  C     C_R   0.360869 0.149555 0.742299 0.189358
C109  C     C_2   0.075756 0.596240 0.866814 -0.242842
C110  C     C_2   0.082710 0.416919 0.340743 -0.277383
C111  C     C_2   0.566231 0.098497 0.884185 -0.256105
C112  C     C_2   0.574285 0.907523 0.366662 -0.307296
C113  C     C_3   0.158631 0.504580 0.005905 0.215017
C114  C     C_3   0.162746 0.487825 0.505218 0.212556
C115  C     C_3   0.646477 0.981287 0.074903 0.211700
C116  C     C_3   0.642589 0.016058 0.531380 0.226415
C117  C     C_3   0.199087 0.530842 0.028460 -0.037835
C118  C     C_3   0.198675 0.459174 0.564944 -0.037864
C119  C     C_3   0.681302 0.987214 0.946655 0.044791
C120  C     C_3   0.691464 0.021290 0.493835 -0.018404
C121  C     C_3   0.856306 0.515740 0.982451 0.200023
C122  C     C_3   0.856534 0.485247 0.479355 0.234482
C123  C     C_3   0.356498 0.015768 0.981736 0.201031
C124  C     C_3   0.356152 0.985656 0.479541 0.235331
C125  C     C_3   0.808037 0.517417 0.928330 -0.156513
C126  C     C_3   0.807828 0.481056 0.436800 -0.304090
C127  C     C_3   0.308307 0.017677 0.926762 -0.159550
C128  C     C_3   0.307422 0.981902 0.436892 -0.305239
C129  C     C_3   0.022590 0.329921 0.634124 0.227218
C130  C     C_3   0.003283 0.684181 0.076883 0.266690
C131  C     C_3   0.521124 0.828371 0.626286 0.229905
C132  C     C_3   0.503386 0.185341 0.096879 0.276585
C133  C     C_R   0.931023 0.405287 0.320163 -0.279579
C134  C     C_R   0.931450 0.595332 0.808653 -0.326699
C135  C     C_R   0.431097 0.905803 0.322987 -0.278749
C136  C     C_R   0.431377 0.095622 0.809339 -0.324607
H1    H     H_    0.036766 0.357914 0.673712 0.045102
H2    H     H_    0.998529 0.673886 0.954327 -0.026543
H3    H     H_    0.536822 0.856598 0.655772 0.027908
H4    H     H_    0.499070 0.177303 0.971341 -0.033167
H5    H     H_    0.220437 0.518870 0.124535 0.124009
H6    H     H_    0.219226 0.473677 0.654857 0.136278
H7    H     H_    0.712167 0.997401 0.002720 0.094273
H8    H     H_    0.709581 0.031601 0.599215 0.093439
H9    H     H_    0.188339 0.560052 0.066961 0.112300
H10   H     H_    0.183411 0.433290 0.623580 0.123221
H11   H     H_    0.671045 0.011404 0.865561 0.083872
H12   H     H_    0.705113 0.992138 0.463302 0.113096
H13   H     H_    0.877385 0.512672 0.878031 -0.003226
H14   H     H_    0.875417 0.491295 0.370941 0.033884
H15   H     H_    0.377695 0.012654 0.877663 -0.002787
H16   H     H_    0.375111 0.991527 0.371125 0.033977
H17   H     H_    0.800183 0.489783 0.866317 0.130155
H18   H     H_    0.796181 0.509129 0.381690 0.176846
H19   H     H_    0.300405 0.990172 0.863950 0.126827
H20   H     H_    0.296104 0.010045 0.381449 0.177674
H21   H     H_    0.786597 0.518723 0.033210 0.134912
H22   H     H_    0.788722 0.475881 0.546180 0.101631
H23   H     H_    0.286732 0.018927 0.031281 0.135992
H24   H     H_    0.288227 0.976952 0.546210 0.102312
H25   H     H_    0.082677 0.296903 0.681893 0.094736
H26   H     H_    0.073515 0.679033 0.057572 0.028758
H27   H     H_    0.581205 0.794921 0.667446 0.093683
H28   H     H_    0.573786 0.180586 0.075905 0.019607
H29   H     H_    0.047507 0.300619 0.847343 0.139304
H30   H     H_    0.047288 0.637846 0.151708 0.159111
H31   H     H_    0.549278 0.801800 0.839701 0.146640
H32   H     H_    0.548623 0.138953 0.172409 0.151635
H33   H     H_    0.977727 0.280806 0.213288 0.170088
H34   H     H_    0.981912 0.728306 0.615218 0.130845
H35   H     H_    0.471946 0.779013 0.180532 0.177288
H36   H     H_    0.470910 0.230420 0.591814 0.101466
H37   H     H_    0.836352 0.201614 0.320295 0.116671
H38   H     H_    0.785077 0.761303 0.982203 0.110164
H39   H     H_    0.346556 0.700598 0.289259 0.122647
H40   H     H_    0.285647 0.264398 0.973012 0.109011
H41   H     H_    0.290423 0.652632 0.228598 0.123331
H42   H     H_    0.241291 0.319969 0.882100 0.112456
H43   H     H_    0.776144 0.156401 0.272065 0.107915
H44   H     H_    0.741805 0.817607 0.890698 0.104818
H45   H     H_    0.143344 0.617510 0.156907 0.148945
H46   H     H_    0.116865 0.370430 0.663532 0.159773
H47   H     H_    0.666542 0.093566 0.021924 0.125508
H48   H     H_    0.622030 0.872348 0.682911 0.166130
H49   H     H_    0.861382 0.384202 0.030769 0.142623
H50   H     H_    0.843879 0.602185 0.577249 0.167349
H51   H     H_    0.360217 0.884368 0.037075 0.135606
H52   H     H_    0.344785 0.104030 0.573540 0.167689
H53   H     H_    0.954377 0.427434 0.353753 0.114647
H54   H     H_    0.958046 0.575403 0.836733 0.079460
H55   H     H_    0.454712 0.927840 0.355286 0.117071
H56   H     H_    0.457438 0.075245 0.838523 0.074399
H57   H     H_    0.033328 0.267715 0.692067 0.141903
H58   H     H_    0.054658 0.683248 0.254998 0.151559
H59   H     H_    0.531596 0.766865 0.696443 0.143784
H60   H     H_    0.556658 0.185004 0.270363 0.151572
H61   H     H_    0.040837 0.590975 0.870580 0.044166
H62   H     H_    0.057137 0.437973 0.311011 0.091660
H63   H     H_    0.537026 0.080707 0.876478 0.068952
H64   H     H_    0.539698 0.914348 0.358681 0.065236
H65   H     H_    0.987615 0.344153 0.952989 0.091295
H66   H     H_    0.971131 0.645871 0.480932 0.114472
H67   H     H_    0.483722 0.847936 0.945540 0.105139
H68   H     H_    0.459637 0.143781 0.502937 0.099589
H69   H     H_    0.976160 0.351348 0.158074 -0.013644
H70   H     H_    0.981660 0.657449 0.686325 -0.054865
H71   H     H_    0.471989 0.850900 0.151388 -0.015332
H72   H     H_    0.477345 0.162594 0.691881 -0.097645
H73   H     H_    0.941610 0.291164 0.049148 0.102245
H74   H     H_    0.931631 0.705281 0.548419 0.083670
H75   H     H_    0.434966 0.794664 0.024862 0.099323
H76   H     H_    0.420253 0.203983 0.556576 0.080890
H77   H     H_    0.995094 0.271004 0.014648 0.123419
H78   H     H_    0.974079 0.717321 0.411346 0.143087
H79   H     H_    0.487294 0.773982 0.976537 0.122536
H80   H     H_    0.456693 0.214408 0.399305 0.152981
H81   H     H_    0.141246 0.513992 0.896361 0.028834
H82   H     H_    0.147890 0.476043 0.396390 0.012473
H83   H     H_    0.615857 0.968653 0.028771 0.022478
H84   H     H_    0.625559 0.009575 0.421463 0.058941
N1    N     N_R   0.181424 0.677321 0.958140 -0.423130
N2    N     N_R   0.168604 0.321747 0.475692 -0.427342
N3    N     N_R   0.677181 0.177753 0.952888 -0.428352
N4    N     N_R   0.666484 0.818763 0.491485 -0.430678
N5    N     N_R   0.835635 0.317602 0.188191 -0.424068
N6    N     N_R   0.821473 0.672973 0.702820 -0.423801
N7    N     N_R   0.335473 0.818781 0.200296 -0.425618
N8    N     N_R   0.323302 0.175475 0.697471 -0.422049
O1    O     O_2   0.914200 0.445720 0.903420 -0.411259
O2    O     O_2   0.914200 0.554280 0.403420 -0.452015
O3    O     O_2   0.414200 0.945720 0.903420 -0.409513
O4    O     O_2   0.414200 0.054280 0.403420 -0.450011
O5    O     O_3   0.131348 0.493396 0.623521 -0.658656
O6    O     O_3   0.131410 0.506706 0.138673 -0.678558
O7    O     O_3   0.638383 0.984442 0.635758 -0.660548
O8    O     O_3   0.639876 0.017512 0.144160 -0.657662
O9    O     O_3   0.039180 0.333189 0.108700 -0.557597
O10   O     O_3   0.032398 0.668666 0.532613 -0.625022
O11   O     O_3   0.534261 0.831607 0.097523 -0.566124
O12   O     O_3   0.521020 0.169081 0.506615 -0.612678
O13   O     O_3   0.049930 0.518940 0.045960 -0.460801
O14   O     O_3   0.049930 0.481060 0.545960 -0.443863
O15   O     O_3   0.549930 0.018940 0.045960 -0.495835
O16   O     O_3   0.549930 0.981060 0.545960 -0.494428
O17   O     O_2   0.218571 0.632744 0.110948 -0.624791
O18   O     O_2   0.194401 0.355291 0.684798 -0.626165
O19   O     O_2   0.699932 0.142129 0.169102 -0.611150
O20   O     O_2   0.697335 0.853990 0.687026 -0.628602
O21   O     O_2   0.176615 0.721162 0.752394 -0.551653
O22   O     O_2   0.141705 0.280881 0.292954 -0.508061
O23   O     O_2   0.678527 0.213693 0.723602 -0.540734
O24   O     O_2   0.636375 0.776754 0.319065 -0.507667
O25   O     O_2   0.788167 0.364729 0.105899 -0.550921
O26   O     O_2   0.822923 0.659089 0.442075 -0.567496
O27   O     O_2   0.286042 0.865720 0.137619 -0.553503
O28   O     O_2   0.326089 0.161554 0.436954 -0.571916
O29   O     O_2   0.877606 0.264967 0.258430 -0.587319
O30   O     O_2   0.804730 0.687336 0.955908 -0.573703
O31   O     O_2   0.380382 0.767571 0.260138 -0.592774
O32   O     O_2   0.305021 0.190380 0.948550 -0.577657
O33   O     O_3   0.950020 0.480960 0.143730 -0.501899
O34   O     O_3   0.950020 0.519040 0.643730 -0.440685
O35   O     O_3   0.450020 0.980960 0.143730 -0.500271
O36   O     O_3   0.450020 0.019040 0.643730 -0.442515
O37   O     O_3   0.985090 0.412220 0.642040 -0.439461
O38   O     O_3   0.985090 0.587780 0.142040 -0.489662
O39   O     O_3   0.485090 0.912220 0.642040 -0.436781
O40   O     O_3   0.485090 0.087780 0.142040 -0.486655
O41   O     O_2   0.916139 0.375537 0.757986 -0.468385
O42   O     O_2   0.911384 0.619191 0.238514 -0.400834
O43   O     O_2   0.416473 0.876508 0.762575 -0.473256
O44   O     O_2   0.411211 0.118026 0.236517 -0.400336
O45   O     O_3   0.860249 0.483881 0.088144 -0.641193
O46   O     O_3   0.860584 0.515260 0.588793 -0.616426
O47   O     O_3   0.360262 0.983935 0.087641 -0.640855
O48   O     O_3   0.360433 0.015595 0.589000 -0.616367
O49   O     O_3   0.978063 0.327268 0.673863 -0.644286
O50   O     O_3   0.970525 0.670754 0.180037 -0.631504
O51   O     O_3   0.477469 0.827334 0.677487 -0.646678
O52   O     O_3   0.470541 0.169499 0.193577 -0.619305
O53   O     O_2   0.085560 0.445380 0.786390 -0.472196
O54   O     O_2   0.085560 0.554620 0.286390 -0.444001
O55   O     O_2   0.585560 0.945380 0.786390 -0.451248
O56   O     O_2   0.585560 0.054620 0.286390 -0.466588
O57   O     O_3   0.014550 0.412170 0.047860 -0.489387
O58   O     O_3   0.014550 0.587830 0.547860 -0.483929
O59   O     O_3   0.514550 0.912170 0.047860 -0.487544
O60   O     O_3   0.514550 0.087830 0.547860 -0.491788
O61   O     O_2   0.079072 0.376695 0.905277 -0.521081
O62   O     O_2   0.083215 0.618684 0.409227 -0.486725
O63   O     O_2   0.579645 0.876532 0.912126 -0.522617
O64   O     O_2   0.587533 0.122962 0.460851 -0.446737
P1    P     P_3+3 0.909970 0.458430 0.077330 0.994680
P2    P     P_3+3 0.909970 0.541570 0.577330 1.056491
P3    P     P_3+3 0.409970 0.958430 0.077330 0.995203
P4    P     P_3+3 0.409970 0.041570 0.577330 1.056144
P5    P     P_3+3 0.089830 0.458070 0.612460 1.004102
P6    P     P_3+3 0.089830 0.541930 0.112460 0.988955
P7    P     P_3+3 0.589830 0.958070 0.612460 0.982054
P8    P     P_3+3 0.589830 0.041930 0.112460 0.971200
P9    P     P_3+3 0.059592 0.380565 0.071121 0.973060
P10   P     P_3+3 0.056158 0.622178 0.560844 0.941769
P11   P     P_3+3 0.557229 0.878515 0.073791 0.958298
P12   P     P_3+3 0.549149 0.127494 0.577239 0.962609
P13   P     P_3+3 0.947618 0.626634 0.115371 0.961831
P14   P     P_3+3 0.950433 0.371406 0.625787 0.975313
P15   P     P_3+3 0.447921 0.126656 0.116616 0.965242
P16   P     P_3+3 0.450283 0.871722 0.629273 0.971146
N9    N     N_2   0.223572 0.534119 0.882696 -0.436196
H85   H     H_    0.244714 0.511016 0.865950 0.239236
C137  C     C_3   0.243389 0.571833 0.849246 -0.169692
H86   H     H_    0.261565 0.570611 0.736681 0.144789
H87   H     H_    0.266545 0.579536 0.945046 0.137230
H88   H     H_    0.217767 0.594766 0.835844 0.141885
N10   N     N_2   0.225474 0.445778 0.435865 -0.434421
H89   H     H_    0.232266 0.466814 0.350455 0.240527
C138  C     C_3   0.263852 0.423698 0.483592 -0.215737
H90   H     H_    0.280260 0.412163 0.377735 0.109837
H91   H     H_    0.254804 0.398458 0.561180 0.161316
H92   H     H_    0.287065 0.442955 0.546923 0.123837
N11   N     N_2   0.688969 0.951512 0.859135 -0.382197
H93   H     H_    0.676833 0.925642 0.906530 0.223560
C139  C     C_3   0.731960 0.947674 0.791902 -0.159936
H94   H     H_    0.731334 0.925009 0.699828 0.161524
H95   H     H_    0.755766 0.938760 0.885273 0.112523
H96   H     H_    0.742584 0.975834 0.736392 0.075870
N12   N     N_2   0.697707 0.048757 0.362981 -0.395547
H97   H     H_    0.684828 0.076347 0.379852 0.275334
C140  C     C_3   0.741392 0.049863 0.299862 -0.201187
H98   H     H_    0.741971 0.069240 0.193105 0.138472
H99   H     H_    0.751869 0.019990 0.265319 0.121878
H100  H     H_    0.764518 0.061536 0.388737 0.101615
C141  C     C_2   0.869876 0.551265 0.070619 0.424159
H101  H     H_    0.904244 0.554747 0.094636 0.032420
O65   O     O_2   0.843432 0.574500 0.122651 -0.572457
C142  C     C_2   0.873170 0.449155 0.559029 0.440860
H102  H     H_    0.852674 0.423916 0.585381 -0.085847
O66   O     O_2   0.910998 0.448942 0.600987 -0.519601
C143  C     C_2   0.370062 0.051214 0.070037 0.427114
H103  H     H_    0.404467 0.054786 0.092963 0.033279
O67   O     O_2   0.343578 0.074167 0.123766 -0.574158
C144  C     C_2   0.372451 0.949501 0.559536 0.447721
H104  H     H_    0.351695 0.924491 0.586216 -0.098064
O68   O     O_2   0.410266 0.949038 0.601719 -0.519911
C145  C     C_2   0.797061 0.552109 0.822914 0.416601
H105  H     H_    0.802403 0.581763 0.862913 0.053023
O69   O     O_2   0.780384 0.547352 0.693733 -0.574073
C146  C     C_2   0.798744 0.447711 0.327437 0.490773
H106  H     H_    0.809553 0.418130 0.357504 -0.013330
O70   O     O_2   0.778085 0.453378 0.205682 -0.516872
C147  C     C_2   0.297664 0.052604 0.822034 0.420346
H107  H     H_    0.303580 0.082158 0.862199 0.050994
O71   O     O_2   0.280667 0.048174 0.693180 -0.573503
C148  C     C_2   0.298037 0.948591 0.327918 0.488442
H108  H     H_    0.308461 0.918957 0.358789 0.002157
O72   O     O_2   0.277584 0.954353 0.205776 -0.517919
C149  C     C_2   0.028198 0.327558 0.459208 0.539678
H109  H     H_    0.018277 0.352491 0.386609 -0.138268
O73   O     O_2   0.044393 0.298739 0.398711 -0.536245
C150  C     C_2   0.003150 0.728406 0.075249 0.456157
H110  H     H_    0.005040 0.744075 0.185073 0.009040
O74   O     O_2   0.001965 0.747208 0.951424 -0.640579
C151  C     C_2   0.522762 0.822991 0.451450 0.561331
H111  H     H_    0.510846 0.846556 0.376232 -0.138010
O75   O     O_2   0.537220 0.793098 0.393587 -0.531711
C152  C     C_2   0.501605 0.229377 0.110536 0.454392
H112  H     H_    0.507281 0.242737 0.223891 0.013043
O76   O     O_2   0.494296 0.250615 0.995998 -0.633386
N13   N     N_2   0.727507 0.353157 0.893064 -0.371254
H113  H     H_    0.695536 0.362067 0.882321 0.199674
C153  C     C_3   0.754165 0.367503 0.764444 -0.168332
H114  H     H_    0.746715 0.398999 0.740133 0.116752
H115  H     H_    0.789212 0.365260 0.796244 0.125894
H116  H     H_    0.747320 0.350712 0.656214 0.066457
N14   N     N_2   0.744075 0.660914 0.279137 -0.423136
H117  H     H_    0.773703 0.659436 0.223161 0.300009
C154  C     C_3   0.729163 0.623605 0.343116 -0.176179
H118  H     H_    0.730850 0.601060 0.250527 0.133290
H119  H     H_    0.694774 0.625989 0.382516 0.096567
H120  H     H_    0.749981 0.613878 0.444208 0.155208
N15   N     N_2   0.220382 0.854905 0.947878 -0.369700
H121  H     H_    0.188219 0.863691 0.948790 0.197725
C155  C     C_3   0.243482 0.868990 0.809749 -0.158791
H122  H     H_    0.236650 0.900772 0.790176 0.121225
H123  H     H_    0.279162 0.865319 0.826812 0.118766
H124  H     H_    0.232908 0.852775 0.703797 0.068216
N16   N     N_2   0.247767 0.163529 0.269893 -0.420702
H125  H     H_    0.277657 0.161616 0.216010 0.301059
C156  C     C_3   0.232294 0.126516 0.334941 -0.176569
H126  H     H_    0.234025 0.103696 0.243449 0.134272
H127  H     H_    0.197821 0.129275 0.372959 0.094819
H128  H     H_    0.252725 0.116892 0.437206 0.153197
N17   N     N_2   0.160697 0.796188 0.846381 -0.399159
H129  H     H_    0.164818 0.818360 0.763394 0.202386
C157  C     C_3   0.122464 0.801610 0.942990 -0.225417
H130  H     H_    0.125604 0.828633 0.013256 0.098762
H131  H     H_    0.117922 0.776142 0.025133 0.104780
H132  H     H_    0.093110 0.804425 0.866203 0.134505
N18   N     N_2   0.176685 0.213870 0.215433 -0.373807
H133  H     H_    0.166560 0.184997 0.216546 0.207883
C158  C     C_3   0.188691 0.227634 0.059739 -0.141149
H134  H     H_    0.217200 0.210775 0.017657 0.121462
H135  H     H_    0.196371 0.259494 0.060794 0.127384
H136  H     H_    0.161000 0.223182 0.977031 0.113678
N19   N     N_2   0.671367 0.293931 0.771061 -0.390689
H137  H     H_    0.679520 0.314608 0.685969 0.200076
C159  C     C_3   0.630723 0.302841 0.848774 -0.192900
H138  H     H_    0.633363 0.330225 0.916708 0.088468
H139  H     H_    0.621808 0.278705 0.931915 0.110233
H140  H     H_    0.604493 0.306986 0.759313 0.116831
N20   N     N_2   0.673041 0.711483 0.228131 -0.371219
H141  H     H_    0.662858 0.682633 0.227163 0.209448
C160  C     C_3   0.685412 0.725796 0.073474 -0.143854
H142  H     H_    0.714221 0.709301 0.031554 0.118145
H143  H     H_    0.692840 0.757672 0.076187 0.122287
H144  H     H_    0.658008 0.721422 0.989461 0.114351
N21   N     N_2   0.876781 0.313016 0.495387 -0.382735
H145  H     H_    0.901336 0.302436 0.568117 0.228715
C161  C     C_3   0.834963 0.317075 0.571327 -0.205629
H146  H     H_    0.840062 0.321958 0.699093 0.096964
H147  H     H_    0.816034 0.289587 0.557348 0.121297
H148  H     H_    0.815735 0.341941 0.519559 0.091593
N22   N     N_2   0.887042 0.694347 0.940284 -0.384571
H149  H     H_    0.899797 0.694672 0.052633 0.234291
C162  C     C_3   0.898597 0.728733 0.847341 -0.234468
H150  H     H_    0.891724 0.755535 0.915485 0.130983
H151  H     H_    0.879522 0.730535 0.735913 0.102674
H152  H     H_    0.933684 0.727885 0.820380 0.144292
N23   N     N_2   0.373018 0.816342 0.506935 -0.384127
H153  H     H_    0.397032 0.805993 0.582479 0.228606
C163  C     C_3   0.333267 0.826503 0.587564 -0.239473
H154  H     H_    0.338357 0.853419 0.656927 0.109088
H155  H     H_    0.323835 0.802071 0.669008 0.112587
H156  H     H_    0.306171 0.831552 0.501947 0.118539
N24   N     N_2   0.387254 0.194462 0.946015 -0.383838
H157  H     H_    0.398762 0.193540 0.060175 0.232630
C164  C     C_3   0.400839 0.229318 0.860168 -0.212180
H158  H     H_    0.396888 0.255366 0.935565 0.139576
H159  H     H_    0.380711 0.234143 0.752534 0.095439
H160  H     H_    0.435514 0.226541 0.828042 0.140909
N25   N     N_2   0.111499 0.686222 0.691510 -0.376281
H161  H     H_    0.110926 0.684635 0.570419 0.232058
C165  C     C_3   0.081994 0.714297 0.759619 -0.063349
H162  H     H_    0.078472 0.740326 0.679578 0.123892
H163  H     H_    0.094901 0.724197 0.873958 0.097446
H164  H     H_    0.049612 0.700950 0.778988 0.105403
N26   N     N_2   0.162236 0.350695 0.143194 -0.399279
H165  H     H_    0.151910 0.354459 0.028079 0.228823
C166  C     C_3   0.208716 0.356793 0.164707 -0.225518
H166  H     H_    0.225622 0.327937 0.167248 0.089757
H167  H     H_    0.216286 0.372068 0.275911 0.127382
H168  H     H_    0.221791 0.374798 0.065317 0.163291
N27   N     N_2   0.601148 0.197138 0.729282 -0.388441
H169  H     H_    0.603010 0.194962 0.608466 0.248515
C167  C     C_3   0.566453 0.222950 0.776533 -0.182827
H170  H     H_    0.566282 0.249734 0.700032 0.122872
H171  H     H_    0.571620 0.231627 0.899945 0.116737
H172  H     H_    0.534342 0.208649 0.764049 0.114487
N28   N     N_2   0.655409 0.844603 0.157434 -0.401992
H173  H     H_    0.643721 0.846364 0.043620 0.221923
C168  C     C_3   0.702196 0.850412 0.170086 -0.199245
H174  H     H_    0.718908 0.821518 0.167601 0.082255
H175  H     H_    0.711721 0.865127 0.280794 0.150646
H176  H     H_    0.713785 0.868750 0.069103 0.138128
C169  C     C_2   0.171248 0.461920 0.988716 0.479550
H177  H     H_    0.146006 0.440110 0.975071 0.025304
O77   O     O_2   0.209216 0.450969 0.993637 -0.632278
C170  C     C_2   0.181008 0.527826 0.461986 0.492463
H178  H     H_    0.159100 0.550758 0.419886 0.040097
O78   O     O_2   0.219822 0.535353 0.474666 -0.611913
C171  C     C_2   0.664578 0.955005 0.204962 0.467214
H179  H     H_    0.646135 0.951059 0.311351 -0.071073
O79   O     O_2   0.700808 0.940111 0.198807 -0.630674
C172  C     C_2   0.623658 0.051251 0.609577 0.515381
H180  H     H_    0.589172 0.051232 0.635923 -0.015625
O80   O     O_2   0.646315 0.078926 0.648869 -0.637718

loop_
_geom_bond_atom_site_label_1
_geom_bond_atom_site_label_2
_ccdc_geom_bond_type
O13   P6    S    
Ba4   O40   S    
O9    P9    S    
N22   H149  S    
C51   C55   A    
O34   P2    S    
Ba4   O4    S    
N27   H169  S    
C79   C83   S    
C167  H170  S    
C155  H124  S    
C91   H35   S    
C38   C54   A    
C126  C146  S    
C141  H101  S    
C12   O20   D    
C140  H98   S    
C122  O46   S    
C113  H81   S    
O1    P1    D    
C94   C134  S    
N18   C158  S    
N17   C157  S    
C9    N1    Am   
C115  O8    S    
C159  H139  S    
O57   P9    S    
C70   C110  A    
C168  H176  S    
C77   H45   S    
C5    C9    A    
C4    H28   S    
O42   P13   D    
Ba3   O3    S    
C7    C11   A    
C8    C12   A    
Ba1   O1    S    
C111  H63   S    
C66   C70   A    
C91   H79   S    
C109  H61   S    
C58   O26   D    
C43   C49   A    
C153  H115  S    
C63   N7    Am   
C26   H42   S    
O44   P15   D    
C73   C109  A    
C112  H64   S    
C135  H55   S    
C161  H148  S    
C90   H74   S    
N28   H173  S    
C101  H49   S    
C142  H102  S    
C97   C133  D    
O51   P16   S    
C164  H160  S    
C169  H177  S    
C13   C17   A    
C100  C136  D    
C11   N3    Am   
C28   C30   A    
C166  H168  S    
C113  C169  S    
C165  H163  S    
C97   P1    S    
C171  O79   D    
C120  H8    S    
C74   C78   A    
C45   O9    S    
C147  H107  S    
C132  C152  S    
C146  H106  S    
C115  H83   S    
Ba1   O57   S    
Ba2   P6    S    
Ba3   P3    S    
C70   P9    S    
C122  H14   S    
C114  O5    S    
C15   O23   D    
C78   H46   S    
C154  H118  S    
O48   P4    S    
C49   N13   S    
C71   C111  A    
Ba3   O16   S    
C155  H122  S    
C161  H146  S    
C140  H100  S    
C157  H131  S    
C12   N4    Am   
Ba3   O36   S    
O33   P1    S    
C76   C112  A    
C80   C84   S    
C63   O31   D    
C153  H114  S    
C53   C57   A    
O62   P10   D    
C115  C119  S    
C9    O17   D    
C156  H126  S    
C25   C31   A    
C55   C59   A    
C92   H76   S    
C26   C32   A    
C56   C60   A    
O39   P16   S    
O12   P12   S    
Ba1   O13   S    
C158  H134  S    
C115  C171  S    
C71   P12   S    
O46   P2    S    
C89   H33   S    
C117  H9    S    
C1    H25   S    
C118  H6    S    
N25   H161  S    
C132  O52   S    
C123  C127  S    
C164  H159  S    
C124  H16   S    
C116  O7    S    
C121  C125  S    
C138  H90   S    
C65   N25   S    
C48   H72   S    
C99   C103  A    
Ba4   P4    S    
C45   C89   S    
N19   H137  S    
C74   P5    S    
C75   P8    S    
C76   P7    S    
C47   C91   S    
N15   C155  S    
N10   C138  S    
C145  H105  S    
C75   C111  A    
C114  H82   S    
C107  N7    S    
C42   N18   S    
C21   C39   A    
C152  H112  S    
C22   C40   A    
C122  C142  S    
C162  H150  S    
C14   O22   D    
Ba4   O35   S    
C1    C129  S    
C167  H171  S    
C127  H23   S    
Ba2   O13   S    
N24   C164  S    
O5    P5    S    
N9    C137  S    
Ba1   O37   S    
C157  H130  S    
C127  C147  S    
Ba3   O39   S    
C150  H110  S    
C67   N27   S    
C114  C118  S    
C3    H27   S    
N11   C139  S    
C15   N3    Am   
C130  C150  S    
C13   N1    Am   
O14   P5    S    
O10   P10   S    
C88   N24   S    
C33   C61   A    
C154  H120  S    
N20   C160  S    
O35   P3    S    
C106  N6    S    
C39   C55   A    
C126  H22   S    
C131  H3    S    
C93   P14   S    
C116  H84   S    
O2    P2    D    
C95   C135  S    
C95   P16   S    
C93   C133  S    
C101  C105  A    
C160  H143  S    
O52   P15   S    
C140  H99   S    
C17   C41   A    
C31   H39   S    
C156  H128  S    
O58   P10   S    
C19   C43   A    
C29   H37   S    
C20   C44   A    
C124  C144  S    
C170  H178  S    
C6    C10   A    
C158  H136  S    
C139  H95   S    
C46   C90   S    
C1    H57   S    
O53   P5    D    
C134  H54   S    
C148  O72   D    
Ba4   O15   S    
C59   O27   D    
N12   C140  S    
C144  O68   D    
C100  P4    S    
C138  H92   S    
C125  H21   S    
C127  H19   S    
C123  C143  S    
O7    P7    S    
C46   H66   S    
C125  C145  S    
O8    P8    S    
C143  O67   D    
C36   C64   A    
C4    H60   S    
C81   N1    S    
C102  H50   S    
Ba3   Ba4   S    
O50   P13   S    
C64   O32   D    
C65   C81   A    
C59   N7    Am   
O37   P14   S    
C2    H30   S    
C162  H152  S    
N16   C156  S    
C17   C21   A    
C137  H88   S    
C147  O71   D    
C14   C18   A    
C103  C107  A    
C47   O11   S    
C20   C24   A    
C66   N26   S    
C155  H123  S    
C98   P2    S    
C73   P6    S    
C16   N4    Am   
C61   N5    Am   
Ba2   O58   S    
O40   P15   S    
O36   P4    S    
N17   H129  S    
C84   N4    S    
C168  H175  S    
C68   N28   S    
C33   C37   A    
C172  H180  S    
C44   N20   S    
N26   H165  S    
C36   C40   A    
C41   C51   A    
C42   C52   A    
C104  H52   S    
C87   C95   S    
C124  O48   S    
C77   C81   S    
C64   N8    Am   
C54   C58   A    
O63   P11   D    
C2    H26   S    
C3    H31   S    
C4    C132  S    
C32   H40   S    
C57   O25   D    
C76   C80   A    
Ba1   O53   S    
C5    C21   A    
N14   H117  S    
C161  H147  S    
C99   P3    S    
C149  O73   D    
C85   N21   S    
C130  O50   S    
C8    C24   A    
C118  H10   S    
Ba1   P1    S    
C142  O66   D    
C10   N2    Am   
N13   C153  S    
C50   C54   A    
C153  H116  S    
C122  C126  S    
C163  H155  S    
C52   N16   S    
C69   C109  A    
Ba4   P8    S    
C166  H167  S    
C116  C172  S    
C105  N5    S    
Ba2   O2    S    
Ba1   O34   S    
N18   H133  S    
N23   C163  S    
C146  O70   D    
C57   N5    Am   
C110  H62   S    
C65   C69   A    
C68   C72   A    
C169  O77   D    
C137  H86   S    
C30   C34   A    
C159  H140  S    
N27   C167  S    
C74   C110  A    
Ba3   O15   S    
C87   N23   S    
C125  H17   S    
C141  O65   D    
C16   O24   D    
O6    P6    S    
Ba2   O38   S    
C119  H11   S    
C89   H73   S    
C165  H162  S    
C131  O51   S    
C123  H15   S    
C60   N8    Am   
C49   C53   A    
C88   C108  D    
C51   N15   S    
C78   C82   S    
C29   C33   A    
C104  C108  A    
C31   C35   A    
N24   H157  S    
C128  H24   S    
C130  H2    S    
N22   C162  S    
C73   C77   A    
C94   P13   S    
C151  O75   D    
C128  H20   S    
O49   P14   S    
C67   C83   A    
C18   C42   A    
C45   H65   S    
C113  O6    S    
C83   N3    S    
O59   P11   S    
C30   H38   S    
C100  C104  A    
N15   H121  S    
C92   H36   S    
O54   P6    D    
C170  O78   D    
C152  O76   D    
C10   O18   D    
C129  H1    S    
C108  N8    S    
C126  H18   S    
O4    P4    D    
Ba2   O14   S    
C165  H164  S    
C37   C53   A    
C139  H94   S    
C132  H4    S    
O64   P12   D    
C75   C79   A    
N9    H85   S    
Ba3   O55   S    
C121  O45   S    
C40   C56   A    
C150  O74   D    
C47   H67   S    
N21   H145  S    
N11   H93   S    
N10   H89   S    
C52   C56   A    
O38   P13   S    
C18   C22   A    
C45   H69   S    
C159  H138  S    
C154  H119  S    
C1    H29   S    
C43   N19   S    
C62   O30   D    
O41   P14   D    
C4    H32   S    
N26   C166  S    
O43   P16   D    
C157  H132  S    
C41   N17   S    
C143  H103  S    
C114  C170  S    
C92   H80   S    
O15   P8    S    
C91   H75   S    
O16   P7    S    
C15   C19   A    
C151  H111  S    
Ba3   O59   S    
N12   H97   S    
Ba4   O60   S    
C160  H142  S    
C164  H158  S    
O47   P3    S    
N16   H125  S    
C44   C50   A    
C156  H127  S    
C13   O21   D    
Ba4   O56   S    
C25   H41   S    
C89   H77   S    
C131  C151  S    
C34   C38   A    
Ba1   O14   S    
C48   O12   S    
N14   C154  S    
C158  H135  S    
C120  N12   S    
C117  N9    S    
C85   C105  D    
C90   H78   S    
Ba1   Ba2   S    
C98   C134  D    
C87   C107  D    
N25   C165  S    
C6    C26   A    
Ba4   O16   S    
C113  C117  S    
C96   C136  S    
C116  C120  S    
C34   C62   A    
C138  H91   S    
C27   C29   A    
C98   C102  A    
C7    C23   A    
N19   C159  S    
C14   N2    Am   
O60   P12   S    
C5    C25   A    
Ba2   O54   S    
C72   P11   S    
C6    C22   A    
C120  H12   S    
C7    C27   A    
C118  N10   S    
N21   C161  S    
C129  C149  S    
C8    C28   A    
O56   P8    D    
C79   H47   S    
C148  H108  S    
Ba2   P2    S    
C69   P10   S    
C124  C128  S    
Ba3   P7    S    
C68   C84   A    
C121  H13   S    
C162  H151  S    
C97   C101  A    
C167  H172  S    
C133  H53   S    
C137  H87   S    
C16   C20   A    
C32   C36   A    
C171  H179  S    
C2    H58   S    
C96   P15   S    
C35   C39   A    
C58   N6    Am   
Ba2   O33   S    
C119  N11   S    
O11   P11   S    
C85   C93   S    
C128  C148  S    
C50   N14   S    
C3    C131  S    
C99   C135  D    
O61   P9    D    
C23   C37   A    
N20   H141  S    
C168  H174  S    
O3    P3    D    
C172  O80   D    
C136  H56   S    
C46   H70   S    
Ba1   P5    S    
C90   H34   S    
O45   P1    S    
C119  H7    S    
C19   C23   A    
C82   N2    S    
C117  H5    S    
C86   C106  D    
C103  H51   S    
C66   C82   A    
C160  H144  S    
C88   C96   S    
C102  C106  A    
C121  C141  S    
C27   H43   S    
C48   H68   S    
C35   C63   A    
C28   H44   S    
C46   O10   S    
C86   N22   S    
C139  H96   S    
C149  H109  S    
C62   N6    Am   
C123  O47   S    
C163  H156  S    
C2    C130  S    
N13   H113  S    
C67   C71   A    
C144  H104  S    
C11   O19   D    
C129  O49   S    
C24   C38   A    
C72   C112  A    
C48   C92   S    
C3    H59   S    
C166  H166  S    
C80   H48   S    
C163  H154  S    
C47   H71   S    
C145  O69   D    
N23   H153  S    
N28   C168  S    
O55   P7    D    
C61   O29   D    
C86   C94   S    
C60   O28   D    
