data_mof_unit_48254.cif
_audit_creation_date              2012-10-26T18:44:12-0400
_audit_creation_method            fapswitch 2.2
_symmetry_space_group_name_H-M    P1
_symmetry_Int_Tables_number       1
_space_group_crystal_system       triclinic
_cell_length_a                    19.319279
_cell_length_b                    9.080436
_cell_length_c                    7.752865
_cell_angle_alpha                 89.999742
_cell_angle_beta                  90.360173
_cell_angle_gamma                 90.000474
_cell_volume                      1360.0386704

loop_
_atom_site_label
_atom_site_type_symbol
_atom_type_description
_atom_site_fract_x
_atom_site_fract_y
_atom_site_fract_z
_atom_type_partial_charge
C1    C     C_R   0.500000 0.219916 0.500000 0.524262
C2    C     C_R   0.251706 0.489013 0.344716 0.202587
C3    C     C_R   0.184473 0.409672 0.650524 -0.130667
C4    C     C_R   0.815527 0.409672 0.349477 -0.130628
C5    C     C_R   0.819268 0.459247 0.655460 -0.121367
C6    C     C_R   0.180731 0.459248 0.344540 -0.121359
C7    C     C_R   0.146246 0.424891 0.497604 -0.060392
C8    C     C_R   0.853753 0.424889 0.502396 -0.060409
C9    C     C_R   0.290673 0.473019 0.499134 -0.000066
C10   C     C_R   0.709326 0.473020 0.500865 -0.000090
C11   C     C_R   0.929791 0.411671 0.501210 0.346701
C12   C     C_R   0.500000 0.780109 0.500000 0.545381
C13   C     C_R   0.070208 0.411673 0.498790 0.346703
C14   C     C_3   0.313357 0.259868 0.817439 0.030341
C15   C     C_3   0.350909 0.237049 0.989944 -0.210095
C16   C     C_3   0.394750 0.097148 0.990966 -0.489953
C17   C     C_3   0.686637 0.259870 0.182568 0.030337
C18   C     C_3   0.649082 0.237053 0.010068 -0.210094
C19   C     C_3   0.605239 0.097152 0.009048 -0.489952
C20   C     C_3   0.718533 0.674724 0.841725 0.050702
C21   C     C_3   0.784744 0.718184 0.939913 -0.263517
C22   C     C_3   0.778527 0.870346 0.021732 -0.484480
C23   C     C_R   0.366761 0.494397 0.499584 0.552470
C24   C     C_3   0.281448 0.674692 0.158205 0.050693
C25   C     C_3   0.215264 0.718048 0.059835 -0.263464
C26   C     C_3   0.221482 0.870168 0.977903 -0.484486
C27   C     C_R   0.633239 0.494398 0.500416 0.552451
C28   C     C_1   0.500000 0.065408 0.500000 -0.094979
C29   C     C_1   0.500000 0.934677 0.500000 -0.079101
C30   C     C_R   0.256247 0.428079 0.651679 0.195606
C31   C     C_R   0.743752 0.428078 0.348321 0.195646
C32   C     C_R   0.748294 0.489017 0.655282 0.202592
Cu1   Cu    Cu3+1 0.500000 0.500000 0.669080 0.995800
Cu2   Cu    Cu3+1 0.500000 0.500000 0.330920 0.995803
H1    H     H_    0.158984 0.381398 0.770116 0.155999
H2    H     H_    0.419254 0.082988 0.119852 0.158823
H3    H     H_    0.436270 0.104764 0.892964 0.170018
H4    H     H_    0.650689 0.233040 0.289959 0.137197
H5    H     H_    0.731669 0.183214 0.188435 0.110295
H6    H     H_    0.614676 0.332342 0.983850 0.232992
H7    H     H_    0.687747 0.230970 0.904741 0.175312
H8    H     H_    0.637702 0.999289 0.036737 0.135003
H9    H     H_    0.580727 0.083000 0.880171 0.158825
H10   H     H_    0.563725 0.104759 0.107066 0.170020
H11   H     H_    0.673079 0.701382 0.923156 0.178708
H12   H     H_    0.841015 0.381398 0.229884 0.156017
H13   H     H_    0.712797 0.741782 0.721734 0.099948
H14   H     H_    0.795647 0.636267 0.043073 0.208841
H15   H     H_    0.829096 0.719573 0.849541 0.150031
H16   H     H_    0.764207 0.953731 0.922886 0.145923
H17   H     H_    0.828907 0.902094 0.080561 0.161284
H18   H     H_    0.738957 0.868574 0.124949 0.144680
H19   H     H_    0.326927 0.701371 0.076875 0.178706
H20   H     H_    0.287121 0.741797 0.278180 0.099919
H21   H     H_    0.204409 0.636064 0.956718 0.208922
H22   H     H_    0.170880 0.719452 0.150110 0.150007
H23   H     H_    0.847639 0.466473 0.776016 0.154953
H24   H     H_    0.235739 0.953626 0.076720 0.145919
H25   H     H_    0.171120 0.901829 0.918915 0.161267
H26   H     H_    0.261095 0.868375 0.874793 0.144704
H27   H     H_    0.152361 0.466465 0.223982 0.154937
H28   H     H_    0.349306 0.233033 0.710051 0.137203
H29   H     H_    0.268322 0.183216 0.811569 0.110299
H30   H     H_    0.385315 0.332338 0.016169 0.233002
H31   H     H_    0.312241 0.230962 0.095266 0.175313
H32   H     H_    0.362288 0.999286 0.963259 0.135003
N1    N     N_1   0.500000 0.500000 0.076820 -0.097859
N2    N     N_1   0.500000 0.500000 0.923180 -0.097858
N3    N     N_R   0.033593 0.410545 0.348785 -0.228761
N4    N     N_R   0.966406 0.410544 0.651215 -0.228760
N5    N     N_R   0.964760 0.410324 0.349958 -0.227828
N6    N     N_R   0.035239 0.410324 0.650043 -0.227830
O1    O     O_R   0.500000 0.288390 0.642760 -0.517545
O2    O     O_3   0.708555 0.408201 0.194143 -0.528739
O3    O     O_3   0.716709 0.521109 0.810549 -0.540191
O4    O     O_3   0.283295 0.521088 0.189448 -0.540212
O5    O     O_R   0.500000 0.711610 0.357240 -0.499953
O6    O     O_R   0.500000 0.711610 0.642760 -0.499955
O7    O     O_R   0.500000 0.288390 0.357240 -0.517546
O8    O     O_R   0.400140 0.500000 0.642830 -0.464619
O9    O     O_R   0.599860 0.500000 0.357170 -0.464621
O10   O     O_R   0.599860 0.500000 0.642830 -0.476001
O11   O     O_R   0.400140 0.500000 0.357170 -0.475992
O12   O     O_3   0.291445 0.408201 0.805856 -0.528778

loop_
_geom_bond_atom_site_label_1
_geom_bond_atom_site_label_2
_ccdc_geom_bond_type
C10   C27   S    
C12   C29   S    
C25   H22   S    
C14   O12   S    
C4    C8    A    
C32   O3    S    
C21   H15   S    
C11   N4    A    
C4    H12   S    
C23   O11   A    
C6    H27   S    
C28   C29   T    
C3    C7    A    
Cu2   O5    S    
C11   N5    A    
Cu1   O6    S    
C24   H20   S    
C15   C16   S    
C15   H31   S    
C18   C19   S    
C17   H5    S    
N3    N5    A    
C18   H6    S    
C10   C31   A    
C12   O6    A    
C1    C28   S    
C15   H30   S    
Cu2   O9    S    
C23   O8    A    
Cu1   O10   S    
C20   H11   S    
C19   H8    S    
C16   H3    S    
C22   H16   S    
C5    C32   A    
C21   C22   S    
C2    C6    A    
C19   H9    S    
Cu1   Cu2   S    
N1    N2    T    
C20   H13   S    
C27   O9    A    
C24   C25   S    
C18   H7    S    
C24   O4    S    
C31   O2    S    
C25   C26   S    
C20   O3    S    
C3    C30   A    
Cu2   O7    S    
C3    H1    S    
C12   O5    A    
C17   C18   S    
C26   H24   S    
C9    C30   A    
Cu1   O1    S    
C17   O2    S    
C1    O7    A    
C16   H32   S    
Cu2   O11   S    
C2    O4    S    
C19   H10   S    
C22   H18   S    
C26   H25   S    
C27   O10   A    
C9    C23   S    
C25   H21   S    
Cu2   N1    S    
C5    C8    A    
Cu1   O8    S    
C6    C7    A    
C13   N6    A    
C5    H23   S    
C1    O1    A    
C21   H14   S    
C24   H19   S    
C16   H2    S    
C13   N3    A    
C8    C11   S    
C14   H29   S    
C17   H4    S    
C30   O12   S    
C4    C31   A    
C10   C32   A    
C7    C13   S    
C20   C21   S    
C14   C15   S    
N4    N6    A    
C2    C9    A    
C26   H26   S    
Cu1   N2    S    
C22   H17   S    
C14   H28   S    
