data_mof_unit_58226.cif
_audit_creation_date              2012-12-10T18:11:47-0500
_audit_creation_method            fapswitch 2.2
_symmetry_space_group_name_H-M    P1
_symmetry_Int_Tables_number       1
_space_group_crystal_system       triclinic
_cell_length_a                    10.491555
_cell_length_b                    12.61217
_cell_length_c                    13.083834
_cell_angle_alpha                 82.101371
_cell_angle_beta                  90.253057
_cell_angle_gamma                 102.22736
_cell_volume                      1675.39803946

loop_
_atom_site_label
_atom_site_type_symbol
_atom_type_description
_atom_site_fract_x
_atom_site_fract_y
_atom_site_fract_z
_atom_type_partial_charge
C1    C     C_R   0.488141 0.438638 0.691309 0.849103
C2    C     C_R   0.503416 0.447702 0.974101 0.098352
C3    C     C_R   0.548708 0.463377 0.870866 0.095960
C4    C     C_R   0.742202 0.500336 0.500068 0.836374
C5    C     C_R   0.555397 0.528340 0.036864 0.084392
C6    C     C_R   0.665642 0.611733 0.002185 0.143341
C7    C     C_R   0.720160 0.616718 0.904280 -0.258540
C8    C     C_R   0.661858 0.543925 0.838938 -0.213974
C9    C     C_R   0.498866 0.529205 0.132544 -0.297955
C10   C     C_R   0.672429 0.680540 0.167351 0.165705
C11   C     C_R   0.478258 0.399008 0.801350 -0.114452
C12   C     C_3   0.066667 0.599122 0.517424 -0.134677
C13   C     C_R   0.318719 0.088873 0.347297 -0.314751
C14   C     C_R   0.653957 0.798459 0.629723 -0.015733
C15   C     C_R   0.687056 0.902841 0.658883 0.074334
C16   C     C_R   0.521598 0.561466 0.308809 0.848711
C17   C     C_R   0.627824 0.984765 0.609414 -0.244461
C18   C     C_R   0.536499 0.962311 0.531141 -0.013983
C19   C     C_R   0.507319 0.854785 0.504964 0.228126
C20   C     C_R   0.473076 0.041787 0.478015 -0.000687
C21   C     C_R   0.382084 0.011895 0.400563 0.201777
C22   C     C_R   0.355560 0.905655 0.376575 -0.304028
C23   C     C_3   0.964037 0.521284 0.592335 -0.183493
C24   C     C_R   0.417728 0.828492 0.427906 -0.221296
C25   C     C_R   0.496064 0.150529 0.498072 -0.058276
C26   C     C_R   0.345964 0.194856 0.370885 0.013662
C27   C     C_R   0.257835 0.499754 0.499855 0.854755
C28   C     C_3   0.933511 0.401323 0.482435 -0.131636
C29   C     C_3   0.022624 0.422486 0.574831 -0.176962
C30   C     C_3   0.122522 0.500083 0.499880 0.031648
C31   C     C_3   0.036109 0.479179 0.407535 -0.182480
C32   C     C_3   0.977530 0.577961 0.425043 -0.185848
C33   C     C_3   0.782617 0.925462 0.743809 -0.434703
C34   C     C_3   0.877599 0.500319 0.499974 0.036704
C35   C     C_3   0.920368 0.918537 0.710689 -0.340139
C36   C     C_3   0.017132 0.942626 0.796235 -0.892442
C37   C     C_3   0.745491 0.758169 0.236798 -0.416858
C38   C     C_3   0.681111 0.855450 0.239808 -0.800940
C39   C     C_R   0.721312 0.688164 0.066488 -0.244378
C40   C     C_R   0.560338 0.597932 0.200548 -0.085636
C41   C     C_R   0.383053 0.305604 0.837873 -0.198403
C42   C     C_R   0.351557 0.280485 0.942591 -0.153120
C43   C     C_R   0.408368 0.351968 0.010216 -0.192803
H1    H     H_    0.045720 0.359234 0.635589 0.132628
H2    H     H_    0.563173 0.181327 0.554863 0.127369
H3    H     H_    0.697639 0.733441 0.667048 0.138041
H4    H     H_    0.875514 0.320460 0.468215 0.143695
H5    H     H_    0.654827 0.064570 0.633626 0.133912
H6    H     H_    0.395151 0.749046 0.404431 0.215489
H7    H     H_    0.070153 0.461966 0.332511 0.128538
H8    H     H_    0.955095 0.641287 0.364123 0.121035
H9    H     H_    0.124691 0.680007 0.531583 0.151186
H10   H     H_    0.930067 0.538614 0.667340 0.125334
H11   H     H_    0.806557 0.678094 0.877447 0.146390
H12   H     H_    0.408677 0.472888 0.158417 0.146539
H13   H     H_    0.805971 0.751438 0.039268 0.132747
H14   H     H_    0.022070 0.026661 0.814978 0.258983
H15   H     H_    0.987471 0.882371 0.866721 0.254031
H16   H     H_    0.115685 0.936657 0.770281 0.254182
H17   H     H_    0.920319 0.835210 0.691887 0.212488
H18   H     H_    0.953023 0.978846 0.640642 0.229456
H19   H     H_    0.785608 0.008298 0.765204 0.205008
H20   H     H_    0.749112 0.864982 0.813556 0.203519
H21   H     H_    0.692847 0.907576 0.163358 0.244748
H22   H     H_    0.575521 0.827309 0.259020 0.270056
H23   H     H_    0.329614 0.254442 0.785063 0.154819
H24   H     H_    0.727694 0.905427 0.298861 0.242099
H25   H     H_    0.753198 0.715299 0.315656 0.222796
H26   H     H_    0.847903 0.790361 0.208125 0.184809
H27   H     H_    0.378813 0.328911 0.090482 0.130168
H28   H     H_    0.278706 0.207899 0.970882 0.139186
H29   H     H_    0.707062 0.550175 0.763537 0.145368
H30   H     H_    0.298321 0.255888 0.330482 0.126098
H31   H     H_    0.286941 0.882118 0.317289 0.152344
H32   H     H_    0.249261 0.067336 0.288044 0.139283
N1    N     N_R   0.432930 0.222190 0.444670 -0.100563
N2    N     N_R   0.566370 0.776980 0.554790 -0.139209
O1    O     O_R   0.467970 0.366730 0.627150 -0.615542
O2    O     O_R   0.510820 0.544830 0.662520 -0.605792
O3    O     O_R   0.664630 0.410960 0.482340 -0.621369
O4    O     O_R   0.707470 0.589060 0.517710 -0.635600
O5    O     O_R   0.489180 0.455170 0.337480 -0.608359
O6    O     O_R   0.532030 0.633270 0.372850 -0.631217
O7    O     O_R   0.292530 0.410940 0.482290 -0.617847
O8    O     O_R   0.335370 0.589040 0.517660 -0.636112
Zn1   Zn    Zn3+2 0.471390 0.381080 0.476380 0.932469
Zn2   Zn    Zn3+2 0.528610 0.618920 0.523620 0.916504

loop_
_geom_bond_atom_site_label_1
_geom_bond_atom_site_label_2
_ccdc_geom_bond_type
O6    Zn2   S    
C28   H4    S    
C37   H26   S    
C41   C42   A    
C35   C36   S    
C1    C11   S    
C17   H5    S    
C36   H16   S    
O2    Zn2   S    
C7    C8    A    
C14   H3    S    
C31   C32   S    
C12   C23   S    
C37   C38   S    
C10   C37   S    
C23   C29   S    
C27   O7    A    
O7    Zn1   S    
C4    O3    A    
C36   H15   S    
C5    C6    A    
C20   C25   A    
C37   H25   S    
C26   H30   S    
C10   C40   A    
C18   C19   A    
C14   N2    A    
C19   N2    A    
O3    Zn1   S    
C4    O4    A    
C13   H32   S    
C33   H19   S    
C26   N1    A    
C11   C41   A    
C9    H12   S    
O1    Zn1   S    
C28   C34   S    
C21   C22   A    
C12   C32   S    
C27   C30   S    
C1    O1    A    
C12   H9    S    
C27   O8    A    
C23   H10   S    
C6    C7    A    
C38   H21   S    
O8    Zn2   S    
C4    C34   S    
C8    H29   S    
C3    C8    A    
O5    Zn1   S    
C16   O6    A    
C10   C39   A    
C32   C34   S    
C32   H8    S    
C5    C9    A    
C29   C30   S    
C39   H13   S    
C38   H22   S    
C2    C43   A    
C33   H20   S    
C23   C34   S    
C16   O5    A    
C17   C18   A    
C13   C21   A    
C35   H18   S    
C38   H24   S    
O4    Zn2   S    
C16   C40   S    
C36   H14   S    
C43   H27   S    
C29   H1    S    
C1    O2    A    
C22   C24   A    
C13   C26   A    
C2    C5    A    
C42   C43   A    
C22   H31   S    
C31   H7    S    
C25   H2    S    
C24   H6    S    
C15   C17   A    
C28   C29   S    
C12   C30   S    
C14   C15   A    
C28   C31   S    
C41   H23   S    
C25   N1    A    
C19   C24   A    
C30   C31   S    
C42   H28   S    
C33   C35   S    
C2    C3    A    
C18   C20   A    
C9    C40   A    
C3    C11   A    
C20   C21   A    
N2    Zn2   S    
N1    Zn1   S    
C6    C39   A    
C35   H17   S    
C7    H11   S    
C15   C33   S    
