data_mof_unit_65882.cif
_audit_creation_date              2012-10-26T19:54:04-0400
_audit_creation_method            fapswitch 2.2
_symmetry_space_group_name_H-M    P1
_symmetry_Int_Tables_number       1
_space_group_crystal_system       triclinic
_cell_length_a                    15.896876
_cell_length_b                    15.999082
_cell_length_c                    14.769276
_cell_angle_alpha                 90.064819
_cell_angle_beta                  90.033421
_cell_angle_gamma                 90.150867
_cell_volume                      3756.33398255

loop_
_atom_site_label
_atom_site_type_symbol
_atom_type_description
_atom_site_fract_x
_atom_site_fract_y
_atom_site_fract_z
_atom_type_partial_charge
C1    C     C_R   0.500052 0.340867 0.499932 0.549450
C2    C     C_1   0.499834 0.748187 0.500124 0.011723
C3    C     C_R   0.555402 0.551666 0.952210 -0.094925
C4    C     C_R   0.444598 0.448333 0.047790 -0.094925
C5    C     C_R   0.499994 0.500007 0.902863 0.004277
C6    C     C_R   0.500006 0.499993 0.097137 0.004277
C7    C     C_R   0.444593 0.448339 0.952009 -0.090565
C8    C     C_R   0.555407 0.551661 0.047991 -0.090566
C9    C     C_1   0.499979 0.500015 0.802714 0.151209
C10   C     C_1   0.500021 0.499985 0.197286 0.151209
C11   C     C_R   0.339484 0.499960 0.499963 0.548980
C12   C     C_R   0.499948 0.659133 0.500068 0.549450
C13   C     C_R   0.660516 0.500040 0.500037 0.548979
C14   C     C_3   0.975887 0.427579 0.537957 -0.019088
C15   C     C_3   0.024113 0.572421 0.462043 -0.019088
C16   C     C_3   0.030060 0.435797 0.451458 0.092426
C17   C     C_3   0.969940 0.564203 0.548542 0.092426
C18   C     C_1   0.250070 0.501005 0.499796 0.008506
C19   C     C_1   0.749930 0.498994 0.500204 0.008506
C20   C     C_3   0.029863 0.495598 0.584839 0.093473
C21   C     C_3   0.970137 0.504402 0.415161 0.093473
C22   C     C_3   0.083285 0.503925 0.498277 -0.008327
C23   C     C_R   0.499642 0.912701 0.499110 0.020216
C24   C     C_3   0.916715 0.496074 0.501723 -0.008327
C25   C     C_1   0.174733 0.502435 0.499163 -0.007286
C26   C     C_1   0.825267 0.497565 0.500837 -0.007286
C27   C     C_R   0.513788 0.955786 0.580231 -0.100338
C28   C     C_R   0.486212 0.044214 0.419769 -0.100338
C29   C     C_R   0.956969 0.344196 0.581510 0.065185
C30   C     C_R   0.024225 0.293317 0.609131 -0.049690
C31   C     C_R   0.009053 0.215808 0.649585 -0.087232
C32   C     C_R   0.926590 0.188220 0.662848 -0.084370
C33   C     C_R   0.859256 0.238135 0.635625 -0.093823
C34   C     C_R   0.500358 0.087299 0.500890 0.020216
C35   C     C_R   0.874187 0.315749 0.595144 -0.065181
C36   C     C_R   0.043031 0.655804 0.418490 0.065185
C37   C     C_R   0.975775 0.706682 0.390869 -0.049690
C38   C     C_R   0.990947 0.784192 0.350415 -0.087231
C39   C     C_R   0.073409 0.811780 0.337151 -0.084370
C40   C     C_R   0.140744 0.761865 0.364375 -0.093823
C41   C     C_R   0.125813 0.684251 0.404856 -0.065181
C42   C     C_R   0.485748 0.956962 0.418415 0.105174
C43   C     C_R   0.514252 0.043038 0.581585 0.105174
C44   C     C_1   0.499723 0.823201 0.499789 -0.008734
C45   C     C_1   0.500277 0.176799 0.500211 -0.008734
C46   C     C_1   0.500166 0.251813 0.499875 0.011723
Cu1   Cu    Cu3+1 0.500020 0.500000 0.589220 1.034885
Cu2   Cu    Cu3+1 0.499980 0.500000 0.410780 1.034885
H1    H     H_    0.524487 0.921609 0.642471 0.149178
H2    H     H_    0.795335 0.216661 0.645884 0.138408
H3    H     H_    0.820769 0.352499 0.574929 0.118611
H4    H     H_    0.911423 0.686240 0.400720 0.144600
H5    H     H_    0.938732 0.822867 0.329357 0.131934
H6    H     H_    0.085139 0.871813 0.305819 0.135538
H7    H     H_    0.204665 0.783339 0.354116 0.138408
H8    H     H_    0.179231 0.647501 0.425071 0.118611
H9    H     H_    0.475513 0.078391 0.357528 0.149178
H10   H     H_    0.598867 0.592185 0.083749 0.134862
H11   H     H_    0.401133 0.407815 0.916250 0.134862
H12   H     H_    0.598861 0.592197 0.916614 0.131509
H13   H     H_    0.401139 0.407803 0.083386 0.131509
H14   H     H_    0.088577 0.313760 0.599280 0.144600
H15   H     H_    0.061268 0.177132 0.670643 0.131934
H16   H     H_    0.914861 0.128187 0.694181 0.135538
I1    I     I_    0.079585 0.335207 0.371884 -0.301651
I2    I     I_    0.920415 0.664793 0.628116 -0.301651
I3    I     I_    0.920956 0.508495 0.280082 -0.285348
I4    I     I_    0.079044 0.491505 0.719918 -0.285348
I5    I     I_    0.536263 0.104519 0.706788 -0.344177
I6    I     I_    0.463737 0.895481 0.293212 -0.344177
N1    N     N_1   0.500030 0.499980 0.276710 -0.180886
N2    N     N_1   0.499970 0.500020 0.723290 -0.180886
O1    O     O_R   0.500040 0.380310 0.575320 -0.481627
O2    O     O_R   0.499960 0.619690 0.424680 -0.481627
O3    O     O_R   0.500000 0.380310 0.424640 -0.492717
O4    O     O_R   0.500000 0.619690 0.575360 -0.492717
O5    O     O_R   0.379100 0.499990 0.575330 -0.484022
O6    O     O_R   0.620900 0.500010 0.424670 -0.484021
O7    O     O_R   0.379060 0.499990 0.424640 -0.490156
O8    O     O_R   0.620940 0.500010 0.575360 -0.490156

loop_
_geom_bond_atom_site_label_1
_geom_bond_atom_site_label_2
_ccdc_geom_bond_type
C11   C18   S    
C16   C21   S    
C12   O2    A    
C9    N2    T    
C2    C12   S    
C45   C46   T    
C17   I2    S    
C37   C38   A    
C23   C42   A    
Cu2   O7    S    
C36   C37   A    
C24   C26   S    
Cu1   O4    S    
C30   C31   A    
C1    C46   S    
C39   H6    S    
C14   C24   S    
C42   I6    S    
C17   C20   S    
C14   C20   S    
Cu2   O6    S    
C19   C26   T    
C11   O5    A    
C8    H10   S    
C15   C22   S    
Cu1   Cu2   S    
C2    C44   T    
C22   C25   S    
C23   C27   A    
C10   N1    T    
C13   O8    A    
C28   C34   A    
C43   I5    S    
C21   I3    S    
Cu2   O3    S    
C36   C41   A    
C18   C25   T    
Cu1   O8    S    
C4    C7    A    
C7    H11   S    
C17   C24   S    
C13   C19   S    
C1    O3    A    
C31   H15   S    
C32   H16   S    
C4    C6    A    
C3    C8    A    
C39   C40   A    
C5    C7    A    
C37   H4    S    
C6    C8    A    
C33   H2    S    
C28   H9    S    
C4    H13   S    
C23   C44   S    
C41   H8    S    
C5    C9    S    
C29   C30   A    
Cu2   O2    S    
C31   C32   A    
C40   H7    S    
C34   C45   S    
Cu1   O1    S    
C11   O7    A    
C40   C41   A    
C20   C22   S    
C30   H14   S    
C35   H3    S    
C14   C16   S    
Cu1   O5    S    
C14   C29   S    
C15   C36   S    
C15   C17   S    
C13   O6    A    
C16   C22   S    
C20   I4    S    
C34   C43   A    
C3    C5    A    
C6    C10   S    
C29   C35   A    
C1    O1    A    
C32   C33   A    
C12   O4    A    
C3    H12   S    
C38   C39   A    
C38   H5    S    
C28   C42   A    
C33   C35   A    
Cu1   N2    S    
C27   C43   A    
C15   C21   S    
C21   C24   S    
C16   I1    S    
Cu2   N1    S    
C27   H1    S    
