data_mof_unit_61885.cif
_audit_creation_date              2013-03-05T16:14:36-0500
_audit_creation_method            fapswitch 2.2
_symmetry_space_group_name_H-M    P1
_symmetry_Int_Tables_number       1
_space_group_crystal_system       triclinic
_cell_length_a                    44.738691
_cell_length_b                    39.036868
_cell_length_c                    21.740987
_cell_angle_alpha                 90.192494
_cell_angle_beta                  60.783511
_cell_angle_gamma                 90.223936
_cell_volume                      33138.9832778

loop_
_atom_site_label
_atom_site_type_symbol
_atom_site_description
_atom_site_fract_x
_atom_site_fract_y
_atom_site_fract_z
_atom_type_partial_charge
O1    O     O_R   0.049910 0.528880 0.450120 -0.570788
O2    O     O_R   0.950090 0.528880 0.549880 -0.583913
O3    O     O_R   0.549910 0.028880 0.450120 -0.570943
O4    O     O_R   0.450090 0.028880 0.549880 -0.583877
O5    O     O_R   0.049890 0.471110 0.450120 -0.595343
O6    O     O_R   0.950110 0.471110 0.549880 -0.580207
O7    O     O_R   0.549890 0.971110 0.450120 -0.595000
O8    O     O_R   0.450110 0.971110 0.549880 -0.580430
C1    C     C_R   0.066226 0.500039 0.433857 0.820299
C2    C     C_R   0.933770 0.499951 0.566151 0.823688
C3    C     C_R   0.566226 0.000039 0.433860 0.820102
C4    C     C_R   0.433770 0.999951 0.566156 0.823287
O9    O     O_R   1.000000 0.528880 0.590170 -0.591185
O10   O     O_R   0.000000 0.528880 0.409830 -0.516896
O11   O     O_R   0.500000 0.028880 0.590170 -0.591120
O12   O     O_R   0.500000 0.028880 0.409830 -0.516365
O13   O     O_R   0.999990 0.471110 0.590170 -0.525717
O14   O     O_R   0.000010 0.471110 0.409830 -0.602314
O15   O     O_R   0.499990 0.971110 0.590170 -0.525749
O16   O     O_R   0.500010 0.971110 0.409830 -0.601320
C5    C     C_R   0.001438 0.500064 0.617390 0.861261
C6    C     C_R   0.998779 0.499914 0.382394 0.861636
C7    C     C_R   0.501438 0.000064 0.617390 0.861109
C8    C     C_R   0.498579 0.999924 0.382595 0.860130
Cu1   Cu    Cu3+1 0.000000 0.534200 0.500000 1.085412
Cu2   Cu    Cu3+1 0.500000 0.034200 0.500000 1.086320
Cu3   Cu    Cu3+1 1.000000 0.465790 0.500000 1.043969
Cu4   Cu    Cu3+1 0.500000 0.965790 0.500000 1.044511
C9    C     C_R   0.047730 0.545606 0.639987 -0.203151
C10   C     C_R   0.951881 0.455177 0.360586 -0.202824
C11   C     C_R   0.547737 0.045599 0.639977 -0.203158
C12   C     C_R   0.452153 0.954525 0.360197 -0.202297
H1    H     H_    0.052919 0.543205 0.586141 0.165695
H2    H     H_    0.946845 0.457570 0.414328 0.166303
H3    H     H_    0.552924 0.043196 0.586133 0.165713
H4    H     H_    0.447004 0.956935 0.414015 0.166706
C13   C     C_R   0.066172 0.570369 0.653944 0.693940
C14   C     C_R   0.933034 0.430702 0.347115 0.679557
C15   C     C_R   0.566183 0.070358 0.653929 0.693979
C16   C     C_R   0.433608 0.929833 0.346367 0.679516
C17   C     C_R   0.061357 0.574160 0.721782 -0.190909
C18   C     C_R   0.937722 0.426863 0.279403 -0.200515
C19   C     C_R   0.561371 0.074150 0.721765 -0.190586
C20   C     C_R   0.438378 0.926033 0.278567 -0.202693
H5    H     H_    0.075180 0.593848 0.732887 0.179203
H6    H     H_    0.923626 0.407351 0.268624 0.174663
H7    H     H_    0.575197 0.093835 0.732865 0.179549
H8    H     H_    0.424470 0.906399 0.267567 0.174920
C21   C     C_R   0.039124 0.552323 0.775335 -0.207191
C22   C     C_R   0.960176 0.448441 0.225557 -0.217832
C23   C     C_R   0.539133 0.052317 0.775323 -0.206426
C24   C     C_R   0.460683 0.947788 0.224916 -0.214496
H9    H     H_    0.036069 0.556489 0.827272 0.159918
H10   H     H_    0.963100 0.444176 0.173766 0.161817
H11   H     H_    0.536079 0.056485 0.827259 0.161684
H12   H     H_    0.463709 0.943604 0.173010 0.162865
C25   C     C_R   0.021088 0.526132 0.761821 0.061283
C26   C     C_R   0.978548 0.474463 0.238639 0.055385
C27   C     C_R   0.521092 0.026129 0.761815 0.061080
C28   C     C_R   0.478823 0.973916 0.238300 0.061303
C29   C     C_R   0.023855 0.524121 0.694243 -0.064416
C30   C     C_R   0.976016 0.476338 0.305964 -0.061817
C31   C     C_R   0.523859 0.024117 0.694238 -0.064323
C32   C     C_R   0.476082 0.975934 0.305852 -0.063490
C33   C     C_R   0.003117 0.500295 0.682667 -0.258419
C34   C     C_R   0.997311 0.499633 0.316930 -0.258292
C35   C     C_R   0.503116 0.000295 0.682667 -0.258308
C36   C     C_R   0.496902 0.999692 0.317324 -0.263027
C37   C     C_R   0.982212 0.477180 0.735526 0.563894
C38   C     C_R   0.018728 0.522325 0.263673 0.559802
C39   C     C_R   0.482208 0.977184 0.735531 0.564192
C40   C     C_R   0.517866 0.022747 0.264393 0.570041
C41   C     C_R   0.980911 0.477721 0.800554 0.227098
C42   C     C_R   0.019361 0.522540 0.199102 0.210787
C43   C     C_R   0.480907 0.977725 0.800558 0.226967
C44   C     C_R   0.519148 0.022203 0.199384 0.215834
C45   C     C_R   0.000181 0.502123 0.814135 -0.276008
C46   C     C_R   0.999512 0.498433 0.186184 -0.278646
C47   C     C_R   0.500181 0.002123 0.814134 -0.276799
C48   C     C_R   0.499804 0.997856 0.185890 -0.280492
C49   C     C_R   0.378028 0.495269 0.066640 -0.267178
C50   C     C_R   0.621863 0.493975 0.933172 -0.267379
C51   C     C_R   0.878027 0.995275 0.066641 -0.267097
C52   C     C_R   0.121863 0.993982 0.933178 -0.267417
H13   H     H_    0.391633 0.491400 0.010119 0.199444
H14   H     H_    0.608185 0.489403 0.989440 0.199678
H15   H     H_    0.891631 0.991412 0.010118 0.199509
H16   H     H_    0.108184 0.989416 0.989448 0.199666
C53   C     C_R   0.342306 0.495109 0.101594 -0.059938
C54   C     C_R   0.657578 0.493572 0.898257 -0.057034
C55   C     C_R   0.842305 0.995116 0.101597 -0.059731
C56   C     C_R   0.157577 0.993580 0.898266 -0.057078
H17   H     H_    0.329140 0.490966 0.071566 0.190019
H18   H     H_    0.670666 0.488571 0.928068 0.191603
H19   H     H_    0.829138 0.990977 0.071569 0.190178
H20   H     H_    0.170664 0.988586 0.928081 0.191585
C57   C     C_R   0.323732 0.499845 0.174779 0.126770
C58   C     C_R   0.676239 0.499187 0.825381 0.126171
C59   C     C_R   0.823732 0.999844 0.174784 0.126676
C60   C     C_R   0.176239 0.999188 0.825388 0.126192
C61   C     C_R   0.341387 0.504731 0.212542 -0.121798
C62   C     C_R   0.658667 0.505164 0.787879 -0.123445
C63   C     C_R   0.841388 0.004724 0.212547 -0.121730
C64   C     C_R   0.158668 0.005157 0.787880 -0.123502
H21   H     H_    0.327429 0.508853 0.268998 0.200868
H22   H     H_    0.672690 0.509994 0.731699 0.200652
H23   H     H_    0.827430 0.008840 0.269005 0.200925
H24   H     H_    0.172692 0.009980 0.731698 0.200622
C65   C     C_R   0.377124 0.504822 0.177873 0.608422
C66   C     C_R   0.622929 0.505474 0.822510 0.608629
C67   C     C_R   0.877125 0.004816 0.177876 0.608481
C68   C     C_R   0.122930 0.005466 0.822509 0.608604
C69   C     C_R   0.395897 0.500060 0.104240 -0.175935
C70   C     C_R   0.604086 0.499858 0.895826 -0.175766
C71   C     C_R   0.895897 0.000060 0.104242 -0.176011
C72   C     C_R   0.104086 0.999858 0.895827 -0.175746
C73   C     C_R   0.267437 0.478571 0.270727 0.593715
C74   C     C_R   0.732431 0.478602 0.728057 0.596365
C75   C     C_R   0.767438 0.978564 0.270725 0.593892
C76   C     C_R   0.232432 0.978597 0.728079 0.596361
C77   C     C_R   0.231721 0.478901 0.306289 -0.324501
C78   C     C_R   0.768154 0.478903 0.692551 -0.320865
C79   C     C_R   0.731721 0.978895 0.306290 -0.324329
C80   C     C_R   0.268155 0.978897 0.692577 -0.321083
H25   H     H_    0.217916 0.462493 0.351748 0.216189
H26   H     H_    0.781876 0.463178 0.645886 0.221333
H27   H     H_    0.717918 0.962483 0.351742 0.216249
H28   H     H_    0.281878 0.963167 0.645921 0.221171
C81   C     C_R   0.213875 0.500432 0.283944 -0.191273
C82   C     C_R   0.786107 0.499584 0.716455 -0.191855
C83   C     C_R   0.713875 0.000432 0.283958 -0.191356
C84   C     C_R   0.286107 0.999585 0.716473 -0.191792
C85   C     C_R   0.232273 0.521360 0.224579 0.650220
C86   C     C_R   0.767810 0.519624 0.777364 0.651533
C87   C     C_R   0.732272 0.021365 0.224602 0.650588
C88   C     C_R   0.267809 0.019633 0.777370 0.651565
C89   C     C_R   0.268044 0.521129 0.188919 0.480658
C90   C     C_R   0.732043 0.519443 0.812937 0.479200
C91   C     C_R   0.768043 0.021135 0.188939 0.480832
C92   C     C_R   0.232042 0.019451 0.812939 0.479134
C93   C     C_R   0.285921 0.499810 0.211867 -0.253469
C94   C     C_R   0.714054 0.499024 0.788404 -0.254091
C95   C     C_R   0.785921 0.999809 0.211874 -0.253579
C96   C     C_R   0.214054 0.999026 0.788413 -0.254057
C97   C     C_R   0.158000 0.469646 0.335137 -0.232912
C98   C     C_R   0.841980 0.468946 0.662405 -0.217638
C99   C     C_R   0.658000 0.969646 0.335137 -0.232372
C100  C     C_R   0.341979 0.968947 0.662443 -0.217953
H29   H     H_    0.171578 0.445653 0.316173 0.181695
H30   H     H_    0.828398 0.444788 0.679334 0.187961
H31   H     H_    0.671578 0.945654 0.316162 0.181843
H32   H     H_    0.328398 0.944790 0.679388 0.187964
C101  C     C_R   0.122277 0.469421 0.371505 -0.169886
C102  C     C_R   0.877708 0.468912 0.625945 -0.133774
C103  C     C_R   0.622277 0.969421 0.371502 -0.169245
C104  C     C_R   0.377708 0.968914 0.625980 -0.134407
H33   H     H_    0.109005 0.445169 0.380027 0.183970
H34   H     H_    0.890977 0.444638 0.615252 0.197386
H35   H     H_    0.609004 0.945170 0.380010 0.184143
H36   H     H_    0.390977 0.944639 0.615302 0.197379
C105  C     C_R   0.104000 0.500188 0.395992 -0.130534
C106  C     C_R   0.895989 0.499886 0.604064 -0.133914
C107  C     C_R   0.604000 0.000188 0.396001 -0.130895
C108  C     C_R   0.395989 0.999887 0.604077 -0.133769
C109  C     C_R   0.122145 0.531139 0.383968 -0.227346
C110  C     C_R   0.877839 0.530850 0.618761 -0.255150
C111  C     C_R   0.622145 0.031138 0.383995 -0.227832
C112  C     C_R   0.377839 0.030849 0.618758 -0.255105
H37   H     H_    0.108710 0.555189 0.403008 0.210406
H38   H     H_    0.891261 0.555079 0.601854 0.200860
H39   H     H_    0.608710 0.055186 0.403047 0.210474
H40   H     H_    0.391261 0.055078 0.601835 0.200938
C113  C     C_R   0.157891 0.531392 0.347759 0.737937
C114  C     C_R   0.842100 0.530914 0.655047 0.728008
C115  C     C_R   0.657891 0.031390 0.347789 0.738036
C116  C     C_R   0.342100 0.030914 0.655048 0.727904
C117  C     C_R   0.176085 0.500601 0.322518 0.069684
C118  C     C_R   0.823899 0.499910 0.677730 0.069608
C119  C     C_R   0.676085 0.000601 0.322534 0.069632
C120  C     C_R   0.323899 0.999911 0.677750 0.069679
O17   O     O_R   0.971110 0.450080 0.028870 -0.583219
O18   O     O_R   0.028890 0.450080 0.971130 -0.590936
O19   O     O_R   0.471110 0.950080 0.028870 -0.582426
O20   O     O_R   0.528890 0.950080 0.971130 -0.588617
C121  C     C_R   0.999953 0.433760 0.000111 0.776480
C122  C     C_R   0.499953 0.933760 0.000115 0.777910
O21   O     O_R   0.971100 0.499980 0.938700 -0.532044
O22   O     O_R   0.028900 0.499980 0.061300 -0.549118
O23   O     O_R   0.471100 0.999980 0.938700 -0.530979
O24   O     O_R   0.528900 0.999980 0.061300 -0.536090
O25   O     O_R   0.028870 0.499990 0.880960 -0.593017
O26   O     O_R   0.971130 0.499990 0.119040 -0.586039
O27   O     O_R   0.528870 0.999990 0.880960 -0.591884
O28   O     O_R   0.471130 0.999990 0.119040 -0.588546
C123  C     C_R   0.000006 0.500736 0.881187 0.845234
C124  C     C_R   0.999942 0.499242 0.118854 0.876190
C125  C     C_R   0.500006 0.000737 0.881187 0.847002
C126  C     C_R   0.499991 0.999230 0.118819 0.844756
Cu5   Cu    Cu3+1 0.965790 0.499980 0.034190 1.057425
Cu6   Cu    Cu3+1 0.034210 0.499980 0.965810 1.040795
Cu7   Cu    Cu3+1 0.465790 0.999980 0.034190 1.054495
Cu8   Cu    Cu3+1 0.534210 0.999980 0.965810 1.049155
O29   O     O_R   0.971110 0.549890 0.028880 -0.586243
O30   O     O_R   0.028890 0.549890 0.971120 -0.571671
O31   O     O_R   0.471110 0.049890 0.028880 -0.584299
O32   O     O_R   0.528890 0.049890 0.971120 -0.576344
C127  C     C_R   0.000045 0.566193 0.999693 0.817081
C128  C     C_R   0.500047 0.066194 0.999833 0.789249
O33   O     O_R   0.499990 0.450010 0.052090 -0.580163
O34   O     O_R   0.500010 0.450010 0.947910 -0.580964
O35   O     O_R   0.999990 0.950010 0.052090 -0.580162
O36   O     O_R   0.000010 0.950010 0.947910 -0.580961
C129  C     C_R   0.500024 0.433722 0.999880 0.823830
C130  C     C_R   0.000026 0.933721 0.999877 0.823841
O37   O     O_R   0.450090 0.499920 0.102070 -0.509278
O38   O     O_R   0.549910 0.499920 0.897930 -0.509669
O39   O     O_R   0.950090 0.999920 0.102070 -0.509264
O40   O     O_R   0.049910 0.999920 0.897930 -0.509674
O41   O     O_R   0.450080 0.499990 0.997700 -0.596196
O42   O     O_R   0.549920 0.499990 0.002300 -0.596035
O43   O     O_R   0.950080 0.999990 0.997700 -0.596164
O44   O     O_R   0.049920 0.999990 0.002300 -0.596053
C131  C     C_R   0.433775 0.500037 0.066304 0.832709
C132  C     C_R   0.566219 0.500011 0.933709 0.833189
C133  C     C_R   0.933776 0.000037 0.066304 0.832748
C134  C     C_R   0.066219 0.000011 0.933709 0.833154
Cu9   Cu    Cu3+1 0.500000 0.499920 0.061800 1.061194
Cu10  Cu    Cu3+1 0.500000 0.499920 0.938200 1.060835
Cu11  Cu    Cu3+1 0.000000 0.999920 0.061800 1.061201
Cu12  Cu    Cu3+1 1.000000 0.999920 0.938200 1.060892
O45   O     O_R   0.500010 0.549830 0.052290 -0.581739
O46   O     O_R   0.499990 0.549830 0.947710 -0.580972
O47   O     O_R   0.000010 0.049830 0.052290 -0.581744
O48   O     O_R   0.999990 0.049830 0.947710 -0.580974
C135  C     C_R   0.499983 0.566084 0.000111 0.777147
C136  C     C_R   0.999983 0.066084 0.000110 0.777130
C137  C     C_R   0.501086 0.622111 0.055027 -0.150265
C138  C     C_R   0.498568 0.622101 0.946200 -0.149545
C139  C     C_R   0.001077 0.122113 0.055032 -0.150288
C140  C     C_R   0.998575 0.122099 0.946187 -0.149531
H41   H     H_    0.502053 0.608807 0.097642 0.170125
H42   H     H_    0.497689 0.608790 0.903331 0.170445
H43   H     H_    0.002038 0.108810 0.097655 0.170114
H44   H     H_    0.997703 0.108787 0.903312 0.170455
C141  C     C_R   0.500998 0.657845 0.055318 -0.145920
C142  C     C_R   0.498390 0.657834 0.946622 -0.145647
C143  C     C_R   0.000988 0.157847 0.055319 -0.145952
C144  C     C_R   0.998398 0.157832 0.946604 -0.145676
H45   H     H_    0.501566 0.671275 0.098406 0.143731
H46   H     H_    0.497732 0.671259 0.903789 0.144567
H47   H     H_    0.001550 0.171278 0.098412 0.143683
H48   H     H_    0.997746 0.171255 0.903763 0.144554
C145  C     C_R   0.499624 0.676030 0.001153 0.095462
C146  C     C_R   0.999623 0.176030 0.001143 0.095465
C147  C     C_R   0.499893 0.603878 0.000434 -0.038123
C148  C     C_R   0.999892 0.103877 0.000431 -0.038116
C149  C     C_R   0.477456 0.731961 0.984476 -0.150712
C150  C     C_R   0.521525 0.732196 0.018679 -0.150376
C151  C     C_R   0.977463 0.231959 0.984436 -0.150727
C152  C     C_R   0.021517 0.232197 0.018680 -0.150467
H49   H     H_    0.460009 0.718445 0.971681 0.147015
H50   H     H_    0.539005 0.718868 0.031354 0.144075
H51   H     H_    0.960022 0.218442 0.971627 0.147035
H52   H     H_    0.038992 0.218871 0.031374 0.143976
C153  C     C_R   0.977408 0.267690 0.984624 -0.145266
C154  C     C_R   0.021540 0.267928 0.018645 -0.155492
C155  C     C_R   0.477400 0.767692 0.984672 -0.145242
C156  C     C_R   0.521547 0.767927 0.018651 -0.155248
H53   H     H_    0.960382 0.281019 0.970668 0.151219
H54   H     H_    0.038581 0.281445 0.032584 0.141684
H55   H     H_    0.460367 0.781023 0.970735 0.151212
H56   H     H_    0.538594 0.781442 0.032576 0.141959
C157  C     C_R   0.999487 0.285999 0.001615 0.087156
C158  C     C_R   0.499486 0.786000 0.001646 0.087091
C159  C     C_R   0.499519 0.713887 0.001481 0.088200
C160  C     C_R   0.999518 0.213887 0.001465 0.088244
C161  C     C_R   0.030650 0.342032 0.971788 -0.146926
C162  C     C_R   0.968643 0.342056 0.030561 -0.143224
C163  C     C_R   0.530650 0.842032 0.971798 -0.146613
C164  C     C_R   0.468642 0.842056 0.030619 -0.143026
H57   H     H_    0.054876 0.328594 0.948187 0.143346
H58   H     H_    0.944333 0.328640 0.054435 0.145805
H59   H     H_    0.554875 0.828594 0.948181 0.143561
H60   H     H_    0.444332 0.828641 0.054513 0.145805
C165  C     C_R   0.030778 0.377761 0.971294 -0.158406
C166  C     C_R   0.968752 0.377789 0.030241 -0.137225
C167  C     C_R   0.530778 0.877761 0.971297 -0.157167
C168  C     C_R   0.468751 0.877789 0.030291 -0.137388
H61   H     H_    0.055139 0.391069 0.947910 0.166042
H62   H     H_    0.944479 0.391123 0.053349 0.172621
H63   H     H_    0.555139 0.891068 0.947891 0.166742
H64   H     H_    0.444478 0.891123 0.053415 0.172678
C169  C     C_R   0.999828 0.395990 0.000525 -0.033404
C170  C     C_R   0.499827 0.895990 0.000544 -0.034500
C171  C     C_R   0.999589 0.323855 0.001362 0.094564
C172  C     C_R   0.499588 0.823855 0.001397 0.094420
C173  C     C_R   0.508340 0.377877 0.937514 -0.212571
C174  C     C_R   0.492080 0.377751 0.061125 -0.212458
C175  C     C_R   0.008333 0.877883 0.937498 -0.212551
C176  C     C_R   0.992111 0.877743 0.061088 -0.212462
H65   H     H_    0.515193 0.391777 0.889367 0.209951
H66   H     H_    0.485127 0.391547 0.109560 0.209868
H67   H     H_    0.015169 0.891788 0.889364 0.209965
H68   H     H_    0.985173 0.891533 0.109522 0.209881
C177  C     C_R   0.509296 0.342003 0.935872 0.313471
C178  C     C_R   0.491411 0.341865 0.061992 0.313578
C179  C     C_R   0.009292 0.842009 0.935838 0.313461
C180  C     C_R   0.991447 0.841856 0.061939 0.313629
C181  C     C_R   0.500427 0.323679 0.998735 -0.116197
C182  C     C_R   0.000443 0.823677 0.998681 -0.116175
C183  C     C_R   0.500136 0.395922 0.999515 -0.156175
C184  C     C_R   0.000145 0.895921 0.999498 -0.156190
C185  C     C_R   0.522654 0.267980 0.015036 -0.107018
C186  C     C_R   0.478501 0.267772 0.981378 -0.109394
C187  C     C_R   0.022687 0.767969 0.014895 -0.107320
C188  C     C_R   0.978498 0.767778 0.981342 -0.109370
H69   H     H_    0.539439 0.282182 0.028742 0.192751
H70   H     H_    0.461683 0.281815 0.967827 0.191997
H71   H     H_    0.039487 0.782165 0.028571 0.192735
H72   H     H_    0.961665 0.781829 0.967841 0.192023
C189  C     C_R   0.022525 0.732099 0.016442 0.296406
C190  C     C_R   0.978712 0.731909 0.979439 0.301429
C191  C     C_R   0.522490 0.232111 0.016614 0.296109
C192  C     C_R   0.478716 0.231902 0.979503 0.301547
C193  C     C_R   0.000606 0.713747 0.997920 -0.174609
C194  C     C_R   0.500590 0.213749 0.998050 -0.175033
C195  C     C_R   0.500541 0.285824 0.998347 0.054911
C196  C     C_R   0.000555 0.785822 0.998274 0.054945
C197  C     C_R   0.970552 0.657967 0.043733 -0.041718
C198  C     C_R   0.030217 0.657749 0.953017 -0.040462
C199  C     C_R   0.470538 0.157967 0.043848 -0.040212
C200  C     C_R   0.530216 0.157756 0.953203 -0.039804
H73   H     H_    0.947424 0.671690 0.079076 0.158227
H74   H     H_    0.053452 0.671302 0.917344 0.158376
H75   H     H_    0.447402 0.171688 0.079157 0.158024
H76   H     H_    0.553454 0.171312 0.917551 0.158432
C201  C     C_R   0.970341 0.622227 0.043922 -0.135571
C202  C     C_R   0.030141 0.622007 0.953735 -0.147637
C203  C     C_R   0.470334 0.122226 0.044046 -0.139373
C204  C     C_R   0.530147 0.122014 0.953928 -0.149239
H77   H     H_    0.946942 0.608937 0.079619 0.168567
H78   H     H_    0.053424 0.608536 0.918331 0.161781
H79   H     H_    0.446929 0.108934 0.079710 0.168581
H80   H     H_    0.553437 0.108548 0.918544 0.163400
C205  C     C_R   0.000176 0.603929 0.999122 -0.029233
C206  C     C_R   0.500178 0.103932 0.999287 -0.036499
C207  C     C_R   0.000461 0.675912 0.998187 0.179615
C208  C     C_R   0.500450 0.175915 0.998333 0.179918
F1    F     F_    0.962140 0.454421 0.724705 -0.594705
F2    F     F_    0.038808 0.544850 0.275024 -0.581197
F3    F     F_    0.462132 0.954428 0.724714 -0.594683
F4    F     F_    0.537997 0.045458 0.275143 -0.580931
F5    F     F_    0.393088 0.509988 0.216562 -0.619485
F6    F     F_    0.607030 0.511747 0.784168 -0.619962
F7    F     F_    0.893089 0.009975 0.216566 -0.619413
F8    F     F_    0.107032 0.011730 0.784161 -0.619992
F9    F     F_    0.283932 0.457068 0.293087 -0.618058
F10   F     F_    0.715828 0.457940 0.704117 -0.613659
F11   F     F_    0.783934 0.957056 0.293073 -0.617900
F12   F     F_    0.215830 0.957928 0.704147 -0.613745
F13   F     F_    0.215612 0.541552 0.200383 -0.548535
F14   F     F_    0.784565 0.538930 0.803068 -0.553699
F15   F     F_    0.715610 0.041564 0.200417 -0.548204
F16   F     F_    0.284563 0.038945 0.803065 -0.553690
F17   F     F_    0.285222 0.542232 0.132809 -0.585580
F18   F     F_    0.714985 0.539764 0.870509 -0.588210
F19   F     F_    0.785220 0.042242 0.132837 -0.585346
F20   F     F_    0.214983 0.039780 0.870500 -0.588258
F21   F     F_    0.174670 0.561581 0.338919 -0.585187
F22   F     F_    0.825332 0.561177 0.666476 -0.599059
F23   F     F_    0.674670 0.061578 0.338965 -0.585105
F24   F     F_    0.325331 0.061176 0.666460 -0.599087
N1    N     N_R   0.520153 0.324746 0.869693 0.137531
O49   O     O_R   0.540307 0.298301 0.852325 -0.307807
O50   O     O_R   0.513613 0.338039 0.822731 -0.298679
N2    N     N_R   0.480686 0.324443 0.127803 0.137431
O51   O     O_R   0.460700 0.297768 0.144642 -0.310014
O52   O     O_R   0.487149 0.337783 0.175023 -0.297870
N3    N     N_R   0.020129 0.824760 0.869657 0.137524
O53   O     O_R   0.040286 0.798315 0.852252 -0.307907
O54   O     O_R   0.013569 0.838059 0.822730 -0.298692
N4    N     N_R   0.980746 0.824427 0.127732 0.137411
O55   O     O_R   0.960765 0.797747 0.144583 -0.310071
O56   O     O_R   0.987227 0.837762 0.174931 -0.297999
N5    N     N_R   0.044049 0.714882 0.038649 0.139278
O57   O     O_R   0.073202 0.728385 0.025590 -0.290759
O58   O     O_R   0.032764 0.688324 0.079879 -0.282066
N6    N     N_R   0.957213 0.714489 0.957070 0.136348
O59   O     O_R   0.928119 0.727854 0.969929 -0.300469
O60   O     O_R   0.968463 0.687834 0.915958 -0.315709
N7    N     N_R   0.543991 0.214903 0.038892 0.139343
O61   O     O_R   0.573135 0.228410 0.025881 -0.290147
O62   O     O_R   0.532690 0.188352 0.080138 -0.281637
N8    N     N_R   0.457238 0.214472 0.957093 0.136388
O63   O     O_R   0.428151 0.227833 0.969892 -0.300541
O64   O     O_R   0.468502 0.187811 0.916001 -0.314920
F25   F     F_    0.088637 0.590955 0.601437 -0.619420
F26   F     F_    0.910352 0.410397 0.399932 -0.641722
F27   F     F_    0.588652 0.090940 0.601417 -0.619186
F28   F     F_    0.411086 0.909321 0.398958 -0.641419
N9    N     N_R   0.960393 0.452681 0.852158 0.159332
O65   O     O_R   0.929903 0.460790 0.901917 -0.286210
O66   O     O_R   0.969371 0.420628 0.841636 -0.306896
N10   N     N_R   0.039491 0.548064 0.147758 0.171773
O67   O     O_R   0.025549 0.567369 0.120052 -0.337303
O68   O     O_R   0.070573 0.554739 0.134623 -0.225588
N11   N     N_R   0.460385 0.952689 0.852167 0.159131
O69   O     O_R   0.429892 0.960799 0.901910 -0.286067
O70   O     O_R   0.469365 0.920636 0.841665 -0.307014
N12   N     N_R   0.539715 0.047190 0.147710 0.164346
O71   O     O_R   0.570277 0.039084 0.098252 -0.276489
O72   O     O_R   0.530645 0.079222 0.157846 -0.266170

loop_
_geom_bond_atom_site_label_1
_geom_bond_atom_site_label_2
_geom_bond_distance
_ccdc_geom_bond_type
C186  H70   1.083606 S    
C59   C63   1.401846 A    
C85   C89   1.396819 A    
C75   C95   1.406251 A    
C76   C96   1.406361 A    
C64   H24   1.083305 S    
C152  H52   1.082957 S    
C200  C204  1.395384 A    
C87   C91   1.396815 A    
C13   C17   1.390031 A    
C149  H49   1.082962 S    
C73   F9    1.357659 S    
C102  H34   1.082875 S    
C151  H51   1.082960 S    
C186  C195  1.397461 A    
C190  C193  1.419523 A    
C9    C13   1.394075 A    
O23   C125  1.287693 A    
C9    H1    1.080396 S    
C140  H44   1.082852 S    
C10   C14   1.393717 A    
C174  H66   1.083225 S    
C173  C177  1.401032 A    
C161  H57   1.082985 S    
C98   H30   1.083309 S    
O44   Cu11  1.959814 S    
C180  C182  1.418541 A    
C38   C42   1.390308 A    
C168  C170  1.404863 A    
O4    C4    1.295231 A    
C99   C103  1.394924 A    
C163  H59   1.082985 S    
C88   C92   1.396627 A    
C187  C196  1.397484 A    
C5    C33   1.457324 S    
C188  C190  1.400637 A    
Cu5   Cu6   2.671614 S    
C2    C106  1.475227 S    
C82   C86   1.405512 A    
O48   C136  1.302028 A    
C185  C191  1.400667 A    
C17   C21   1.393267 A    
C190  N6    1.439910 S    
C109  H37   1.082999 S    
C149  C159  1.404313 A    
O19   Cu7   1.959527 S    
C204  H80   1.083003 S    
C108  C112  1.405071 A    
C197  C207  1.401980 A    
C60   C96   1.476732 S    
C77   C81   1.402329 A    
C30   C34   1.415953 A    
C111  H39   1.083004 S    
O16   Cu4   1.971833 S    
C58   C62   1.402051 A    
O28   Cu7   1.972386 S    
C141  C145  1.403928 A    
O33   C129  1.298556 A    
O7    Cu4   1.958567 S    
O42   Cu9   1.959814 S    
C101  C105  1.404624 A    
O18   C121  1.295670 A    
O15   C7    1.290085 A    
O38   C132  1.300580 A    
Cu11  Cu12  2.687186 S    
C11   C31   1.416133 A    
C176  C184  1.400103 A    
Cu9   Cu10  2.687186 S    
C98   C102  1.395146 A    
C36   C40   1.400207 A    
C67   F7    1.357342 S    
C137  C141  1.394953 A    
C151  C160  1.404316 A    
O25   Cu6   1.972389 S    
C13   F25   1.356057 S    
C81   C85   1.405500 A    
C42   N10   1.438406 S    
C154  H54   1.082964 S    
O8    Cu4   1.959644 S    
C180  N4    1.440023 S    
C152  C154  1.394810 A    
C168  H64   1.082896 S    
C59   C95   1.476553 S    
C203  C206  1.405037 A    
C83   C119  1.475675 S    
O34   Cu10  1.960467 S    
O3    Cu2   1.960418 S    
C194  C208  1.476950 S    
C52   H16   1.082902 S    
C54   C58   1.401774 A    
C15   C19   1.390031 A    
C25   C29   1.414845 A    
C142  C145  1.403954 A    
C75   C79   1.394747 A    
C51   C55   1.394983 A    
C27   C31   1.414842 A    
C28   C32   1.414818 A    
C16   F28   1.356051 S    
C45   C123  1.455172 S    
C129  C183  1.475588 S    
C130  C184  1.475613 S    
C175  C179  1.401018 A    
C34   C38   1.400221 A    
C21   H9    1.080921 S    
Cu12  O48   1.958554 S    
C23   H11   1.080923 S    
C86   F14   1.357868 S    
C116  F24   1.357601 S    
O3    C3    1.295083 A    
N8    O63   1.301433 A    
C99   C119  1.402869 A    
C92   F20   1.357933 S    
C182  C196  1.477778 S    
C156  C158  1.404288 A    
C17   H5    1.082669 S    
C139  H43   1.082853 S    
C112  C116  1.395563 A    
C19   H7    1.082666 S    
O40   C134  1.300582 A    
C105  C109  1.405144 A    
C144  H48   1.082994 S    
N5    O58   1.301375 A    
Cu9   O45   1.959932 S    
O43   C133  1.301771 A    
C149  C155  1.394850 A    
C60   C64   1.402053 A    
C150  C156  1.394809 A    
N9    O65   1.300672 A    
C77   H25   1.083395 S    
O38   Cu10  1.960595 S    
C12   H4    1.080387 S    
C139  C143  1.394953 A    
C71   C133  1.479062 S    
C157  C171  1.477762 S    
C127  C205  1.473181 S    
O22   Cu6   1.971026 S    
C154  C157  1.404284 A    
C165  H61   1.082871 S    
C56   H20   1.083168 S    
C21   C25   1.416227 A    
C98   C118  1.402952 A    
C74   C78   1.394907 A    
C7    C35   1.457315 S    
C199  C203  1.395191 A    
C69   C131  1.479058 S    
C153  H53   1.082960 S    
C24   C28   1.416197 A    
O5    Cu3   1.958567 S    
C91   C95   1.406672 A    
C156  H56   1.082964 S    
N6    O59   1.301434 A    
O43   Cu12  1.959833 S    
O41   Cu10  1.959833 S    
C66   C70   1.410168 A    
O8    C4    1.295546 A    
C20   C24   1.393299 A    
C52   C72   1.406295 A    
C58   C94   1.476735 S    
O27   C125  1.289361 A    
C150  H50   1.082961 S    
C197  C201  1.395175 A    
N2    O52   1.301427 A    
C9    C29   1.416133 A    
C140  C148  1.404996 A    
C10   H2    1.080334 S    
C103  H35   1.082873 S    
O13   Cu3   1.970441 S    
C51   C71   1.406450 A    
C104  H36   1.082878 S    
N10   O67   1.301258 A    
C12   C32   1.416110 A    
O19   C122  1.295413 A    
C64   C68   1.395810 A    
C8    C36   1.457155 S    
O24   Cu8   1.971026 S    
C103  C107  1.404625 A    
C161  C165  1.394790 A    
C163  C167  1.394791 A    
C99   H31   1.083324 S    
O5    C1    1.295556 A    
C29   C33   1.417340 A    
C79   H27   1.083393 S    
C84   C88   1.405513 A    
C3    C107  1.474963 S    
C46   C124  1.455003 S    
C185  C195  1.397488 A    
C1    C105  1.474959 S    
O15   Cu4   1.970441 S    
N12   O71   1.300666 A    
C199  C208  1.401979 A    
C200  C208  1.402050 A    
C153  C157  1.404259 A    
C84   C120  1.475776 S    
C110  H38   1.082935 S    
C37   F1    1.360031 S    
C121  C169  1.474468 S    
C91   F19   1.357918 S    
O17   Cu5   1.959527 S    
C68   C72   1.410168 A    
C111  C115  1.395814 A    
N7    O62   1.301375 A    
C141  H45   1.082992 S    
C28   C48   1.417384 A    
C41   C45   1.406413 A    
O14   C6    1.288508 A    
C102  C106  1.404818 A    
C100  H32   1.083306 S    
C63   H23   1.083325 S    
O1    Cu1   1.960418 S    
C185  H69   1.083613 S    
C143  H47   1.082994 S    
O34   C129  1.298621 A    
C100  C104  1.395151 A    
C137  H41   1.082851 S    
C138  C147  1.404995 A    
C179  C182  1.418409 A    
O10   C6    1.290009 A    
C135  C147  1.475345 S    
C14   F26   1.356059 S    
O28   C126  1.289296 A    
C43   C47   1.406413 A    
C177  C181  1.418419 A    
C164  C172  1.404004 A    
O37   Cu9   1.960603 S    
N11   O70   1.300633 A    
Cu11  O47   1.959932 S    
O47   C136  1.302198 A    
C97   H29   1.083326 S    
C55   H19   1.083173 S    
C152  C160  1.404273 A    
C143  C146  1.403929 A    
C20   H8    1.082639 S    
C175  C184  1.400205 A    
C16   C20   1.389966 A    
O35   C130  1.298579 A    
C192  C194  1.419527 A    
C197  H73   1.083259 S    
O45   C135  1.302192 A    
C52   C56   1.394831 A    
C55   C59   1.401716 A    
C49   H13   1.082878 S    
O39   C133  1.300575 A    
C26   C30   1.413576 A    
C51   H15   1.082878 S    
N4    O55   1.301384 A    
C179  N3    1.440049 S    
C192  N8    1.439907 S    
N3    O53   1.301387 A    
C22   H10   1.080646 S    
C202  C205  1.405282 A    
C74   F10   1.357648 S    
O26   C124  1.287466 A    
C15   F27   1.356058 S    
C90   F18   1.357931 S    
N1    O50   1.301427 A    
C142  H46   1.082990 S    
O32   C128  1.295086 A    
C188  C196  1.397464 A    
C61   C65   1.395676 A    
C113  F21   1.357575 S    
C63   C67   1.395676 A    
C18   H6    1.082648 S    
C158  C172  1.477761 S    
O40   Cu12  1.960595 S    
C65   F5    1.357347 S    
C82   C118  1.475777 S    
C106  C110  1.405073 A    
C155  H55   1.082962 S    
C177  N1    1.440045 S    
C37   C41   1.386376 A    
C72   C134  1.478620 S    
C75   F11   1.357661 S    
C114  C118  1.405482 A    
C80   H28   1.083391 S    
C49   C53   1.394984 A    
C100  C120  1.402952 A    
Cu5   O29   1.958834 S    
C54   H18   1.083169 S    
O12   Cu2   1.970660 S    
C146  C160  1.477831 S    
C178  C181  1.418529 A    
C110  C114  1.395562 A    
C166  H62   1.082897 S    
C22   C26   1.417075 A    
C44   C48   1.406386 A    
O1    C1    1.295081 A    
C90   C94   1.406703 A    
C27   C47   1.417294 A    
C200  H76   1.083239 S    
C50   H14   1.082901 S    
C81   C117  1.475679 S    
O27   Cu8   1.972389 S    
O21   Cu5   1.971025 S    
C73   C93   1.406250 A    
C164  C168  1.394928 A    
C25   C45   1.417289 A    
C174  C183  1.400100 A    
C4    C108  1.475227 S    
O30   C127  1.295156 A    
C48   C126  1.455298 S    
C138  C142  1.394924 A    
O18   Cu6   1.958450 S    
C136  C148  1.475341 S    
C57   C93   1.476558 S    
N8    O64   1.301376 A    
O36   C130  1.298610 A    
C10   C30   1.416478 A    
C89   F17   1.357919 S    
C11   H3    1.080398 S    
C62   C66   1.395809 A    
C39   F3    1.360027 S    
C114  F22   1.357602 S    
C181  C195  1.477767 S    
C32   C36   1.417189 A    
Cu10  O46   1.958554 S    
O24   C126  1.287818 A    
N5    O57   1.301425 A    
C89   C93   1.406671 A    
O35   Cu11  1.959054 S    
C79   C83   1.402329 A    
C150  C159  1.404271 A    
C137  C147  1.405035 A    
C173  H65   1.083225 S    
C92   C96   1.406702 A    
C43   N11   1.432376 S    
O6    C2    1.295541 A    
O4    Cu2   1.959348 S    
C187  H71   1.083617 S    
C50   C54   1.394838 A    
C188  H72   1.083610 S    
C76   F12   1.357649 S    
C19   C23   1.393270 A    
C33   C37   1.400251 A    
C162  C171  1.404004 A    
O20   C122  1.295670 A    
O2    Cu1   1.959348 S    
C35   C39   1.400250 A    
O10   Cu1   1.970660 S    
C101  H33   1.082870 S    
C122  C170  1.474462 S    
O13   C5    1.290086 A    
C26   C46   1.418422 A    
O41   C131  1.301767 A    
C112  H40   1.082940 S    
N6    O60   1.301374 A    
C42   C46   1.410007 A    
C49   C69   1.406447 A    
C139  C148  1.405033 A    
C140  C144  1.394916 A    
O33   Cu9   1.959054 S    
C199  H75   1.083260 S    
C201  H77   1.082912 S    
C176  H68   1.083225 S    
C203  H79   1.082918 S    
C155  C158  1.404259 A    
C47   C125  1.455178 S    
Cu7   Cu8   2.671614 S    
C191  N7    1.439858 S    
C18   C22   1.393232 A    
C40   C44   1.386364 A    
N7    O61   1.301426 A    
O7    C3    1.295551 A    
C175  H67   1.083223 S    
C178  N2    1.440023 S    
N10   O68   1.301213 A    
C14   C18   1.389580 A    
C83   C87   1.405500 A    
C128  C206  1.473219 S    
C144  C146  1.403950 A    
N3    O54   1.301430 A    
O44   C134  1.301528 A    
C109  C113  1.395811 A    
C163  C172  1.403966 A    
O26   Cu5   1.972386 S    
C198  H74   1.083236 S    
C73   C77   1.394752 A    
C173  C183  1.400192 A    
O39   Cu11  1.960603 S    
C6    C34   1.456428 S    
O16   C8    1.289174 A    
C161  C171  1.403967 A    
N11   O69   1.300672 A    
C68   F8    1.357352 S    
N12   O72   1.300637 A    
C65   C69   1.410434 A    
C97   C101  1.394921 A    
C176  C180  1.401116 A    
O11   C7    1.289151 A    
O12   C8    1.289961 A    
C85   F13   1.357845 S    
C53   H17   1.083176 S    
O9    Cu1   1.972048 S    
C204  C206  1.405318 A    
C198  C202  1.395391 A    
C44   N12   1.432278 S    
N9    O66   1.300635 A    
C80   C84   1.402343 A    
O25   C123  1.289361 A    
C61   H21   1.083325 S    
C31   C35   1.417334 A    
O20   Cu8   1.958450 S    
O9    C5    1.289153 A    
C40   F4    1.360021 S    
C50   C70   1.406293 A    
C145  C159  1.477831 S    
O17   C121  1.295413 A    
O11   Cu2   1.972048 S    
C115  C119  1.405540 A    
C87   F15   1.357850 S    
O23   Cu7   1.971025 S    
C202  H78   1.083004 S    
O29   C127  1.295299 A    
O46   C135  1.302034 A    
C166  C169  1.404863 A    
C53   C57   1.401715 A    
C198  C207  1.402065 A    
C78   H26   1.083390 S    
C107  C111  1.405139 A    
C151  C153  1.394854 A    
Cu6   O30   1.959912 S    
O36   Cu12  1.960467 S    
C116  C120  1.405481 A    
O6    Cu3   1.959644 S    
C113  C117  1.405537 A    
O22   C124  1.289334 A    
C174  C178  1.401093 A    
Cu7   O31   1.958834 S    
C88   F16   1.357865 S    
C38   F2    1.360088 S    
C162  H58   1.082981 S    
C167  H63   1.082868 S    
C23   C27   1.416229 A    
C165  C169  1.404699 A    
O2    C2    1.295232 A    
O42   C132  1.301529 A    
N2    O51   1.301386 A    
C56   C60   1.401770 A    
C66   F6    1.357350 S    
O31   C128  1.295386 A    
C186  C192  1.400635 A    
N4    O56   1.301428 A    
O21   C123  1.287687 A    
C162  C166  1.394927 A    
O14   Cu3   1.971833 S    
C164  H60   1.082981 S    
C115  F23   1.357575 S    
C74   C94   1.406364 A    
O37   C131  1.300579 A    
C86   C90   1.396622 A    
C189  N5    1.439852 S    
Cu1   Cu3   2.670516 S    
C138  H42   1.082854 S    
Cu2   Cu4   2.670516 S    
C167  C170  1.404699 A    
C191  C194  1.419551 A    
C70   C132  1.478612 S    
C201  C205  1.405015 A    
N1    O49   1.301388 A    
C187  C189  1.400675 A    
C39   C43   1.386376 A    
C189  C193  1.419559 A    
C11   C15   1.394073 A    
C62   H22   1.083306 S    
C12   C16   1.394013 A    
C24   H12   1.080874 S    
C104  C108  1.404816 A    
Cu8   O32   1.959912 S    
C97   C117  1.402871 A    
C67   C71   1.410438 A    
C193  C207  1.476971 S    
C78   C82   1.402344 A    
C57   C61   1.401850 A    
C76   C80   1.394907 A    
C41   N9    1.432380 S    
