data_mof_unit_6401.cif
_audit_creation_date              2012-12-10T17:20:56-0500
_audit_creation_method            fapswitch 2.2
_symmetry_space_group_name_H-M    P1
_symmetry_Int_Tables_number       1
_space_group_crystal_system       triclinic
_cell_length_a                    18.328612
_cell_length_b                    25.797458
_cell_length_c                    18.21568
_cell_angle_alpha                 89.600186
_cell_angle_beta                  89.866513
_cell_angle_gamma                 90.120165
_cell_volume                      8612.69677941

loop_
_atom_site_label
_atom_site_type_symbol
_atom_type_description
_atom_site_fract_x
_atom_site_fract_y
_atom_site_fract_z
_atom_type_partial_charge
C1    C     C_R   0.389202 0.249824 0.140361 0.849048
C2    C     C_R   0.369165 0.144418 0.673173 -0.162145
C3    C     C_R   0.107960 0.136415 0.307344 -0.139747
C4    C     C_R   0.404264 0.672066 0.396707 -0.137190
C5    C     C_R   0.622647 0.349297 0.818954 -0.137123
C6    C     C_R   0.619094 0.355931 0.183740 -0.136113
C7    C     C_R   0.603672 0.633604 0.803280 -0.139521
C8    C     C_R   0.959221 0.206649 0.888669 -0.121922
C9    C     C_R   0.953964 0.783467 0.094548 -0.138813
C10   C     C_R   0.128096 0.805439 0.727410 -0.147971
C11   C     C_R   0.107137 0.173600 0.251603 -0.159281
C12   C     C_R   0.458044 0.710040 0.390477 -0.122335
C13   C     C_R   0.374797 0.144153 0.323962 -0.214740
C14   C     C_R   0.617309 0.315580 0.759867 -0.138706
C15   C     C_R   0.614318 0.321274 0.242568 -0.141414
C16   C     C_R   0.604143 0.671691 0.748774 -0.163268
C17   C     C_R   0.290363 0.053184 0.128970 -0.143353
C18   C     C_R   0.289477 0.945364 0.129367 -0.138232
C19   C     C_R   0.768143 0.553200 0.634292 -0.143112
C20   C     C_R   0.769007 0.445294 0.634208 -0.140592
C21   C     C_R   0.309558 0.025958 0.192328 -0.147421
C22   C     C_R   0.309035 0.972115 0.192555 -0.138718
C23   C     C_R   0.777158 0.525921 0.699930 -0.145660
C24   C     C_R   0.394327 0.871898 0.692731 -0.211821
C25   C     C_R   0.777637 0.472032 0.699877 -0.138283
C26   C     C_R   0.270357 0.972370 0.064121 0.067609
C27   C     C_R   0.270545 0.026818 0.064022 0.072549
C28   C     C_R   0.759749 0.472369 0.566884 0.068498
C29   C     C_R   0.759469 0.526841 0.566957 0.072291
C30   C     C_R   0.250218 0.946172 0.999504 -0.153306
C31   C     C_R   0.250142 0.053690 0.999492 -0.147897
C32   C     C_R   0.749696 0.446242 0.499870 -0.149290
C33   C     C_R   0.749836 0.553769 0.500008 -0.148856
C34   C     C_R   0.230584 0.972964 0.934676 0.073395
C35   C     C_R   0.095331 0.330243 0.611228 -0.181589
C36   C     C_R   0.230637 0.027459 0.934642 0.066542
C37   C     C_R   0.738526 0.473183 0.433125 0.073652
C38   C     C_R   0.739528 0.527667 0.433071 0.067849
C39   C     C_R   0.212013 0.946514 0.869323 -0.158122
C40   C     C_R   0.212431 0.054453 0.869161 -0.137874
C41   C     C_R   0.726742 0.446918 0.366138 -0.159147
C42   C     C_R   0.730385 0.554823 0.365826 -0.135319
C43   C     C_R   0.194139 0.973799 0.805601 -0.152103
C44   C     C_R   0.194387 0.027678 0.805509 -0.134144
C45   C     C_R   0.718197 0.474357 0.300560 -0.145471
C46   C     C_R   0.022722 0.607312 0.329419 -0.178946
C47   C     C_R   0.720173 0.528200 0.300366 -0.127304
C48   C     C_R   0.249989 0.109370 0.999673 0.787123
C49   C     C_R   0.250074 0.890584 0.999668 0.798136
C50   C     C_R   0.749958 0.609401 0.500056 0.793824
C51   C     C_R   0.750004 0.390609 0.499754 0.797163
C52   C     C_R   0.249905 0.391398 0.999710 0.741347
C53   C     C_R   0.249835 0.608551 0.000075 0.742986
C54   C     C_R   0.749718 0.891433 0.499930 0.745942
C55   C     C_R   0.749727 0.108588 0.500260 0.740004
C56   C     C_3   0.181074 0.469545 0.039315 -0.399188
C57   C     C_R   0.854376 0.667034 0.847138 -0.211865
C58   C     C_3   0.248783 0.530120 0.919759 -0.371874
C59   C     C_3   0.181692 0.529423 0.040642 -0.393034
C60   C     C_3   0.249429 0.470615 0.919428 -0.391138
C61   C     C_3   0.748648 0.969861 0.580218 -0.376926
C62   C     C_3   0.681159 0.030127 0.460186 -0.394840
C63   C     C_3   0.748563 0.029365 0.580460 -0.387942
C64   C     C_3   0.681099 0.970183 0.460019 -0.402044
C65   C     C_3   0.318826 0.469866 0.038601 -0.391292
C66   C     C_3   0.319158 0.529791 0.038322 -0.404352
C67   C     C_3   0.818700 0.970405 0.461082 -0.393189
C68   C     C_R   0.889927 0.368679 0.188672 -0.205742
C69   C     C_3   0.818803 0.030312 0.461480 -0.398002
C70   C     C_3   0.249833 0.449059 0.999217 0.203752
C71   C     C_3   0.249835 0.550794 0.999784 0.198759
C72   C     C_3   0.749526 0.949160 0.500209 0.197485
C73   C     C_3   0.749544 0.050899 0.500659 0.206110
C74   C     C_R   0.092010 0.337260 0.743531 0.172820
C75   C     C_R   0.075135 0.643722 0.219849 0.152508
C76   C     C_R   0.976989 0.688116 0.884262 0.119252
C77   C     C_R   0.994123 0.328133 0.132300 0.121369
C78   C     C_R   0.595358 0.835411 0.240338 0.173974
C79   C     C_R   0.548579 0.784748 0.112741 0.172037
C80   C     C_R   0.484785 0.174601 0.627200 0.117169
C81   C     C_R   0.500257 0.163950 0.352778 0.111175
C82   C     C_R   0.496145 0.829805 0.634297 0.123238
C83   C     C_R   0.113838 0.356410 0.674968 -0.189354
C84   C     C_R   0.076836 0.607479 0.276726 -0.192460
C85   C     C_R   0.910618 0.663085 0.896928 -0.208496
C86   C     C_R   0.940870 0.366633 0.133034 -0.210956
C87   C     C_R   0.618373 0.852532 0.171116 -0.212042
C88   C     C_R   0.424244 0.142486 0.622091 -0.168522
C89   C     C_R   0.438352 0.132766 0.361423 -0.202752
C90   C     C_R   0.372501 0.178235 0.731946 0.117066
C91   C     C_R   0.444557 0.869395 0.636482 -0.213233
C92   C     C_R   0.373343 0.184152 0.271947 0.119896
C93   C     C_R   0.389188 0.750750 0.859554 0.851765
C94   C     C_R   0.392881 0.834362 0.748210 0.124105
C95   C     C_R   0.047359 0.288113 0.613963 0.168812
C96   C     C_R   0.966656 0.643521 0.325810 0.153479
C97   C     C_R   0.862981 0.695113 0.781945 0.121277
C98   C     C_R   0.889623 0.331822 0.245064 0.124386
C99   C     C_R   0.517916 0.770914 0.182271 0.022657
C100  C     C_R   0.434510 0.212467 0.740674 0.007217
C101  C     C_R   0.437396 0.214437 0.258133 0.037275
C102  C     C_R   0.444728 0.792660 0.748333 0.032120
C103  C     C_R   0.017250 0.272322 0.682902 0.022397
C104  C     C_R   0.393279 0.746358 0.137389 0.805520
C105  C     C_R   0.975175 0.689234 0.281656 0.027803
C106  C     C_R   0.930577 0.721069 0.765866 0.032235
C107  C     C_R   0.943264 0.291374 0.246834 0.032738
C108  C     C_R   0.051268 0.290133 0.747561 0.024663
C109  C     C_R   0.031051 0.689199 0.226496 0.029079
C110  C     C_R   0.987482 0.719076 0.819203 0.030867
C111  C     C_R   0.997344 0.290236 0.190426 0.029790
C112  C     C_R   0.552688 0.789227 0.246228 0.023575
C113  C     C_R   0.491310 0.211207 0.686440 0.010467
C114  C     C_R   0.498077 0.208457 0.305648 0.031188
C115  C     C_R   0.388461 0.249026 0.858912 0.789593
C116  C     C_R   0.498464 0.791252 0.691578 0.030949
C117  C     C_R   0.454355 0.739977 0.190508 -0.217619
C118  C     C_R   0.442138 0.247517 0.800722 -0.130607
C119  C     C_R   0.443342 0.249914 0.198370 -0.141392
C120  C     C_R   0.444493 0.752312 0.802529 -0.148659
C121  C     C_R   0.954871 0.240017 0.689920 -0.216548
C122  C     C_R   0.926133 0.732220 0.285279 -0.212831
C123  C     C_R   0.943433 0.748566 0.698606 -0.149059
C124  C     C_R   0.944545 0.252083 0.302525 -0.147584
C125  C     C_R   0.442067 0.713249 0.258050 0.084230
C126  C     C_R   0.888913 0.749304 0.640750 0.857583
C127  C     C_R   0.502471 0.281368 0.807049 0.072313
C128  C     C_R   0.502594 0.284774 0.192479 0.060739
C129  C     C_R   0.497362 0.712521 0.802838 0.062739
C130  C     C_R   0.943604 0.211873 0.756385 0.083005
C131  C     C_R   0.914401 0.760101 0.218571 0.086243
C132  C     C_R   0.008992 0.776132 0.685787 0.061063
C133  C     C_R   0.998866 0.213335 0.304245 0.061506
C134  C     C_R   0.982754 0.226191 0.819680 0.077982
C135  C     C_R   0.969549 0.759781 0.163366 0.082975
C136  C     C_R   0.063447 0.776316 0.740027 0.062934
C137  C     C_R   0.889348 0.250566 0.359692 0.854213
C138  C     C_R   0.052894 0.212813 0.249399 0.064059
C139  C     C_R   0.481914 0.727925 0.320734 0.078196
C140  C     C_R   0.557190 0.280999 0.752999 0.070312
C141  C     C_R   0.556711 0.284671 0.247294 0.068423
C142  C     C_R   0.551327 0.711921 0.747933 0.062863
C143  C     C_R   0.043162 0.260185 0.812721 -0.221005
C144  C     C_R   0.035537 0.731909 0.176330 -0.219520
C145  C     C_R   0.052682 0.747884 0.805705 -0.147223
C146  C     C_R   0.052238 0.251217 0.193767 -0.149236
C147  C     C_R   0.543495 0.760607 0.312494 -0.221966
C148  C     C_R   0.893440 0.246290 0.637174 0.800290
C149  C     C_R   0.551518 0.246365 0.693534 -0.133395
C150  C     C_R   0.553873 0.246971 0.303916 -0.142884
C151  C     C_R   0.552047 0.751262 0.693629 -0.150592
C152  C     C_R   0.392536 0.671157 0.265115 -0.128042
C153  C     C_R   0.509318 0.316093 0.866982 -0.144528
C154  C     C_R   0.508423 0.320586 0.133300 -0.148707
C155  C     C_R   0.498165 0.673315 0.858022 -0.150780
C156  C     C_R   0.895675 0.168770 0.761661 -0.126874
C157  C     C_R   0.846739 0.784302 0.202303 -0.142266
C158  C     C_R   0.020920 0.804697 0.619858 -0.147854
C159  C     C_R   0.885057 0.745371 0.354813 0.800851
C160  C     C_R   0.000934 0.175044 0.360652 -0.151882
C161  C     C_R   0.373718 0.651130 0.333855 -0.155267
C162  C     C_R   0.568773 0.349487 0.872526 -0.143925
C163  C     C_R   0.566355 0.355515 0.129126 -0.135272
C164  C     C_R   0.550825 0.634472 0.857921 -0.133758
C165  C     C_R   0.877516 0.147080 0.829567 -0.152447
C166  C     C_R   0.835253 0.809913 0.135940 -0.157576
C167  C     C_R   0.085074 0.832719 0.608619 -0.137246
C168  C     C_R   0.054987 0.137187 0.361873 -0.131418
C169  C     C_R   0.106094 0.253975 0.863584 0.804937
C170  C     C_R   0.598712 0.825537 0.108443 -0.191018
C171  C     C_R   0.104978 0.745106 0.135190 0.807890
C172  C     C_R   0.110015 0.749683 0.860425 0.857269
C173  C     C_R   0.110095 0.250036 0.139633 0.860614
C174  C     C_R   0.606163 0.754066 0.363554 0.802444
C175  C     C_R   0.609113 0.248648 0.638877 0.790955
C176  C     C_R   0.609201 0.248555 0.361102 0.842012
C177  C     C_R   0.610038 0.750068 0.639596 0.857587
C178  C     C_R   0.906996 0.167481 0.893291 -0.138603
C179  C     C_R   0.888691 0.809442 0.082180 -0.145427
C180  C     C_R   0.138541 0.833190 0.662414 -0.144684
H1    H     H_    0.179146 0.454354 0.096633 0.182142
H2    H     H_    0.468933 0.318015 0.910297 0.115033
H3    H     H_    0.586953 0.153932 0.592896 0.200763
H4    H     H_    0.581524 0.111744 0.360363 0.183160
H5    H     H_    0.557098 0.137990 0.440735 0.170856
H6    H     H_    0.573077 0.864068 0.570190 0.170330
H7    H     H_    0.512940 0.826300 0.524443 0.155627
H8    H     H_    0.509416 0.775924 0.009332 0.228675
H9    H     H_    0.509793 0.719827 0.059256 0.161209
H10   H     H_    0.282975 0.211544 0.779714 0.207817
H11   H     H_    0.324929 0.163000 0.831876 0.192411
H12   H     H_    0.286061 0.162268 0.211966 0.141943
H13   H     H_    0.468431 0.322063 0.089719 0.107188
H14   H     H_    0.267594 0.205564 0.278483 0.192409
H15   H     H_    0.346960 0.875499 0.830224 0.192986
H16   H     H_    0.287378 0.841398 0.778887 0.145366
H17   H     H_    0.009616 0.280077 0.509853 0.229026
H18   H     H_    0.011666 0.223295 0.558139 0.163348
H19   H     H_    0.853869 0.648354 0.334259 0.166332
H20   H     H_    0.900157 0.624219 0.409479 0.247337
H21   H     H_    0.785640 0.659573 0.721494 0.145392
H22   H     H_    0.758358 0.715019 0.761963 0.192531
H23   H     H_    0.841694 0.372745 0.325757 0.189499
H24   H     H_    0.458540 0.672278 0.902131 0.107634
H25   H     H_    0.783598 0.336805 0.274692 0.151893
H26   H     H_    0.873926 0.149915 0.713680 0.159598
H27   H     H_    0.799243 0.780431 0.236774 0.175576
H28   H     H_    0.980783 0.806113 0.576438 0.117605
H29   H     H_    0.961184 0.173958 0.404652 0.105745
H30   H     H_    0.839737 0.114824 0.832736 0.140519
H31   H     H_    0.783061 0.827858 0.124716 0.141562
H32   H     H_    0.093120 0.854346 0.558093 0.129713
H33   H     H_    0.297149 0.544831 0.888857 0.179482
H34   H     H_    0.055707 0.108349 0.405324 0.124839
H35   H     H_    0.334731 0.619675 0.338319 0.138176
H36   H     H_    0.572960 0.375625 0.918581 0.123414
H37   H     H_    0.570206 0.382434 0.083410 0.120720
H38   H     H_    0.550574 0.604949 0.900451 0.123850
H39   H     H_    0.979462 0.222313 0.939651 0.158364
H40   H     H_    0.988200 0.779023 0.046940 0.174637
H41   H     H_    0.171144 0.807200 0.767668 0.107292
H42   H     H_    0.149468 0.171102 0.210354 0.112649
H43   H     H_    0.479411 0.726076 0.440768 0.156355
H44   H     H_    0.182101 0.542405 0.098686 0.182077
H45   H     H_    0.661056 0.317026 0.719913 0.119389
H46   H     H_    0.656703 0.323006 0.283612 0.106829
H47   H     H_    0.646359 0.669060 0.707414 0.113431
H48   H     H_    0.180782 0.048843 0.755890 0.133112
H49   H     H_    0.180308 0.953026 0.756079 0.130742
H50   H     H_    0.713520 0.549442 0.249368 0.129332
H51   H     H_    0.710090 0.453815 0.249704 0.119315
H52   H     H_    0.291162 0.094947 0.131403 0.121501
H53   H     H_    0.289268 0.903467 0.132451 0.130391
H54   H     H_    0.767606 0.595001 0.636751 0.113566
H55   H     H_    0.298516 0.456908 0.889177 0.179286
H56   H     H_    0.769222 0.403369 0.636896 0.118573
H57   H     H_    0.324658 0.046703 0.241439 0.131613
H58   H     H_    0.323646 0.950973 0.241896 0.133481
H59   H     H_    0.783603 0.546690 0.750963 0.125488
H60   H     H_    0.784448 0.450842 0.750900 0.126681
H61   H     H_    0.130973 0.455708 0.011052 0.148892
H62   H     H_    0.199129 0.544202 0.890770 0.179418
H63   H     H_    0.131070 0.544613 0.014687 0.156715
H64   H     H_    0.200488 0.456303 0.889618 0.175033
H65   H     H_    0.699342 0.955354 0.609777 0.177092
H66   H     H_    0.797367 0.955599 0.610606 0.178555
H67   H     H_    0.630730 0.044411 0.487483 0.150425
H68   H     H_    0.699146 0.043315 0.609940 0.177608
H69   H     H_    0.630755 0.955471 0.487459 0.147682
H70   H     H_    0.211519 0.904639 0.866550 0.120352
H71   H     H_    0.212443 0.096356 0.866224 0.131887
H72   H     H_    0.723908 0.405095 0.363764 0.114616
H73   H     H_    0.731222 0.596736 0.363069 0.115377
H74   H     H_    0.320275 0.455465 0.096318 0.182758
H75   H     H_    0.368823 0.544279 0.009425 0.151390
H76   H     H_    0.321650 0.543955 0.095844 0.173947
H77   H     H_    0.680481 0.044696 0.402547 0.179695
H78   H     H_    0.368821 0.455420 0.010687 0.149539
H79   H     H_    0.868500 0.955752 0.489178 0.153102
H80   H     H_    0.821030 0.045039 0.403938 0.184307
H81   H     H_    0.868572 0.044575 0.489902 0.148460
H82   H     H_    0.820628 0.956577 0.403367 0.181737
H83   H     H_    0.890610 0.152195 0.946326 0.144453
H84   H     H_    0.878065 0.827025 0.029135 0.144359
H85   H     H_    0.188278 0.855167 0.653880 0.125698
H86   H     H_    0.149936 0.106946 0.308193 0.126890
H87   H     H_    0.387560 0.658034 0.450323 0.144179
H88   H     H_    0.797174 0.043493 0.611006 0.172060
H89   H     H_    0.668858 0.375312 0.823170 0.127172
H90   H     H_    0.664220 0.382901 0.180163 0.115742
H91   H     H_    0.644560 0.603367 0.803093 0.125740
H92   H     H_    0.146093 0.391556 0.671177 0.153261
H93   H     H_    0.112864 0.574322 0.273366 0.146563
H94   H     H_    0.902673 0.640109 0.946331 0.143183
H95   H     H_    0.938893 0.395345 0.089392 0.139714
H96   H     H_    0.652281 0.886805 0.165968 0.151582
H97   H     H_    0.419830 0.115269 0.577236 0.146591
H98   H     H_    0.439592 0.099441 0.397913 0.136995
H99   H     H_    0.680192 0.956249 0.402343 0.180366
H100  H     H_    0.443292 0.898602 0.593474 0.137815
H101  H     H_    0.621508 0.837015 0.055868 0.153670
H102  H     H_    0.322584 0.118866 0.667024 0.150201
H103  H     H_    0.326455 0.120941 0.334129 0.132756
H104  H     H_    0.355105 0.903273 0.692949 0.140715
H105  H     H_    0.117444 0.343313 0.559092 0.155951
H106  H     H_    0.017945 0.574002 0.365697 0.154164
H107  H     H_    0.803218 0.647515 0.858931 0.140362
H108  H     H_    0.849363 0.399181 0.187778 0.139645
H109  H     H_    0.074662 0.356616 0.852164 0.170941
H110  H     H_    0.370107 0.651608 0.218045 0.160045
H111  H     H_    0.158064 0.372884 0.817182 0.222713
H112  H     H_    0.085042 0.647433 0.106357 0.170418
H113  H     H_    0.160505 0.626377 0.154946 0.238240
H114  H     H_    0.044442 0.640541 0.941183 0.167014
H115  H     H_    0.014226 0.692409 0.988686 0.157720
H116  H     H_    0.070589 0.363525 0.068868 0.170320
H117  H     H_    0.012821 0.324127 0.022790 0.156651
H118  H     H_    0.578027 0.857591 0.347851 0.173627
H119  H     H_    0.662099 0.871848 0.312647 0.220625
H120  H     H_    0.543346 0.200573 0.538429 0.196221
N1    N     N_3   0.102317 0.370461 0.805792 -0.469160
N2    N     N_3   0.310269 0.176098 0.779655 -0.490091
N3    N     N_3   0.305057 0.195736 0.237523 -0.449735
N4    N     N_3   0.338437 0.840027 0.804111 -0.452244
N5    N     N_3   0.038962 0.258216 0.548136 -0.457939
N6    N     N_3   0.897375 0.625666 0.352484 -0.456597
N7    N     N_3   0.801395 0.697426 0.733834 -0.454447
N8    N     N_3   0.834515 0.336899 0.300333 -0.455136
N9    N     N_3   0.103831 0.626002 0.151281 -0.478298
N10   N     N_3   0.033467 0.680245 0.937551 -0.461010
N11   N     N_3   0.043310 0.327886 0.070936 -0.459234
N12   N     N_3   0.606349 0.869919 0.301038 -0.467295
N13   N     N_3   0.537954 0.167218 0.570734 -0.504937
N14   N     N_3   0.566803 0.146485 0.385573 -0.439803
N15   N     N_3   0.544331 0.829009 0.572147 -0.459462
N16   N     N_3   0.538315 0.754051 0.047941 -0.462603
O1    O     O_3   0.249990 0.250010 0.000000 -0.480393
O2    O     O_R   0.835430 0.219350 0.353840 -0.635485
O3    O     O_R   0.835430 0.219350 0.646160 -0.649020
O4    O     O_R   0.835430 0.780650 0.353840 -0.652400
O5    O     O_R   0.164550 0.280640 0.853840 -0.651606
O6    O     O_R   0.164550 0.719360 0.146160 -0.642160
O7    O     O_R   0.164550 0.719360 0.853840 -0.629088
O8    O     O_R   0.164550 0.280640 0.146160 -0.626127
O9    O     O_R   0.664550 0.780640 0.353840 -0.661028
O10   O     O_R   0.664550 0.219360 0.646160 -0.644151
O11   O     O_R   0.664550 0.219360 0.353840 -0.617584
O12   O     O_3   0.249990 0.749990 0.000000 -0.474761
O13   O     O_R   0.664550 0.780640 0.646160 -0.630224
O14   O     O_R   0.396160 0.219380 0.914560 -0.637555
O15   O     O_R   0.396160 0.780620 0.085440 -0.641599
O16   O     O_R   0.396160 0.780620 0.914560 -0.647172
O17   O     O_R   0.396160 0.219380 0.085440 -0.636591
O18   O     O_R   0.896160 0.719380 0.414560 -0.644489
O19   O     O_R   0.896160 0.280620 0.585440 -0.643294
O20   O     O_R   0.896160 0.280620 0.414560 -0.648765
O21   O     O_R   0.896160 0.719380 0.585440 -0.635641
O22   O     O_R   0.103840 0.219370 0.085450 -0.642663
O23   O     O_3   0.749990 0.750010 0.500000 -0.474302
O24   O     O_R   0.103840 0.780630 0.914550 -0.646804
O25   O     O_R   0.103840 0.780630 0.085450 -0.645480
O26   O     O_R   0.103840 0.219370 0.914550 -0.639819
O27   O     O_R   0.603840 0.719370 0.585450 -0.641590
O28   O     O_R   0.603840 0.280630 0.414550 -0.643663
O29   O     O_R   0.603840 0.280630 0.585450 -0.635655
O30   O     O_R   0.603840 0.719370 0.414550 -0.637505
O31   O     O_R   0.310730 0.133160 0.000000 -0.639942
O32   O     O_R   0.310730 0.866840 0.000000 -0.637092
O33   O     O_R   0.810730 0.633160 0.500000 -0.667731
O34   O     O_3   0.749990 0.249990 0.500000 -0.480333
O35   O     O_R   0.810730 0.366840 0.500000 -0.636252
O36   O     O_R   0.249970 0.366860 0.060720 -0.644025
O37   O     O_R   0.249970 0.633140 0.939280 -0.643126
O38   O     O_R   0.249970 0.633140 0.060720 -0.681196
O39   O     O_R   0.249970 0.366860 0.939280 -0.664304
O40   O     O_R   0.749970 0.866860 0.560720 -0.646001
O41   O     O_R   0.749970 0.133140 0.439280 -0.640474
O42   O     O_R   0.749970 0.133140 0.560720 -0.663154
O43   O     O_R   0.749970 0.866860 0.439280 -0.659859
O44   O     O_R   0.189290 0.133150 0.000000 -0.637802
O45   O     O_R   0.335430 0.280650 0.146160 -0.627984
O46   O     O_R   0.189290 0.866850 0.000000 -0.634621
O47   O     O_R   0.689290 0.633150 0.500000 -0.633278
O48   O     O_R   0.689290 0.366850 0.500000 -0.634504
O49   O     O_R   0.335430 0.719350 0.853840 -0.638043
O50   O     O_R   0.335430 0.719350 0.146160 -0.650224
O51   O     O_R   0.335430 0.280650 0.853840 -0.647104
O52   O     O_R   0.835430 0.780650 0.646160 -0.629781
Zn1   Zn    Zn3+2 0.249990 0.293780 0.913250 0.930128
Zn2   Zn    Zn3+2 0.336760 0.793760 0.000000 0.955732
Zn3   Zn    Zn3+2 0.836760 0.706240 0.500000 0.948524
Zn4   Zn    Zn3+2 0.836760 0.293760 0.500000 0.950366
Zn5   Zn    Zn3+2 0.163250 0.206230 0.000000 0.960722
Zn6   Zn    Zn3+2 0.163250 0.793770 0.000000 0.963902
Zn7   Zn    Zn3+2 0.663250 0.706230 0.500000 0.963292
Zn8   Zn    Zn3+2 0.663250 0.293770 0.500000 0.970771
Zn9   Zn    Zn3+2 0.249990 0.706220 0.086750 0.927590
Zn10  Zn    Zn3+2 0.249990 0.706220 0.913250 0.964152
Zn11  Zn    Zn3+2 0.249990 0.293780 0.086750 0.966977
Zn12  Zn    Zn3+2 0.749990 0.793780 0.413250 0.926164
Zn13  Zn    Zn3+2 0.749990 0.206220 0.586750 0.935361
Zn14  Zn    Zn3+2 0.749990 0.206220 0.413250 0.965283
Zn15  Zn    Zn3+2 0.749990 0.793780 0.586750 0.967599
Zn16  Zn    Zn3+2 0.336760 0.206240 0.000000 0.965149

loop_
_geom_bond_atom_site_label_1
_geom_bond_atom_site_label_2
_ccdc_geom_bond_type
C53   C71   S    
C6    H90   S    
C74   C83   A    
C124  C133  A    
C79   C99   A    
C31   C36   A    
C64   H99   S    
C58   C60   S    
C29   C33   A    
C85   H94   S    
O8    Zn11  S    
C90   C100  A    
C61   C63   S    
C62   C64   S    
H118  N12   S    
C134  C143  A    
O14   Zn16  S    
C20   H56   S    
H18   N5    S    
C93   C120  S    
C4    C12   A    
C110  C145  A    
C156  H26   S    
C88   H97   S    
C177  O27   A    
C128  C154  A    
H17   N5    S    
C119  C128  A    
C167  C180  A    
C161  H35   S    
O19   Zn4   S    
C130  C134  A    
C107  C124  A    
O43   Zn12  S    
C158  C167  A    
C45   C47   A    
C27   C31   A    
C46   H106  S    
C124  C137  S    
C28   C32   A    
C170  H101  S    
C14   H45   S    
C40   H71   S    
O34   Zn4   S    
C123  C126  S    
C69   H81   S    
C129  C142  A    
C20   C28   A    
O9    Zn12  S    
C33   C50   S    
C17   C21   A    
C82   C91   A    
C34   C39   A    
C149  C175  S    
H21   N7    S    
C142  C151  A    
C19   C23   A    
C43   C44   A    
C12   H43   S    
C37   C38   A    
C115  C118  S    
C57   C97   A    
O21   Zn3   S    
H5    N14   S    
C12   C139  A    
C55   O42   A    
C69   H80   S    
C46   C84   A    
O10   Zn13  S    
C30   C49   S    
C31   C48   S    
C79   N16   S    
C114  C150  A    
C171  O25   A    
C104  C117  S    
O12   Zn10  S    
C152  H110  S    
C51   O48   A    
C33   C38   A    
C56   C59   S    
C133  C160  A    
C86   H95   S    
C80   C88   A    
O30   Zn7   S    
C57   C85   A    
O1    Zn16  S    
C160  C168  A    
O25   Zn6   S    
H14   N3    S    
C68   C98   A    
C3    C11   A    
C59   H44   S    
C115  O14   A    
C81   N14   S    
C46   C96   A    
C153  H2    S    
C94   C102  A    
C56   H1    S    
C41   C45   A    
C4    C161  A    
C130  C156  A    
C53   O37   A    
C76   C85   A    
C95   N5    S    
C78   C87   A    
O38   Zn9   S    
C21   H57   S    
H3    N13   S    
C123  C132  A    
O48   Zn8   S    
C157  H27   S    
H20   N6    S    
C121  C130  A    
C148  O3    A    
H16   N4    S    
C147  C174  S    
C162  H36   S    
C4    H87   S    
C160  H29   S    
C144  C171  S    
C171  O6    A    
C79   C170  A    
C11   C138  A    
C75   C84   A    
C151  C177  S    
C49   O32   A    
C65   C70   S    
O45   Zn11  S    
C74   N1    S    
C2    C90   A    
C67   C72   S    
O33   Zn3   S    
O23   Zn7   S    
C58   H62   S    
C172  O7    A    
O20   Zn4   S    
C81   C114  A    
O16   Zn2   S    
C35   H105  S    
C50   O33   A    
C109  C144  A    
C82   N15   S    
C52   O39   A    
C152  C161  A    
C9    C179  A    
C145  C172  S    
C3    H86   S    
O46   Zn6   S    
C83   H92   S    
C60   H55   S    
O7    Zn10  S    
C17   H52   S    
C95   C103  A    
C141  C150  A    
C52   O36   A    
C177  O13   A    
O34   Zn14  S    
C30   C34   A    
C8    C134  A    
C120  C129  A    
C17   C27   A    
C111  C146  A    
O2    Zn14  S    
C93   O16   A    
C61   H66   S    
O4    Zn12  S    
C99   C117  A    
C1    O17   A    
O29   Zn8   S    
H15   N4    S    
C132  C136  A    
H116  N11   S    
O41   Zn14  S    
O15   Zn2   S    
C32   C37   A    
C6    C163  A    
C69   C73   S    
O3    Zn13  S    
O17   Zn16  S    
C76   N10   S    
C9    C135  A    
C77   N11   S    
C14   C140  A    
C26   C30   A    
C78   N12   S    
O1    Zn1   S    
C118  C127  A    
C48   O44   A    
C104  O15   A    
C163  H37   S    
C122  C131  A    
O44   Zn5   S    
C63   H88   S    
C105  C109  A    
C18   C22   A    
C107  C111  A    
H22   N7    S    
C66   H76   S    
C126  O52   A    
C112  C147  A    
C158  H28   S    
C81   C89   A    
C8    H39   S    
C54   O40   A    
C39   H70   S    
C168  H34   S    
C138  C146  A    
C105  C122  A    
C34   C36   A    
H9    N16   S    
C37   C41   A    
C55   C73   S    
H119  N12   S    
C40   C44   A    
C80   C113  A    
C127  C140  A    
O12   Zn6   S    
C148  O19   A    
C21   C22   A    
O32   Zn2   S    
C140  C149  A    
C116  C151  A    
C67   H79   S    
C137  O2    A    
C172  O24   A    
C96   C105  A    
C19   H54   S    
C174  O30   A    
O40   Zn15  S    
H109  N1    S    
O18   Zn3   S    
C18   C26   A    
O42   Zn13  S    
C57   H107  S    
C2    H102  S    
C47   H50   S    
C26   C27   A    
H19   N6    S    
C28   C29   A    
H4    N14   S    
C167  H32   S    
C50   O47   A    
C58   C71   S    
H115  N10   S    
C20   C25   A    
C101  C114  A    
C1    C119  S    
C131  C157  A    
O52   Zn15  S    
H112  N9    S    
C15   C141  A    
C154  H13   S    
C122  C159  S    
O11   Zn14  S    
H7    N15   S    
O23   Zn12  S    
C128  C141  A    
C55   O41   A    
C173  O22   A    
H113  N9    S    
C133  C138  A    
C84   H93   S    
C169  O26   A    
O5    Zn1   S    
C60   H64   S    
C97   N7    S    
C98   N8    S    
O23   Zn3   S    
C129  C155  A    
C35   C83   A    
C13   H103  S    
C174  O9    A    
C63   C73   S    
C42   H73   S    
O1    Zn5   S    
C132  C158  A    
C98   C107  A    
C51   O35   A    
C80   N13   S    
C176  O28   A    
C32   C51   S    
O27   Zn7   S    
C166  H31   S    
C23   H59   S    
C179  H84   S    
C90   N2    S    
C66   C71   S    
H120  N13   S    
C65   H74   S    
C121  C148  S    
O51   Zn1   S    
C115  O51   A    
C44   H48   S    
C62   H77   S    
C5    C14   A    
C92   C101  A    
C97   C106  A    
C61   C72   S    
C7    C16   A    
C13   C92   A    
C100  C118  A    
C19   C29   A    
C102  C120  A    
H11   N2    S    
C164  H38   S    
O36   Zn11  S    
H6    N15   S    
O23   Zn15  S    
C48   O31   A    
C43   H49   S    
C35   C95   A    
C7    C164  A    
C5    H89   S    
C153  C162  A    
C10   C180  A    
C5    C162  A    
C7    H91   S    
C65   H78   S    
C82   C116  A    
H8    N16   S    
C156  C165  A    
C41   H72   S    
O26   Zn5   S    
C165  H30   S    
H25   N8    S    
C74   C108  A    
C64   H69   S    
C58   H33   S    
C54   O43   A    
C159  O18   A    
C76   C110  A    
C1    O45   A    
C78   C112  A    
C108  C143  A    
C22   H58   S    
C150  C176  S    
C56   H61   S    
C16   H47   S    
O12   Zn9   S    
C68   C86   A    
C127  C153  A    
C180  H85   S    
C18   H53   S    
C125  C139  A    
H12   N3    S    
C63   H68   S    
C139  C147  A    
O37   Zn10  S    
C10   C136  A    
C38   C42   A    
C131  C135  A    
C178  H83   S    
O50   Zn9   S    
C61   H65   S    
H10   N2    S    
C146  C173  S    
O12   Zn2   S    
C59   H63   S    
H117  N11   S    
C10   H41   S    
C96   N6    S    
C6    C15   A    
C68   H108  S    
O34   Zn8   S    
C24   H104  S    
C77   C111  A    
C106  C123  A    
C2    C88   A    
C49   O46   A    
C53   O38   A    
O28   Zn8   S    
C136  C145  A    
C23   C25   A    
H111  N1    S    
C104  O50   A    
C165  C178  A    
C11   H42   S    
O47   Zn7   S    
C3    C168  A    
C75   C109  A    
O31   Zn16  S    
C15   H46   S    
C101  C119  A    
C113  C149  A    
C154  C163  A    
C36   C40   A    
C102  C116  A    
C143  C169  S    
C39   C43   A    
C25   H60   S    
O13   Zn15  S    
C87   C170  A    
C93   O49   A    
C67   C69   S    
C75   N9    S    
O49   Zn10  S    
C16   C142  A    
C125  C152  A    
C24   C94   A    
H114  N10   S    
C60   C70   S    
O35   Zn4   S    
O6    Zn9   S    
C62   C73   S    
H23   N8    S    
C175  O29   A    
C103  C108  A    
C135  C144  A    
C77   C86   A    
C56   C70   S    
C87   H96   S    
C155  H24   S    
C24   C91   A    
C67   H82   S    
C9    H40   S    
C106  C110  A    
O34   Zn13  S    
C169  O5    A    
C13   C89   A    
C100  C113  A    
C94   N4    S    
C137  O20   A    
C157  C166  A    
O39   Zn1   S    
C175  O10   A    
C155  C164  A    
O1    Zn11  S    
C173  O8    A    
C92   N3    S    
C62   H67   S    
C117  C125  A    
C99   C112  A    
C89   H98   S    
C42   C47   A    
C64   C72   S    
C91   H100  S    
C52   C70   S    
C176  O11   A    
C8    C178  A    
C54   C72   S    
C66   H75   S    
O24   Zn6   S    
C65   C66   S    
C166  C179  A    
C45   H51   S    
O22   Zn5   S    
C159  O4    A    
C59   C71   S    
C126  O21   A    
C103  C121  A    
