data_mof_unit_56729.cif
_audit_creation_date              2012-12-10T18:46:13-0500
_audit_creation_method            fapswitch 2.2
_symmetry_space_group_name_H-M    P1
_symmetry_Int_Tables_number       1
_space_group_crystal_system       triclinic
_cell_length_a                    9.917037
_cell_length_b                    10.614809
_cell_length_c                    13.203561
_cell_angle_alpha                 90.893866
_cell_angle_beta                  71.12278
_cell_angle_gamma                 89.262185
_cell_volume                      1314.75183923

loop_
_atom_site_label
_atom_site_type_symbol
_atom_type_description
_atom_site_fract_x
_atom_site_fract_y
_atom_site_fract_z
_atom_type_partial_charge
C1    C     C_R   0.500073 0.739651 0.498955 0.974825
C2    C     C_R   0.373688 0.524203 0.821193 -0.070461
C3    C     C_R   0.616039 0.933299 0.426120 0.531748
C4    C     C_R   0.421582 0.508741 0.703806 0.894625
C5    C     C_R   0.613743 0.063547 0.427345 -0.355323
C6    C     C_R   0.501783 0.128388 0.502585 -0.189959
C7    C     C_R   0.392100 0.066953 0.579024 0.505992
C8    C     C_R   0.391242 0.937516 0.575110 -0.386830
C9    C     C_R   0.500938 0.872280 0.498202 -0.197595
C10   C     C_R   0.945250 0.398060 0.462310 -0.237761
C11   C     C_R   0.089574 0.396687 0.462565 0.574191
C12   C     C_R   0.441383 0.517083 0.982117 0.042945
C13   C     C_R   0.052922 0.603836 0.535285 -0.113810
C14   C     C_R   0.911211 0.603502 0.533059 -0.063732
C15   C     C_R   0.500524 0.260563 0.500511 0.969267
C16   C     C_R   0.578731 0.495542 0.296937 0.940692
C17   C     C_R   0.790057 0.581558 0.021095 -0.140019
C18   C     C_R   0.628955 0.496048 0.181352 -0.112735
C19   C     C_R   0.234466 0.490999 0.880984 -0.185090
C20   C     C_R   0.195647 0.480683 0.991555 -0.159343
C21   C     C_R   0.298602 0.491394 0.041955 -0.044325
C22   C     C_3   0.320163 0.150513 0.747349 -0.297348
C23   C     C_R   0.471928 0.554965 0.875124 -0.138041
C24   C     C_3   0.121628 0.180675 0.457641 -0.246889
C25   C     C_2   0.093609 0.715609 0.585068 1.019972
C26   C     C_3   0.910877 0.492273 0.769432 -0.299687
C27   C     C_2   0.468707 0.329034 0.151524 0.903502
C28   C     C_3   0.545207 0.803269 0.767074 -0.318153
C29   C     C_3   0.855046 0.886541 0.361558 -0.256414
C30   C     C_R   0.553001 0.512957 0.027181 -0.052327
C31   C     C_R   0.686407 0.565442 0.971006 -0.056087
C32   C     C_R   0.714712 0.602465 0.865614 0.424818
C33   C     C_R   0.603048 0.615638 0.824408 0.432132
C34   C     C_R   0.540322 0.453696 0.124457 -0.080608
C35   C     C_R   0.757151 0.554974 0.128350 -0.216266
H1    H     H_    0.829896 0.583223 0.170205 0.174993
H2    H     H_    0.332628 0.058652 0.783247 0.164586
H3    H     H_    0.233147 0.204657 0.807164 0.199045
H4    H     H_    0.419156 0.206081 0.731248 0.147205
H5    H     H_    0.066695 0.185457 0.545843 0.169457
H6    H     H_    0.208985 0.109293 0.442153 0.210575
H7    H     H_    0.048387 0.146984 0.415236 0.134164
H8    H     H_    0.085561 0.905592 0.599813 0.343402
H9    H     H_    0.856833 0.443958 0.718222 0.165783
H10   H     H_    0.904724 0.433128 0.839596 0.146629
H11   H     H_    0.025303 0.497517 0.723318 0.215525
H12   H     H_    0.696240 0.114151 0.368440 0.177740
H13   H     H_    0.415331 0.184505 0.253945 0.356773
H14   H     H_    0.565463 0.849708 0.836878 0.166756
H15   H     H_    0.429433 0.786923 0.784969 0.164418
H16   H     H_    0.578791 0.869498 0.699771 0.189360
H17   H     H_    0.931528 0.812703 0.315499 0.191200
H18   H     H_    0.851105 0.880517 0.446661 0.179527
H19   H     H_    0.896760 0.979129 0.328577 0.153961
H20   H     H_    0.308232 0.888285 0.634169 0.212313
H21   H     H_    0.904288 0.318769 0.429880 0.155216
H22   H     H_    0.842451 0.685271 0.561531 0.214498
H23   H     H_    0.891047 0.624829 0.980292 0.190518
H24   H     H_    0.156822 0.469386 0.842141 0.159226
H25   H     H_    0.265991 0.478820 0.127630 0.130438
H26   H     H_    0.087349 0.457558 0.037553 0.142154
N1    N     N_R   0.142790 0.500030 0.500030 -0.168182
N2    N     N_R   0.857180 0.499940 0.500010 -0.110924
O1    O     O_R   0.385370 0.683250 0.500010 -0.620497
O2    O     O_3   0.181502 0.296828 0.416764 -0.566930
O3    O     O_2   0.144001 0.703716 0.657490 -0.609343
O4    O     O_R   0.062346 0.835627 0.555413 -0.860374
O5    O     O_3   0.853367 0.615554 0.799282 -0.575989
O6    O     O_2   0.428187 0.272038 0.085784 -0.632957
O7    O     O_R   0.460153 0.270581 0.247557 -0.780371
O8    O     O_3   0.624777 0.690022 0.735606 -0.573801
O9    O     O_3   0.721137 0.864506 0.349098 -0.608403
O10   O     O_R   0.614700 0.683220 0.500010 -0.582253
O11   O     O_R   0.328400 0.499990 0.653620 -0.606232
O12   O     O_R   0.557730 0.499960 0.653620 -0.575193
O13   O     O_R   0.385300 0.316780 0.499990 -0.516170
O14   O     O_R   0.614630 0.316750 0.499990 -0.655826
O15   O     O_R   0.442270 0.500040 0.346380 -0.581932
O16   O     O_R   0.671600 0.500010 0.346380 -0.623729
O17   O     O_3   0.282621 0.133098 0.653884 -0.613707
Zn1   Zn    Zn3+2 0.346870 0.500020 0.500000 1.031969
Zn2   Zn    Zn3+2 0.653130 0.499980 0.500000 0.979480

loop_
_geom_bond_atom_site_label_1
_geom_bond_atom_site_label_2
_ccdc_geom_bond_type
C24   H7    S    
C10   N2    A    
C25   O4    S    
C11   N1    A    
C26   H9    S    
C7    C8    A    
C5    H12   S    
C12   C23   A    
C5    C6    A    
C30   C31   A    
C28   H16   S    
C29   H19   S    
C14   N2    A    
C22   H3    S    
C20   H26   S    
C4    O12   A    
C26   H10   S    
C6    C15   S    
C28   H15   S    
C13   N1    A    
C19   C20   A    
C8    C9    A    
C23   C33   A    
C10   H21   S    
C18   C35   A    
C4    O11   A    
C27   O6    D    
C17   H23   S    
C32   O5    S    
C29   O9    S    
C15   O13   A    
C13   C14   A    
C24   H6    S    
C13   C25   S    
C8    H20   S    
C27   C34   S    
C30   C34   A    
N2    Zn2   S    
C1    C9    S    
C21   H25   S    
C26   H11   S    
C19   H24   S    
C22   H2    S    
C12   C21   A    
C35   H1    S    
C2    C4    S    
C3    C9    A    
C28   H14   S    
C31   C32   A    
C18   C34   A    
C27   O7    S    
C24   O2    S    
H8    O4    S    
N1    Zn1   S    
C17   C31   A    
C28   O8    S    
O11   Zn1   S    
C1    O1    A    
O10   Zn2   S    
C14   H22   S    
C12   C30   A    
C2    C19   A    
C25   O3    D    
H13   O7    S    
C3    C5    A    
O13   Zn1   S    
O16   Zn2   S    
O12   Zn2   S    
C6    C7    A    
C16   O16   A    
C26   O5    S    
C32   C33   A    
C3    O9    S    
C1    O10   A    
O15   Zn1   S    
C15   O14   A    
C29   H18   S    
O14   Zn2   S    
C22   H4    S    
C24   H5    S    
C16   O15   A    
O1    Zn1   S    
C10   C11   A    
C33   O8    S    
C22   O17   S    
C20   C21   A    
C16   C18   S    
C2    C23   A    
C17   C35   A    
C11   O2    S    
C7    O17   S    
C29   H17   S    
