data_mof_unit_58945.cif
_audit_creation_date              2012-12-11T15:31:38-0500
_audit_creation_method            fapswitch 2.2
_symmetry_space_group_name_H-M    P1
_symmetry_Int_Tables_number       1
_space_group_crystal_system       triclinic
_cell_length_a                    6.991602
_cell_length_b                    15.314728
_cell_length_c                    21.486828
_cell_angle_alpha                 72.916081
_cell_angle_beta                  89.915442
_cell_angle_gamma                 89.966443
_cell_volume                      2199.17174496

loop_
_atom_site_label
_atom_site_type_symbol
_atom_type_description
_atom_site_fract_x
_atom_site_fract_y
_atom_site_fract_z
_atom_type_partial_charge
O1    O     O_R   0.648150 0.130050 0.214300 -0.542789
O2    O     O_R   0.351850 0.869950 0.785700 -0.530497
O3    O     O_R   0.320490 0.006660 0.340150 -0.540463
O4    O     O_R   0.679510 0.993340 0.659850 -0.542914
O5    O     O_R   0.146100 0.869940 0.285700 -0.542580
O6    O     O_R   0.853900 0.130060 0.714300 -0.538535
C1    C     C_R   0.488957 0.001942 0.367138 0.721351
C2    C     C_R   0.510440 0.996931 0.633328 0.758051
O7    O     O_R   0.318690 0.137980 0.218120 -0.547095
O8    O     O_R   0.681310 0.862020 0.781880 -0.566231
O9    O     O_R   0.144280 0.002190 0.162800 -0.538316
O10   O     O_R   0.855720 0.997810 0.837200 -0.563681
C3    C     C_R   0.487851 0.175507 0.208522 0.721253
C4    C     C_R   0.512282 0.824768 0.795823 0.720806
O11   O     O_R   0.649960 0.997790 0.337200 -0.559045
O12   O     O_R   0.350040 0.002210 0.662800 -0.543081
O13   O     O_3   0.479300 0.955290 0.231990 -0.372783
O14   O     O_3   0.520700 0.044710 0.768010 -0.379469
V1    V     V_3+5 0.206040 0.008290 0.253340 1.418924
V2    V     V_3+5 0.793960 0.991710 0.746660 1.372369
O15   O     O_R   0.814320 0.993320 0.159850 -0.542946
O16   O     O_R   0.185680 0.006680 0.840150 -0.542681
C5    C     C_R   0.983716 0.996678 0.133507 0.734375
C6    C     C_R   0.016311 0.997725 0.867517 0.711095
O17   O     O_R   0.816120 0.862000 0.281880 -0.546299
O18   O     O_R   0.183880 0.138000 0.718120 -0.543898
C7    C     C_R   0.986231 0.825936 0.292295 0.734166
C8    C     C_R   0.014849 0.174225 0.706401 0.752217
V3    V     V_3+5 0.705540 0.991700 0.246660 1.401941
V4    V     V_3+5 0.294460 0.008300 0.753340 1.406995
O19   O     O_3   0.982150 0.044700 0.268010 -0.389952
O20   O     O_3   0.017850 0.955300 0.731990 -0.385311
C9    C     C_R   0.001128 0.727745 0.321197 -0.124898
C10   C     C_R   0.004416 0.272718 0.676387 -0.129841
C11   C     C_R   0.124992 0.586160 0.310246 0.341291
C12   C     C_R   0.942100 0.421055 0.689340 0.331514
C13   C     C_R   0.073613 0.676791 0.282602 -0.268389
C14   C     C_R   0.957313 0.327035 0.715553 -0.268223
C15   C     C_R   0.989550 0.689761 0.389330 0.218252
C16   C     C_R   0.045358 0.311877 0.609697 0.219366
C17   C     C_R   0.009233 0.593081 0.417078 -0.033521
C18   C     C_R   0.000941 0.406446 0.579287 -0.030746
C19   C     C_R   0.072868 0.541485 0.375573 -0.034656
C20   C     C_R   0.940967 0.459681 0.620615 -0.054360
C21   C     C_R   0.974957 0.546030 0.484634 0.017529
C22   C     C_R   0.014590 0.450949 0.510196 0.036170
C23   C     C_R   0.044509 0.402692 0.464672 -0.214144
C24   C     C_R   0.883293 0.588755 0.525788 -0.192572
C25   C     C_R   0.075664 0.445991 0.398984 0.248608
C26   C     C_R   0.870724 0.548686 0.592701 0.261960
H1    H     H_    0.944833 0.296197 0.767586 0.128266
H2    H     H_    0.109090 0.710442 0.232124 0.133215
H3    H     H_    0.022501 0.330972 0.476891 0.193942
H4    H     H_    0.807842 0.651378 0.505990 0.188520
C27   C     C_3   0.904419 0.920405 0.995259 0.439707
C28   C     C_3   0.093005 0.065488 0.007216 0.430458
C29   C     C_3   0.078702 0.917301 0.038975 0.268274
C30   C     C_3   0.915215 0.067502 0.964483 0.248803
C31   C     C_3   0.994417 0.993578 0.064030 -0.218691
C32   C     C_3   0.002748 0.992648 0.938607 -0.232984
C33   C     C_3   0.815489 0.995153 0.021039 -0.314586
C34   C     C_3   0.181000 0.988154 0.982142 -0.349590
H5    H     H_    0.666695 0.988582 0.037793 0.136758
H6    H     H_    0.328202 0.984738 0.964616 0.134980
C35   C     C_3   0.672566 0.026493 0.473839 -0.275234
C36   C     C_3   0.323937 0.972675 0.527529 -0.265414
C37   C     C_3   0.536773 0.080931 0.505477 0.494904
C38   C     C_3   0.458700 0.917404 0.496146 0.483720
H7    H     H_    0.814219 0.049994 0.451839 0.122082
H8    H     H_    0.181791 0.951069 0.549839 0.121982
C39   C     C_3   0.500202 0.996255 0.563168 -0.099635
C40   C     C_3   0.496693 0.001989 0.437847 -0.102289
C41   C     C_3   0.634203 0.939989 0.532278 -0.260007
C42   C     C_3   0.362168 0.058670 0.468950 -0.239664
H9    H     H_    0.744244 0.891659 0.559518 0.114289
H10   H     H_    0.252828 0.107694 0.442066 0.110796
C43   C     C_R   0.501932 0.276874 0.184120 -0.068259
C44   C     C_R   0.495156 0.723683 0.822547 -0.068808
C45   C     C_R   0.644456 0.417765 0.190494 -0.244667
C46   C     C_R   0.332940 0.585191 0.820783 -0.228223
C47   C     C_R   0.602870 0.325441 0.219579 0.294265
C48   C     C_R   0.374413 0.676827 0.791243 0.254391
C49   C     C_R   0.428745 0.324897 0.122497 -0.287958
C50   C     C_R   0.572668 0.675866 0.883940 -0.296642
C51   C     C_R   0.492243 0.414699 0.088717 0.064680
C52   C     C_R   0.504794 0.587300 0.919456 0.050894
C53   C     C_R   0.602675 0.461378 0.124209 0.021976
C54   C     C_R   0.386946 0.541682 0.885452 0.071899
C55   C     C_R   0.454323 0.458276 0.020716 0.030344
C56   C     C_R   0.540317 0.544547 0.987919 -0.003032
C57   C     C_R   0.649293 0.587445 0.025574 -0.216276
C58   C     C_R   0.337463 0.417091 0.984007 -0.262783
C59   C     C_R   0.667240 0.550816 0.092914 0.291081
C60   C     C_R   0.312580 0.455347 0.917222 0.274760
H11   H     H_    0.676673 0.710530 0.904470 0.134643
H12   H     H_    0.328398 0.289118 0.101229 0.147950
H13   H     H_    0.713788 0.453240 0.220761 0.126147
H14   H     H_    0.241885 0.551129 0.794605 0.179425
H15   H     H_    0.722055 0.651155 0.004250 0.173903
H16   H     H_    0.262145 0.354249 0.005578 0.151166
N1    N     N_2   0.069888 0.393845 0.354229 -0.517950
H17   H     H_    0.933382 0.374545 0.346660 0.252028
C61   C     C_3   0.211677 0.322867 0.362184 -0.571618
H18   H     H_    0.208495 0.296171 0.319447 0.212429
H19   H     H_    0.183284 0.266031 0.406822 0.182903
H20   H     H_    0.355606 0.351273 0.364549 0.207369
N2    N     N_2   0.762915 0.592559 0.631184 -0.516722
H21   H     H_    0.621099 0.573820 0.637107 0.257751
C62   C     C_3   0.802551 0.687531 0.623929 -0.614062
H22   H     H_    0.737454 0.706761 0.665188 0.204297
H23   H     H_    0.739625 0.731266 0.578412 0.207665
H24   H     H_    0.959102 0.699009 0.623561 0.208099
N3    N     N_2   0.756326 0.605561 0.127651 -0.548424
H25   H     H_    0.845800 0.572449 0.164509 0.251243
C63   C     C_3   0.632198 0.670068 0.145145 -0.546796
H26   H     H_    0.715821 0.710292 0.171054 0.198704
H27   H     H_    0.516339 0.633719 0.177783 0.222724
H28   H     H_    0.570765 0.718256 0.100835 0.238465
N4    N     N_2   0.205007 0.407408 0.881901 -0.518315
H29   H     H_    0.090181 0.373085 0.907415 0.262735
C64   C     C_3   0.320922 0.353233 0.851358 -0.544238
H30   H     H_    0.232286 0.327832 0.817746 0.206049
H31   H     H_    0.384328 0.294215 0.888818 0.207195
H32   H     H_    0.436106 0.395443 0.821886 0.194034
N5    N     N_2   0.286207 0.722935 0.731022 -0.546745
H33   H     H_    0.306102 0.689604 0.696227 0.234893
C65   C     C_3   0.086391 0.743934 0.737250 -0.481928
H34   H     H_    0.998638 0.680907 0.747254 0.174291
H35   H     H_    0.037290 0.793996 0.691462 0.186098
H36   H     H_    0.064068 0.774091 0.777793 0.227724
N6    N     N_2   0.646137 0.284863 0.286685 -0.569042
H37   H     H_    0.643247 0.330736 0.313433 0.235285
C66   C     C_3   0.812767 0.226153 0.300698 -0.524320
H38   H     H_    0.886748 0.232121 0.344606 0.156545
H39   H     H_    0.915190 0.241947 0.259205 0.212782
H40   H     H_    0.766999 0.154418 0.313618 0.232985
N7    N     N_2   0.149984 0.258650 0.576663 -0.539915
H41   H     H_    0.289739 0.245922 0.591920 0.288949
C67   C     C_3   0.053352 0.180040 0.566348 -0.522380
H42   H     H_    0.103277 0.116028 0.601748 0.213344
H43   H     H_    0.087217 0.175523 0.517048 0.182489
H44   H     H_    0.895957 0.185182 0.570970 0.223200
N8    N     N_2   0.009242 0.749685 0.428855 -0.558515
H45   H     H_    0.141050 0.781122 0.423743 0.292865
C68   C     C_3   0.854761 0.812772 0.428696 -0.501190
H46   H     H_    0.835272 0.817414 0.478580 0.194643
H47   H     H_    0.893225 0.882214 0.397818 0.205513
H48   H     H_    0.718185 0.790086 0.411969 0.221848
N9    N     N_2   0.258637 0.546559 0.276235 -0.509906
H49   H     H_    0.353906 0.500380 0.304387 0.272842
C69   C     C_3   0.188059 0.524393 0.219689 -0.537752
H50   H     H_    0.300445 0.489239 0.200018 0.209967
H51   H     H_    0.151028 0.587800 0.181547 0.187947
H52   H     H_    0.062751 0.478263 0.232299 0.216780
N10   N     N_2   0.958476 0.476199 0.732332 -0.498125
H53   H     H_    0.018961 0.539747 0.713042 0.273171
C70   C     C_3   0.802221 0.472898 0.777104 -0.498681
H54   H     H_    0.841712 0.511352 0.811689 0.202357
H55   H     H_    0.771534 0.401646 0.805287 0.181429
H56   H     H_    0.671298 0.503741 0.750624 0.199243
N11   N     N_2   0.169687 0.836928 0.081493 -0.547184
H57   H     H_    0.171913 0.833966 0.130006 0.246126
C71   C     C_3   0.126418 0.751196 0.069598 -0.527973
H58   H     H_    0.236406 0.700112 0.092626 0.184235
H59   H     H_    0.125027 0.758017 0.016745 0.232619
H60   H     H_    0.985484 0.727830 0.090341 0.260190
N12   N     N_2   0.802596 0.142688 0.925545 -0.545120
H61   H     H_    0.738497 0.131842 0.885300 0.257702
C72   C     C_3   0.878483 0.232356 0.915983 -0.554374
H62   H     H_    0.004474 0.241083 0.883698 0.209914
H63   H     H_    0.917524 0.242695 0.963349 0.235293
H64   H     H_    0.766980 0.283118 0.893767 0.184054
O21   O     O_3   0.801401 0.843571 0.990802 -0.566852
C73   C     C_3   0.657437 0.871383 0.943060 0.072526
H65   H     H_    0.702590 0.853411 0.899398 0.151030
H66   H     H_    0.624594 0.945928 0.928163 0.125660
C74   C     C_3   0.473238 0.823705 0.968763 -0.790683
H67   H     H_    0.443933 0.839739 0.014421 0.273577
H68   H     H_    0.356256 0.848300 0.933009 0.199772
H69   H     H_    0.482505 0.749181 0.979990 0.227781
O22   O     O_3   0.199299 0.141182 0.014310 -0.563802
C75   C     C_3   0.394909 0.116314 0.019268 0.077328
H70   H     H_    0.448790 0.114560 0.970995 0.152095
H71   H     H_    0.412681 0.049538 0.057366 0.135924
C76   C     C_3   0.520600 0.182408 0.039934 -0.692326
H72   H     H_    0.488904 0.175180 0.090934 0.200842
H73   H     H_    0.672577 0.162757 0.038580 0.210578
H74   H     H_    0.502260 0.252700 0.007667 0.225668
O23   O     O_3   0.568331 0.165003 0.517945 -0.567171
C77   C     C_3   0.627522 0.231175 0.460877 0.045430
H75   H     H_    0.545235 0.227117 0.417629 0.142084
H76   H     H_    0.781853 0.222020 0.452334 0.123176
C78   C     C_3   0.597415 0.325124 0.469911 -0.725140
H77   H     H_    0.676499 0.330312 0.513416 0.234021
H78   H     H_    0.648437 0.378975 0.426257 0.171487
H79   H     H_    0.443327 0.336239 0.477331 0.246647
O24   O     O_3   0.422201 0.830099 0.489079 -0.574982
C79   C     C_3   0.338758 0.773790 0.546849 0.060786
H80   H     H_    0.186399 0.793022 0.549638 0.137814
H81   H     H_    0.415404 0.779328 0.590940 0.125519
C80   C     C_3   0.346601 0.674409 0.547012 -0.716993
H82   H     H_    0.493382 0.655854 0.536937 0.226307
H83   H     H_    0.297808 0.629164 0.594823 0.172239
H84   H     H_    0.254849 0.662552 0.508756 0.248124

loop_
_geom_bond_atom_site_label_1
_geom_bond_atom_site_label_2
_ccdc_geom_bond_type
C36   C38   S    
C77   H75   S    
N10   C70   S    
C72   H63   S    
C72   H62   S    
C71   H58   S    
O4    C2    A    
V1    O19   S    
C45   C53   A    
N11   H57   S    
C80   H83   S    
N9    H49   S    
C29   C34   S    
N12   C72   S    
C36   H8    S    
O22   C75   S    
C7    C9    S    
C24   H4    S    
N7    C67   S    
O9    V1    S    
N1    H17   S    
C42   H10   S    
C10   C16   A    
O16   C6    A    
C11   C13   A    
C50   C52   A    
O3    C1    A    
N9    C69   S    
C25   N1    S    
C67   H44   S    
C52   C54   A    
C76   H73   S    
C35   C37   S    
C28   O22   S    
C43   C49   A    
O12   V4    S    
N8    H45   S    
C36   C42   S    
C53   C59   A    
C4    C44   S    
C35   C41   S    
C32   C34   S    
C18   C22   A    
C69   H52   S    
C33   H5    S    
O7    C3    A    
C73   H65   S    
C27   O21   S    
C64   H32   S    
C34   H6    S    
C61   H18   S    
C77   C78   S    
N11   C71   S    
O5    C7    A    
O7    V1    S    
C70   H54   S    
O6    C8    A    
C76   H72   S    
O8    V2    S    
C63   H27   S    
C66   H40   S    
N2    H21   S    
O3    V1    S    
C79   H80   S    
O14   V4    S    
C11   C19   A    
C37   C39   S    
C78   H77   S    
C38   C40   S    
C23   H3    S    
C63   H28   S    
C78   H79   S    
C30   C33   S    
C24   C26   A    
N5    H33   S    
C69   H50   S    
C8    C10   S    
C70   H55   S    
C27   C32   S    
C46   C54   A    
C66   H39   S    
C17   C19   A    
O23   C77   S    
C18   C20   A    
C58   C60   A    
C68   H47   S    
O11   V3    S    
C3    C43   S    
C51   C53   A    
O15   C5    A    
O17   V3    S    
C67   H42   S    
C54   C60   A    
C31   C33   S    
C71   H60   S    
C40   C42   S    
C52   C56   A    
C62   H24   S    
C1    C40   S    
C45   C47   A    
C13   H2    S    
C51   C55   A    
C19   C25   A    
C76   H74   S    
C59   N3    S    
C14   H1    S    
C74   H68   S    
C38   C41   S    
O21   C73   S    
O15   V3    S    
C9    C13   A    
C38   O24   S    
C50   H11   S    
C78   H78   S    
C5    C31   S    
C65   H35   S    
C48   N5    S    
C44   C50   A    
C57   C59   A    
C66   H38   S    
C60   N4    S    
C44   C48   A    
C36   C39   S    
C43   C47   A    
C6    C32   S    
C74   H69   S    
C16   N7    S    
O10   V2    S    
C79   C80   S    
O1    V3    S    
C61   H19   S    
C37   C42   S    
C9    C15   A    
C55   C58   A    
C30   N12   S    
C73   C74   S    
C64   H30   S    
N4    C64   S    
C46   C48   A    
C49   C51   A    
C15   N8    S    
O18   V4    S    
C70   H56   S    
C27   C29   S    
O8    C4    A    
C26   N2    S    
C80   H84   S    
C28   C34   S    
C12   C20   A    
C29   C31   S    
O1    C3    A    
C41   H9    S    
N6    H37   S    
C68   H46   S    
N12   H61   S    
C68   H48   S    
C58   H16   S    
C39   C41   S    
N3    H25   S    
V2    O20   S    
C21   C24   A    
C20   C26   A    
N8    C68   S    
C22   C23   A    
C2    C39   S    
C77   H76   S    
C2    O12   A    
O16   V4    S    
C46   H14   S    
C10   C14   A    
C45   H13   S    
C16   C18   A    
N6    C66   S    
N4    H29   S    
C37   O23   S    
C65   H34   S    
O5    V1    S    
C23   C25   A    
C35   C40   S    
O6    V2    S    
N7    H41   S    
O10   C6    A    
O18   C8    A    
C28   C31   S    
O2    V4    S    
C57   H15   S    
C62   H23   S    
C65   H36   S    
V3    O19   S    
O13   V3    S    
C12   C14   A    
V4    O20   S    
C67   H43   S    
C56   C57   A    
N2    C62   S    
C35   H7    S    
C49   H12   S    
C27   C33   S    
C1    O11   A    
O9    C5    A    
O13   V1    S    
C73   H66   S    
C28   C30   S    
C61   H20   S    
O14   V2    S    
C69   H51   S    
O24   C79   S    
O2    C4    A    
C75   H71   S    
C64   H31   S    
C47   N6    S    
O4    V2    S    
C21   C22   A    
C29   N11   S    
C80   H82   S    
C15   C17   A    
N1    C61   S    
C74   H67   S    
N10   H53   S    
N5    C65   S    
C17   C21   A    
C71   H59   S    
C79   H81   S    
C72   H64   S    
C11   N9    S    
C63   H26   S    
C55   C56   A    
C62   H22   S    
C30   C32   S    
C75   C76   S    
C75   H70   S    
C12   N10   S    
N3    C63   S    
O17   C7    A    
