data_mof_unit_64160.cif
_audit_creation_date              2012-12-10T21:30:28-0500
_audit_creation_method            fapswitch 2.2
_symmetry_space_group_name_H-M    P1
_symmetry_Int_Tables_number       1
_space_group_crystal_system       triclinic
_cell_length_a                    13.198106
_cell_length_b                    16.151919
_cell_length_c                    16.698825
_cell_angle_alpha                 93.452132
_cell_angle_beta                  87.593025
_cell_angle_gamma                 107.630505
_cell_volume                      3385.35141448

loop_
_atom_site_label
_atom_site_type_symbol
_atom_type_description
_atom_site_fract_x
_atom_site_fract_y
_atom_site_fract_z
_atom_type_partial_charge
C1    C     C_R   0.502528 0.488694 0.346924 1.004370
C2    C     C_R   0.029268 0.470755 0.478410 -0.023218
C3    C     C_R   0.123707 0.479853 0.519899 -0.078710
C4    C     C_R   0.976524 0.534922 0.494038 0.064297
C5    C     C_R   0.026537 0.613160 0.538941 -0.014419
C6    C     C_R   0.118235 0.619952 0.580064 -0.178081
C7    C     C_R   0.159652 0.550387 0.577469 0.045742
C8    C     C_R   0.870305 0.518771 0.475293 -0.166800
C9    C     C_R   0.870969 0.661268 0.529511 -0.220493
C10   C     C_R   0.182419 0.420939 0.499662 -0.249513
C11   C     C_R   0.514680 0.482323 0.260416 -0.336300
C12   C     C_R   0.298425 0.452019 0.504214 0.958871
C13   C     C_R   0.579216 0.554309 0.220492 0.523012
C14   C     C_R   0.588956 0.549905 0.137253 -0.137749
C15   C     C_R   0.531520 0.473520 0.094068 0.103111
C16   C     C_R   0.473454 0.400151 0.134290 -0.240624
C17   C     C_R   0.464753 0.404233 0.217443 0.574773
C18   C     C_R   0.414813 0.456943 0.864036 -0.143307
C19   C     C_R   0.422034 0.452156 0.780686 0.575733
C20   C     C_R   0.481984 0.529121 0.906568 0.182267
C21   C     C_R   0.494848 0.519569 0.739976 -0.214975
C22   C     C_R   0.559371 0.593083 0.782895 -0.134745
C23   C     C_R   0.500484 0.511996 0.653033 0.916508
C24   C     C_R   0.551388 0.597600 0.866181 -0.196706
C25   C     C_R   0.560892 0.780365 0.529362 0.545389
C26   C     C_R   0.557492 0.866249 0.528142 0.491362
C27   C     C_R   0.476512 0.884631 0.485894 -0.006116
C28   C     C_R   0.402154 0.814582 0.445649 -0.354043
C29   C     C_R   0.409434 0.729781 0.448306 0.609611
C30   C     C_R   0.448095 0.135232 0.465516 0.558295
C31   C     C_R   0.445484 0.221319 0.464133 -0.026401
C32   C     C_R   0.521681 0.115377 0.514815 0.182111
C33   C     C_R   0.583986 0.268683 0.557402 -0.006780
C34   C     C_R   0.701186 0.548061 0.496548 0.902322
C35   C     C_R   0.589679 0.183769 0.560661 -0.328656
C36   C     C_R   0.976349 0.678519 0.550979 0.641254
C37   C     C_R   0.816413 0.578886 0.496904 -0.186234
C38   C     C_R   0.136304 0.343893 0.453843 0.543080
C39   C     C_R   0.041250 0.332886 0.415508 -0.233386
C40   C     C_R   0.992215 0.398490 0.422603 0.500427
H1    H     H_    0.829714 0.708817 0.545369 0.239595
H2    H     H_    0.430444 0.341339 0.100788 0.205412
H3    H     H_    0.603317 0.652194 0.900208 0.179635
H4    H     H_    0.389719 0.236803 0.426401 0.230959
H5    H     H_    0.150829 0.675402 0.621277 0.197599
H6    H     H_    0.636776 0.320979 0.593008 0.160152
H7    H     H_    0.647111 0.171242 0.598922 0.210509
H8    H     H_    0.823923 0.455154 0.453289 0.236830
N1    N     N_2   0.523453 0.471531 0.010489 -0.143484
N2    N     N_2   0.488562 0.530393 0.990059 -0.150861
N3    N     N_R   0.487340 0.714070 0.490410 -0.223651
N4    N     N_2   0.466881 0.970491 0.480943 -0.032235
N5    N     N_2   0.531721 0.029904 0.520424 -0.041261
N6    N     N_R   0.512670 0.285920 0.509580 -0.131989
O1    O     O_R   0.504530 0.423560 0.387290 -0.584643
O2    O     O_R   0.496400 0.561030 0.381140 -0.533198
O3    O     O_R   0.352460 0.397130 0.504630 -0.545551
O4    O     O_R   0.344330 0.534610 0.498470 -0.579796
O5    O     O_R   0.503600 0.438970 0.618860 -0.579659
O6    O     O_R   0.495470 0.576440 0.612710 -0.602086
O7    O     O_R   0.655670 0.465390 0.501530 -0.648094
O8    O     O_R   0.647540 0.602870 0.495370 -0.554337
Zn1   Zn    Zn3+2 0.505430 0.408200 0.504110 1.044668
Zn2   Zn    Zn3+2 0.494570 0.591800 0.495890 1.094642
C41   C     C_1   0.339372 0.387485 0.905458 0.331549
N7    N     N_1   0.278987 0.331869 0.938690 -0.143437
F1    F     F_    0.403407 0.333655 0.255522 -0.608617
C42   C     C_1   0.640238 0.660910 0.743806 0.266666
N8    N     N_1   0.705817 0.715203 0.713088 -0.074390
C43   C     C_1   0.657093 0.623924 0.096810 0.358067
N9    N     N_1   0.711670 0.683188 0.064435 -0.161449
F2    F     F_    0.633235 0.628194 0.262543 -0.622187
F3    F     F_    0.379755 0.073288 0.418782 -0.614956
C44   C     C_1   0.317705 0.828920 0.401521 0.466510
N10   N     N_1   0.249960 0.840387 0.366206 -0.099709
F4    F     F_    0.338806 0.662962 0.408085 -0.616748
F5    F     F_    0.633258 0.929866 0.567672 -0.580519
F6    F     F_    0.638898 0.763342 0.569233 -0.602048
F7    F     F_    0.025364 0.755383 0.590452 -0.632965
F8    F     F_    0.189810 0.284567 0.438081 -0.613003
F9    F     F_    0.915409 0.394027 0.369403 -0.658735
C45   C     C_1   0.999354 0.257680 0.362055 0.449104
N11   N     N_1   0.965742 0.197359 0.319191 -0.119592
C46   C     C_1   0.228015 0.548361 0.642054 0.191742
N12   N     N_1   0.281120 0.547308 0.695029 -0.173335
F10   F     F_    0.357364 0.382463 0.739092 -0.636383

loop_
_geom_bond_atom_site_label_1
_geom_bond_atom_site_label_2
_ccdc_geom_bond_type
C6    H5    S    
C34   C37   S    
C1    C11   S    
C4    C8    A    
C19   F10   S    
C28   C44   S    
C25   N3    A    
C29   F4    S    
C27   N4    S    
C18   C41   S    
C23   O5    A    
C26   C27   A    
C5    C6    A    
C28   C29   A    
C19   C21   A    
C1    O2    A    
C3    C7    A    
C30   C31   A    
N6    Zn1   S    
C15   C16   A    
C5    C36   A    
C34   O8    A    
C18   C19   A    
O7    Zn1   S    
C20   N2    S    
C20   C24   A    
C42   N8    T    
O1    Zn1   S    
C9    C36   A    
O8    Zn2   S    
O2    Zn2   S    
C43   N9    T    
C12   O4    A    
C7    C46   S    
C35   H7    S    
C21   C22   A    
C33   H6    S    
C14   C43   S    
O3    Zn1   S    
O4    Zn2   S    
C23   O6    A    
C17   F1    S    
C26   F5    S    
C31   H4    S    
C25   F6    S    
C32   C35   A    
C46   N12   T    
C44   N10   T    
C39   C40   A    
C30   F3    S    
C16   C17   A    
C25   C26   A    
C34   O7    A    
C2    C4    A    
C8    H8    S    
C9    C37   A    
C22   C42   S    
C10   C12   S    
C12   O3    A    
C45   N11   T    
C21   C23   S    
C22   C24   A    
C8    C37   A    
C16   H2    S    
C32   N5    S    
N4    N5    D    
C29   N3    A    
C33   N6    A    
C11   C17   A    
C9    H1    S    
C40   F9    S    
N3    Zn2   S    
C39   C45   S    
C4    C5    A    
C36   F7    S    
C6    C7    A    
C13   F2    S    
O5    Zn1   S    
O6    Zn2   S    
C10   C38   A    
C2    C3    A    
C1    O1    A    
C41   N7    T    
C3    C10   A    
C30   C32   A    
C11   C13   A    
C38   C39   A    
C38   F8    S    
C33   C35   A    
C18   C20   A    
C15   N1    S    
C31   N6    A    
C2    C40   A    
N1    N2    D    
C27   C28   A    
C24   H3    S    
C14   C15   A    
C13   C14   A    
