data_mof_unit_33903.cif
_audit_creation_date              2012-12-10T17:24:48-0500
_audit_creation_method            fapswitch 2.2
_symmetry_space_group_name_H-M    P1
_symmetry_Int_Tables_number       1
_space_group_crystal_system       triclinic
_cell_length_a                    19.030188
_cell_length_b                    19.214496
_cell_length_c                    18.457646
_cell_angle_alpha                 108.958385
_cell_angle_beta                  109.55425
_cell_angle_gamma                 110.483552
_cell_volume                      5157.10521586

loop_
_atom_site_label
_atom_site_type_symbol
_atom_type_description
_atom_site_fract_x
_atom_site_fract_y
_atom_site_fract_z
_atom_type_partial_charge
C1    C     C_R   0.618902 0.619565 0.498192 0.780964
C2    C     C_R   0.691538 0.765957 0.516388 -0.039969
C3    C     C_2   0.309951 0.193898 0.662356 0.559940
C4    C     C_2   0.184637 0.706689 0.250755 0.588478
C5    C     C_2   0.308695 0.018942 0.391451 0.341363
C6    C     C_2   0.842681 0.826983 0.183921 0.485967
C7    C     C_2   0.985612 0.113753 0.940091 0.333042
C8    C     C_2   0.269092 0.364004 0.160839 0.475616
C9    C     C_2   0.111461 0.087204 0.888283 0.495664
C10   C     C_2   0.037731 0.291768 0.980050 0.420949
C11   C     C_2   0.094147 0.343486 0.176053 0.432096
C12   C     C_2   0.201346 0.475482 0.378216 0.394518
C13   C     C_R   0.816034 0.810070 0.498373 -0.114353
C14   C     C_2   0.769435 0.473292 0.386601 0.368015
C15   C     C_2   0.533494 0.715712 0.465373 0.555326
C16   C     C_2   0.579377 0.897344 0.545344 0.521480
C17   C     C_R   0.381291 0.500368 0.378735 0.888920
C18   C     C_R   0.797222 0.723554 0.457991 -0.028431
C19   C     C_R   0.745815 0.667856 0.476549 0.035814
C20   C     C_R   0.685750 0.685121 0.497188 -0.164170
C21   C     C_R   0.825704 0.688975 0.400321 0.076443
C22   C     C_R   0.808415 0.603846 0.369461 -0.035762
C23   C     C_R   0.774717 0.557246 0.406608 -0.137323
C24   C     C_R   0.752363 0.594386 0.467875 0.077835
C25   C     C_3   0.175865 0.425906 0.213724 -0.101225
C26   C     C_R   0.789077 0.675029 0.786984 -0.001704
C27   C     C_R   0.863229 0.747991 0.866914 0.064051
C28   C     C_R   0.912504 0.738012 0.934220 -0.024780
C29   C     C_R   0.372321 0.380816 0.492776 0.875799
C30   C     C_R   0.889825 0.655828 0.919668 -0.156654
C31   C     C_R   0.824003 0.582033 0.836339 0.044918
C32   C     C_R   0.766353 0.589259 0.771419 -0.031884
C33   C     C_R   0.816101 0.500947 0.816522 -0.139881
C34   C     C_R   0.740506 0.424603 0.741763 -0.040293
C35   C     C_R   0.670322 0.431394 0.697103 0.053098
C36   C     C_3   0.230524 0.488107 0.314528 -0.090185
C37   C     C_R   0.688430 0.509925 0.698083 -0.117194
C38   C     C_R   0.731199 0.341826 0.708758 0.090969
C39   C     C_R   0.647505 0.267505 0.651454 0.066283
C40   C     C_R   0.574292 0.276477 0.627405 -0.078916
C41   C     C_R   0.624145 0.505346 0.623320 0.820379
C42   C     C_R   0.585139 0.358775 0.651485 -0.013634
C43   C     C_R   0.313333 0.403783 0.629966 0.176293
C44   C     C_R   0.332805 0.411440 0.713620 -0.001359
C45   C     C_R   0.332926 0.343290 0.727085 -0.042140
C46   C     C_R   0.295859 0.262152 0.651825 -0.071220
C47   C     C_3   0.313145 0.497810 0.311773 -0.109713
C48   C     C_R   0.258895 0.252235 0.565330 -0.116601
C49   C     C_R   0.288589 0.325809 0.558897 0.026100
C50   C     C_R   0.187638 0.175240 0.486140 -0.170443
C51   C     C_R   0.171149 0.167846 0.400558 0.050337
C52   C     C_R   0.225990 0.240172 0.399033 0.010812
C53   C     C_3   0.326465 0.575605 0.298220 -0.101486
C54   C     C_R   0.291457 0.317214 0.481422 -0.136565
C55   C     C_R   0.104932 0.091207 0.316039 0.061159
C56   C     C_R   0.091997 0.088705 0.235826 0.079551
C57   C     C_R   0.143660 0.159635 0.235440 0.151080
C58   C     C_R   0.624970 0.785208 0.514860 -0.059161
C59   C     C_R   0.208253 0.234968 0.314909 0.068951
C60   C     C_R   0.001180 0.619893 0.121293 0.851492
C61   C     C_R   0.123824 0.504515 0.129668 0.958521
C62   C     C_R   0.004965 0.379973 0.883992 0.878163
C63   C     C_R   0.882798 0.497263 0.879899 0.822959
C64   C     C_R   0.004223 0.885104 0.378758 0.836268
C65   C     C_3   0.242944 0.565010 0.300088 -0.072228
C66   C     C_R   0.880455 0.877606 0.497799 0.856272
C67   C     C_R   0.008169 0.126454 0.620922 0.914193
C68   C     C_R   0.120591 0.116505 0.495635 0.844186
C69   C     C_R   0.646168 0.872239 0.553856 0.010280
C70   C     C_R   0.166940 0.777536 0.264676 0.003639
C71   C     C_R   0.236767 0.860216 0.301030 0.066433
C72   C     C_R   0.235939 0.930881 0.352739 -0.026860
C73   C     C_R   0.168090 0.916332 0.371659 0.052673
C74   C     C_R   0.086296 0.836376 0.312942 0.072854
C75   C     C_R   0.084475 0.766108 0.253907 -0.062238
C76   C     C_R   0.006163 0.825817 0.306338 -0.100108
C77   C     C_3   0.188474 0.503395 0.198802 -0.085598
C78   C     C_R   0.925454 0.756744 0.228540 0.070061
C79   C     C_R   0.921325 0.683579 0.172348 0.088989
C80   C     C_R   0.733677 0.937829 0.602153 -0.043068
C81   C     C_R   0.001865 0.688224 0.186348 -0.108615
C82   C     C_R   0.847257 0.759155 0.203435 -0.052499
C83   C     C_R   0.767882 0.682568 0.159639 0.004279
C84   C     C_R   0.761638 0.607430 0.106483 0.110371
C85   C     C_R   0.835567 0.611148 0.103013 0.089654
C86   C     C_R   0.994492 0.388844 0.728267 -0.200469
C87   C     C_R   0.996528 0.400339 0.658335 0.135764
C88   C     C_R   0.015445 0.350935 0.602520 0.064475
C89   C     C_3   0.271312 0.512139 0.197816 0.133635
C90   C     C_R   0.028812 0.287028 0.615277 0.045224
C91   C     C_R   0.796694 0.917484 0.597069 -0.047568
C92   C     C_R   0.019013 0.270076 0.682223 0.073958
C93   C     C_R   0.007448 0.325381 0.743292 0.007329
C94   C     C_R   0.027175 0.203824 0.694407 -0.186926
C95   C     C_R   0.045073 0.206269 0.776318 -0.042408
C96   C     C_R   0.020287 0.250005 0.829633 0.028085
C97   C     C_R   0.007349 0.315270 0.816822 -0.137553
C98   C     C_R   0.087864 0.166070 0.807670 -0.078525
C99   C     C_R   0.072486 0.136746 0.863787 -0.053894
C100  C     C_R   0.022304 0.157988 0.897237 -0.133841
C101  C     C_3   0.259126 0.435091 0.211527 -0.080941
C102  C     C_R   0.770153 0.832101 0.539155 0.074169
C103  C     C_R   0.013297 0.227224 0.894664 0.028689
C104  C     C_2   0.239273 0.634580 0.362676 0.487411
C105  C     C_2   0.889216 0.981732 0.662749 0.426381
C106  C     C_2   0.828620 0.564320 0.301002 0.407232
C107  C     C_2   0.763877 0.573737 0.539881 0.372971
C108  C     C_2   0.742799 0.693140 0.720678 0.577452
C109  C     C_2   0.991352 0.812852 0.018112 0.426685
C110  C     C_2   0.634924 0.179703 0.617686 0.456140
C111  C     C_2   0.509376 0.368994 0.642493 0.425750
C112  C     C_2   0.373358 0.359724 0.819493 0.489977
H1    H     H_    0.926316 0.650433 0.974430 0.198762
H2    H     H_    0.834224 0.764206 0.345130 0.175960
H3    H     H_    0.790204 0.495500 0.255875 0.054638
H4    H     H_    0.722528 0.509995 0.525743 0.146399
H5    H     H_    0.458586 0.206583 0.615559 0.192387
H6    H     H_    0.453774 0.198652 0.519181 0.226909
H7    H     H_    0.726354 0.658149 0.653425 0.043748
H8    H     H_    0.949686 0.860441 0.885642 0.181825
H9    H     H_    0.889908 0.869679 0.935547 0.201872
H10   H     H_    0.020246 0.875280 0.023701 0.044381
H11   H     H_    0.840774 0.376916 0.702579 0.172239
H12   H     H_    0.383285 0.638000 0.323663 0.194898
H13   H     H_    0.840718 0.343117 0.778052 0.216742
H14   H     H_    0.572015 0.124346 0.563872 0.076827
H15   H     H_    0.444022 0.316790 0.591259 0.044042
H16   H     H_    0.065263 0.140779 0.116562 0.210582
H17   H     H_    0.137346 0.108271 0.117021 0.193477
H18   H     H_    0.365612 0.528276 0.660594 0.232843
H19   H     H_    0.258219 0.476185 0.624825 0.184595
H20   H     H_    0.315722 0.478078 0.809873 0.179470
H21   H     H_    0.421157 0.516963 0.835605 0.207680
H22   H     H_    0.358002 0.393132 0.866047 0.035776
H23   H     H_    0.981764 0.430853 0.769804 0.167574
H24   H     H_    0.319259 0.153421 0.614347 0.015649
H25   H     H_    0.086981 0.002866 0.355305 0.190876
H26   H     H_    0.994880 0.007296 0.301998 0.253198
H27   H     H_    0.032047 0.961798 0.151857 0.258825
H28   H     H_    0.964461 0.000775 0.148392 0.235911
H29   H     H_    0.359295 0.538073 0.156843 0.197256
H30   H     H_    0.255862 0.473176 0.073712 0.244141
H31   H     H_    0.300934 0.308757 0.300981 0.247729
H32   H     H_    0.261232 0.362421 0.356547 0.197714
H33   H     H_    0.636305 0.540760 0.006423 0.227464
H34   H     H_    0.133834 0.157633 0.789439 0.218408
H35   H     H_    0.654021 0.511166 0.084942 0.203165
H36   H     H_    0.138652 0.648342 0.242930 -0.091516
H37   H     H_    0.365311 0.901119 0.349681 0.209580
H38   H     H_    0.318102 0.910432 0.259700 0.187852
H39   H     H_    0.374710 0.032120 0.413712 0.070001
H40   H     H_    0.235746 0.979731 0.505560 0.197644
H41   H     H_    0.212752 0.038878 0.462528 0.205878
H42   H     H_    0.794580 0.844049 0.186349 0.049305
H43   H     H_    0.665492 0.640358 0.177473 0.194331
H44   H     H_    0.708048 0.742114 0.203594 0.171563
H45   H     H_    0.179100 0.620982 0.363062 0.010041
H46   H     H_    0.786131 0.486348 0.017609 0.239499
H47   H     H_    0.780682 0.547199 0.969536 0.192740
H48   H     H_    0.996600 0.063823 0.946187 0.072334
H49   H     H_    0.216068 0.297977 0.124286 0.064876
H50   H     H_    0.928643 0.435382 0.582674 0.216034
H51   H     H_    0.036275 0.508821 0.650849 0.214648
H52   H     H_    0.084529 0.384209 0.543762 0.190497
H53   H     H_    0.976580 0.311338 0.472520 0.196142
H54   H     H_    0.018504 0.218130 0.498962 0.216301
H55   H     H_    0.121918 0.292775 0.583462 0.174169
H56   H     H_    0.800103 0.048299 0.720480 0.213535
H57   H     H_    0.115637 0.078645 0.944457 0.011212
H58   H     H_    0.992824 0.284627 0.004627 0.162477
H59   H     H_    0.089938 0.282782 0.144132 0.079209
H60   H     H_    0.136260 0.461435 0.363693 0.102384
H61   H     H_    0.813860 0.459560 0.368866 0.074494
H62   H     H_    0.511404 0.657945 0.406453 -0.044531
H63   H     H_    0.593026 0.953615 0.600202 0.096884
H64   H     H_    0.788487 0.062185 0.631511 0.210814
H65   H     H_    0.911765 0.048983 0.687832 0.034833
H66   H     H_    0.930755 0.781767 0.421800 0.223098
N1    N     N_3   0.757207 0.024989 0.653862 -0.440953
N2    N     N_3   0.024039 0.012919 0.152436 -0.472935
N3    N     N_3   0.296802 0.528566 0.136090 -0.396917
N4    N     N_3   0.247381 0.306963 0.305628 -0.471860
N5    N     N_3   0.678779 0.529250 0.047143 -0.444023
N6    N     N_3   0.309463 0.871284 0.288041 -0.371393
N7    N     N_3   0.187471 0.977984 0.455296 -0.422423
N8    N     N_3   0.691054 0.682134 0.156258 -0.463114
N9    N     N_3   0.820141 0.546222 0.024075 -0.418047
N10   N     N_3   0.981384 0.464889 0.646520 -0.440451
N11   N     N_3   0.022248 0.367367 0.533937 -0.469595
N12   N     N_3   0.868377 0.736687 0.368334 -0.410664
N13   N     N_3   0.061155 0.246115 0.566760 -0.443058
N14   N     N_3   0.489233 0.201349 0.578180 -0.493984
N15   N     N_3   0.887947 0.832344 0.878343 -0.396869
N16   N     N_3   0.804159 0.332787 0.715378 -0.406163
N17   N     N_3   0.129488 0.156835 0.152859 -0.474143
N18   N     N_3   0.306883 0.470196 0.614060 -0.362594
N19   N     N_3   0.357868 0.490892 0.785120 -0.470801
N20   N     N_3   0.052284 0.011372 0.306165 -0.405285
O1    O     O_R   0.592010 0.539900 0.448660 -0.629908
O2    O     O_R   0.948620 0.908400 0.356980 -0.667921
O3    O     O_R   0.960510 0.908410 0.552140 -0.550689
O4    O     O_R   0.591210 0.643320 0.551330 -0.593801
O5    O     O_R   0.856270 0.908390 0.447890 -0.644786
O6    O     O_R   0.051380 0.091620 0.643040 -0.608639
O7    O     O_R   0.947140 0.091600 0.538800 -0.608051
O8    O     O_R   0.143730 0.091640 0.552130 -0.610301
O9    O     O_R   0.039490 0.091610 0.447890 -0.644553
O10   O     O_R   0.408080 0.448290 0.356360 -0.633763
O11   O     O_R   0.407280 0.551710 0.459030 -0.537336
O12   O     O_R   0.054870 0.643310 0.094700 -0.616406
O13   O     O_R   0.408790 0.356680 0.448670 -0.638881
O14   O     O_R   0.407990 0.460100 0.551340 -0.566534
O15   O     O_R   0.592720 0.448290 0.540970 -0.629244
O16   O     O_R   0.591920 0.551710 0.643640 -0.585939
O17   O     O_R   0.951440 0.539900 0.094740 -0.604389
O18   O     O_2   0.304070 0.705826 0.414946 -0.468602
O19   O     O_2   0.939555 0.959911 0.693679 -0.515803
O20   O     O_2   0.889115 0.607311 0.295338 -0.557474
O21   O     O_2   0.825311 0.626805 0.614931 -0.599413
O22   O     O_2   0.722676 0.747330 0.740983 -0.528711
O23   O     O_R   0.044440 0.448270 0.096110 -0.603449
O24   O     O_2   0.026064 0.805558 0.081868 -0.559591
O25   O     O_2   0.693696 0.167514 0.650156 -0.562419
O26   O     O_2   0.518903 0.434104 0.695951 -0.555104
O27   O     O_2   0.428090 0.340965 0.845969 -0.514000
O28   O     O_2   0.306401 0.178885 0.720839 -0.519251
O29   O     O_2   0.249289 0.711858 0.247639 -0.523783
O30   O     O_2   0.294707 0.076848 0.394281 -0.592043
O31   O     O_2   0.890184 0.861264 0.159954 -0.602588
O32   O     O_2   0.938349 0.129372 0.965163 -0.570852
O33   O     O_2   0.336904 0.380079 0.160521 -0.556417
O34   O     O_R   0.147870 0.551680 0.096080 -0.573175
O35   O     O_2   0.140985 0.056219 0.846462 -0.516587
O36   O     O_2   0.110970 0.353750 0.024057 -0.671368
O37   O     O_2   0.032653 0.344333 0.182467 -0.563611
O38   O     O_2   0.249917 0.482555 0.446570 -0.561508
O39   O     O_2   0.714036 0.417777 0.387675 -0.568523
O40   O     O_2   0.484199 0.719928 0.492953 -0.489720
O41   O     O_2   0.510721 0.858666 0.475529 -0.527768
O42   O     O_R   0.952810 0.356650 0.912880 -0.642458
O43   O     O_R   0.056240 0.460060 0.912840 -0.617799
O44   O     O_R   0.859800 0.448280 0.911500 -0.617872
O45   O     O_R   0.963240 0.551690 0.911470 -0.622408
O46   O     O_R   0.052860 0.908430 0.461230 -0.597937
Zn1   Zn    Zn3+2 0.500540 0.430950 0.431450 1.020398
Zn2   Zn    Zn3+2 0.499460 0.569050 0.568550 1.113151
Zn3   Zn    Zn3+2 0.934770 0.430930 0.003810 1.012692
Zn4   Zn    Zn3+2 0.072900 0.569020 0.003770 1.035910
Zn5   Zn    Zn3+2 0.069600 0.000030 0.569620 1.089261
Zn6   Zn    Zn3+2 0.930400 0.000000 0.430410 0.928505

loop_
_geom_bond_atom_site_label_1
_geom_bond_atom_site_label_2
_ccdc_geom_bond_type
C85   N9    S    
H50   N10   S    
C87   C88   A    
O17   Zn3   S    
C6    C82   S    
C17   O10   A    
C18   C21   A    
C73   C74   A    
C91   C105  S    
C9    H57   S    
C19   C20   A    
H16   N17   S    
O12   Zn4   S    
C104  H45   S    
C55   C56   A    
H46   N9    S    
C4    C70   S    
C95   C98   A    
C12   H60   S    
C45   C46   A    
C11   H59   S    
C15   O40   D    
C77   C89   S    
C26   C27   A    
C74   C76   A    
C13   C18   A    
C57   N17   S    
C83   C84   A    
H2    N12   S    
C10   C103  S    
H5    N14   S    
C60   O17   A    
C76   C78   A    
C3    H24   S    
C14   H61   S    
H18   N18   S    
C8    H49   S    
C38   C39   A    
H66   N12   S    
C8    O33   D    
C109  H10   S    
C57   C59   A    
C55   N20   S    
C29   C54   S    
C11   C25   S    
C49   C54   A    
C4    H36   S    
H54   N13   S    
C61   O34   A    
C62   O42   A    
C56   C57   A    
C36   C47   S    
C18   C19   A    
C4    O29   D    
H47   N9    S    
O8    Zn5   S    
C35   C42   A    
O10   Zn1   S    
H20   N19   S    
C52   C59   A    
H27   N2    S    
O2    Zn6   S    
C66   O3    A    
H6    N14   S    
C39   C110  S    
C31   C32   A    
C16   O41   D    
C61   C77   S    
C67   C94   S    
H53   N11   S    
C23   C24   A    
C31   C33   A    
H11   N16   S    
C70   C71   A    
C67   O6    A    
C12   C36   S    
C53   C65   S    
C8    C101  S    
H29   N3    S    
C5    C72   S    
C67   O7    A    
O42   Zn3   S    
C13   C66   S    
C89   C101  S    
C48   C50   A    
C63   O45   A    
C44   N19   S    
C9    C99   S    
C34   C38   A    
C21   C22   A    
C108  H7    S    
C68   O8    A    
C1    O1    A    
C34   C35   A    
C1    O4    A    
H9    N15   S    
H17   N17   S    
C52   C54   A    
C29   O13   A    
H32   N4    S    
C90   N13   S    
H64   N1    S    
C11   O37   D    
C88   N11   S    
O4    Zn2   S    
C46   C48   A    
C45   C112  S    
C10   O36   D    
O46   Zn5   S    
C2    C20   A    
C51   C52   A    
H31   N4    S    
C65   C77   S    
C84   C85   A    
C104  O18   D    
C83   N8    S    
O14   Zn2   S    
C7    C100  S    
C26   C108  S    
C39   C40   A    
C79   C81   A    
C36   C65   S    
C75   C81   A    
H38   N6    S    
C7    H48   S    
C98   H34   S    
C27   N15   S    
C22   C106  S    
C63   O44   A    
C9    O35   D    
C53   H12   S    
C100  C103  A    
C38   N16   S    
C43   N18   S    
O34   Zn4   S    
C89   N3    S    
C14   C23   S    
C59   N4    S    
C42   C111  S    
C80   N1    S    
C86   C93   A    
H37   N6    S    
C62   C97   S    
C41   O15   A    
C60   C81   S    
C78   C82   A    
C90   C92   A    
C99   C100  A    
C40   N14   S    
C33   C63   S    
O45   Zn4   S    
C110  O25   D    
C96   C97   A    
C68   O9    A    
C92   C94   A    
C50   C51   A    
C64   C76   S    
O16   Zn2   S    
C24   C107  S    
C32   C37   A    
H25   N20   S    
O15   Zn1   S    
C3    O28   D    
C6    H42   S    
C110  H14   S    
C107  O21   D    
O6    Zn5   S    
H26   N20   S    
C16   H63   S    
C48   C49   A    
C106  O20   D    
C88   C90   A    
C98   C99   A    
C105  O19   D    
C64   O2    A    
C43   C44   A    
C111  H15   S    
H40   N7    S    
C15   C58   S    
C25   C77   S    
C111  O26   D    
C6    O31   D    
C66   O5    A    
C91   C102  A    
H52   N11   S    
C93   C97   A    
C70   C75   A    
H55   N13   S    
C44   C45   A    
C62   O43   A    
C29   O14   A    
C56   N2    S    
O7    Zn6   S    
H35   N5    S    
C12   O38   D    
C1    C20   S    
H21   N19   S    
C112  O27   D    
C15   H62   S    
C35   C37   A    
C86   C87   A    
C71   N6    S    
C84   N5    S    
C43   C49   A    
C16   C69   S    
C17   C47   S    
H8    N15   S    
C105  H65   S    
C72   C73   A    
H43   N8    S    
C14   O39   D    
C73   N7    S    
C2    C58   A    
C58   C69   A    
C87   N10   S    
C64   O46   A    
H44   N8    S    
C28   C109  S    
C10   H58   S    
H56   N1    S    
O23   Zn3   S    
H33   N5    S    
C3    C46   S    
C17   O11   A    
O44   Zn3   S    
C5    H39   S    
C5    O30   D    
C47   C53   S    
C106  H3    S    
O43   Zn4   S    
O13   Zn1   S    
C80   C91   A    
C28   C30   A    
C19   C24   A    
C71   C72   A    
H19   N18   S    
C53   C89   S    
C41   O16   A    
C78   C79   A    
C25   C101  S    
C21   N12   S    
C30   C31   A    
O5    Zn6   S    
H41   N7    S    
H13   N16   S    
O3    Zn5   S    
C40   C42   A    
C92   C93   A    
H28   N2    S    
C79   C85   A    
C33   C34   A    
C51   C55   A    
C47   C101  S    
C60   O12   A    
C37   C41   S    
C94   C95   A    
O9    Zn6   S    
C61   O23   A    
C107  H4    S    
O1    Zn1   S    
C25   C36   S    
C108  O22   D    
C86   H23   S    
H30   N3    S    
C74   C75   A    
C82   C83   A    
C96   C103  A    
C95   C96   A    
C2    C102  A    
C22   C23   A    
H51   N10   S    
C69   C80   A    
C65   C104  S    
C13   C102  A    
C112  H22   S    
C50   C68   S    
O11   Zn2   S    
C7    O32   D    
C26   C32   A    
C109  O24   D    
C27   C28   A    
C30   H1    S    
