data_mof_unit_10227.cif
_audit_creation_date              2013-03-05T16:12:21-0500
_audit_creation_method            fapswitch 2.2
_symmetry_space_group_name_H-M    P1
_symmetry_Int_Tables_number       1
_space_group_crystal_system       triclinic
_cell_length_a                    6.939267
_cell_length_b                    21.7692
_cell_length_c                    22.208034
_cell_angle_alpha                 107.569078
_cell_angle_beta                  90.408661
_cell_angle_gamma                 90.497283
_cell_volume                      3198.0198959

loop_
_atom_site_label
_atom_site_type_symbol
_atom_site_description
_atom_site_fract_x
_atom_site_fract_y
_atom_site_fract_z
_atom_type_partial_charge
O1    O     O_R   0.505730 0.449200 0.552060 -0.602278
O2    O     O_R   0.171560 0.427840 0.423150 -0.604862
O3    O     O_R   0.005630 0.550800 0.447940 -0.584938
C1    C     C_R   0.338405 0.409364 0.398792 0.921628
O4    O     O_R   0.175730 0.441570 0.550050 -0.602774
O5    O     O_R   0.009820 0.564620 0.575740 -0.562103
C2    C     C_R   0.344780 0.428162 0.568506 0.917099
O6    O     O_R   0.501530 0.435380 0.424260 -0.598180
O7    O     O_3   0.340640 0.540360 0.508280 -0.227853
V1    V     V_3+5 0.064080 0.492510 0.498460 1.180646
O8    O     O_R   0.680360 0.572160 0.576850 -0.574636
C3    C     C_R   0.849346 0.590592 0.600939 1.014885
O9    O     O_R   0.676190 0.558430 0.449950 -0.597072
C4    C     C_R   0.845135 0.571922 0.431579 0.955142
V2    V     V_3+5 0.564610 0.507490 0.501540 1.193775
O10   O     O_3   0.837920 0.459640 0.491720 -0.293420
C5    C     C_R   0.079763 0.808884 0.157305 -0.184568
H1    H     H_    0.200441 0.778947 0.160878 0.123174
C6    C     C_R   0.093902 0.848352 0.117898 -0.182618
H2    H     H_    0.226136 0.848292 0.092273 0.135524
C7    C     C_R   0.938194 0.886612 0.110951 -0.143174
C8    C     C_R   0.768517 0.884639 0.144788 -0.223634
H3    H     H_    0.647118 0.913933 0.140180 0.134992
C9    C     C_R   0.753889 0.845975 0.185369 0.166375
C10   C     C_R   0.911783 0.807627 0.191649 0.132362
C11   C     C_1   0.903237 0.766545 0.232560 -0.070440
C12   C     C_1   0.893633 0.732925 0.267203 -0.075815
C13   C     C_R   0.048393 0.669052 0.328913 -0.153090
H4    H     H_    0.188441 0.680280 0.313428 0.105213
C14   C     C_R   0.036617 0.630164 0.368919 -0.123882
H5    H     H_    0.168920 0.612264 0.383212 0.133130
C15   C     C_R   0.856695 0.614384 0.389870 -0.131287
C16   C     C_R   0.689063 0.639043 0.369810 -0.151092
H6    H     H_    0.548217 0.628098 0.384842 0.133579
C17   C     C_R   0.701300 0.678001 0.329764 -0.142010
H7    H     H_    0.570392 0.696301 0.314918 0.107294
C18   C     C_R   0.880953 0.693025 0.308939 0.177712
C19   C     C_R   0.852952 0.645750 0.660217 -0.306878
C20   C     C_R   0.945107 0.857068 0.838022 -0.128300
C21   C     C_R   0.112831 0.801054 0.741008 -0.130104
C22   C     C_R   0.097167 0.853346 0.795623 -0.172754
C23   C     C_R   0.806371 0.807347 0.824286 -0.244915
C24   C     C_R   0.823446 0.753542 0.769875 0.175439
C25   C     C_R   0.978724 0.749772 0.727633 0.029945
C26   C     C_R   0.993373 0.695717 0.672500 0.267405
C27   C     C_R   0.702513 0.650304 0.703437 -0.109574
C28   C     C_R   0.687674 0.703323 0.757334 -0.178180
H8    H     H_    0.593637 0.612601 0.695071 0.150121
H9    H     H_    0.231720 0.801137 0.709805 0.174251
H10   H     H_    0.568482 0.705209 0.789090 0.128759
H11   H     H_    0.205825 0.891198 0.804989 0.133092
H12   H     H_    0.689459 0.809424 0.856948 0.128322
C29   C     C_R   0.336623 0.353595 0.339619 -0.129520
C30   C     C_R   0.459043 0.146465 0.160347 -0.135103
C31   C     C_R   0.640929 0.215924 0.250635 -0.235529
C32   C     C_R   0.629033 0.161573 0.197348 -0.154741
C33   C     C_R   0.299412 0.187187 0.178599 -0.285897
C34   C     C_R   0.311625 0.242687 0.231871 0.218941
C35   C     C_R   0.484022 0.257349 0.268118 0.218853
C36   C     C_R   0.496246 0.312863 0.321379 -0.287527
C37   C     C_R   0.166602 0.338460 0.302636 -0.154997
C38   C     C_R   0.154700 0.284102 0.249359 -0.236210
H13   H     H_    0.627844 0.323367 0.349377 0.140491
H14   H     H_    0.041111 0.368774 0.315034 0.135030
H15   H     H_    0.773640 0.225717 0.278014 0.131441
H16   H     H_    0.021975 0.274296 0.221989 0.131525
H17   H     H_    0.754499 0.131246 0.184955 0.136255
H18   H     H_    0.167817 0.176689 0.150599 0.140936
C39   C     C_R   0.596127 0.177874 0.829596 -0.144572
H19   H     H_    0.727407 0.196136 0.814764 0.106058
C40   C     C_R   0.608001 0.138797 0.869542 -0.161229
H20   H     H_    0.748917 0.127796 0.884541 0.127430
C41   C     C_R   0.439910 0.114138 0.889589 -0.133621
C42   C     C_R   0.259966 0.129882 0.868574 -0.161371
H21   H     H_    0.127318 0.111890 0.882755 0.131071
C43   C     C_R   0.248550 0.168908 0.828700 -0.146978
H22   H     H_    0.108406 0.180109 0.813199 0.106557
C44   C     C_R   0.416360 0.193078 0.808892 0.178861
C45   C     C_1   0.403583 0.233189 0.767301 -0.072448
C46   C     C_1   0.392238 0.266658 0.732524 -0.073559
C47   C     C_R   0.547247 0.330922 0.671103 -0.148904
H23   H     H_    0.687401 0.319693 0.686570 0.106246
C48   C     C_R   0.535806 0.369967 0.631247 -0.165407
H24   H     H_    0.668448 0.387943 0.617045 0.128953
C49   C     C_R   0.355845 0.385752 0.610279 -0.129455
C50   C     C_R   0.187764 0.361110 0.630349 -0.165233
H25   H     H_    0.046836 0.372143 0.615387 0.126344
C51   C     C_R   0.199662 0.322015 0.670277 -0.145841
H26   H     H_    0.068388 0.303770 0.685131 0.106329
C52   C     C_R   0.379444 0.306775 0.690939 0.179446
O11   O     O_R   0.294110 0.064720 0.075690 -0.590345
O12   O     O_R   0.619980 0.058360 0.949870 -0.595288
O13   O     O_R   0.785810 0.935300 0.924300 -0.588701
C53   C     C_R   0.450945 0.071764 0.931399 0.925354
O14   O     O_R   0.624080 0.072230 0.076800 -0.598795
O15   O     O_R   0.789930 0.949270 0.052130 -0.594231
C54   C     C_R   0.457248 0.090711 0.101165 0.934490
O16   O     O_R   0.289980 0.050750 0.947860 -0.595023
O17   O     O_3   0.454970 0.959660 0.991750 -0.269867
V3    V     V_3+5 0.731560 0.007480 0.001530 1.142825
O18   O     O_R   0.119360 0.941610 0.050140 -0.595908
C55   C     C_R   0.950409 0.928435 0.068733 0.933338
O19   O     O_R   0.115260 0.927740 0.923220 -0.595460
C56   C     C_R   0.946652 0.910117 0.898604 0.934850
V4    V     V_3+5 0.231020 0.992470 0.998490 1.144263
O20   O     O_3   0.957740 0.040330 0.008250 -0.274501
C57   C     C_3   0.567005 0.845057 0.219757 -0.472618
C58   C     C_3   0.583188 0.884346 0.289662 -0.233145
C59   C     C_3   0.394485 0.881541 0.323717 -0.889633
H27   H     H_    0.274889 0.901289 0.301890 0.261302
H28   H     H_    0.358972 0.830982 0.321347 0.259632
H29   H     H_    0.409050 0.910634 0.374098 0.251957
H30   H     H_    0.700277 0.865474 0.313255 0.206704
H31   H     H_    0.617779 0.935417 0.293727 0.196858
H32   H     H_    0.449889 0.865759 0.197834 0.195328
H33   H     H_    0.524811 0.794396 0.214932 0.191741
N1    N     N_R   0.143245 0.693268 0.627692 0.231470
O21   O     O_R   0.100230 0.693264 0.570571 -0.402885
O22   O     O_R   0.322316 0.688355 0.643108 -0.415772

loop_
_geom_bond_atom_site_label_1
_geom_bond_atom_site_label_2
_geom_bond_distance
_ccdc_geom_bond_type
C34   C38   1.400399 A    
C31   C32   1.399566 A    
O18   C55   1.303781 A    
C31   C35   1.400436 A    
C1    C29   1.495762 S    
C41   C42   1.410729 A    
O11   V4    1.988523 S    
C17   H7    1.083468 S    
C1    O6    1.307036 A    
C47   H23   1.083373 S    
C20   C56   1.485064 S    
C20   C22   1.405777 A    
C49   C50   1.409860 A    
C11   C12   1.213180 T    
O16   V4    1.974851 S    
C42   C43   1.402341 A    
C36   H13   1.084097 S    
C13   H4    1.083443 S    
C6    C7    1.405618 A    
C43   C44   1.400985 A    
O15   C55   1.298336 A    
C59   H28   1.111313 S    
O5    C3    1.304482 A    
C14   H5    1.082684 S    
C16   C17   1.404486 A    
C50   C51   1.404705 A    
C53   O16   1.299412 A    
V2    O10   2.152356 S    
C58   C59   1.526767 S    
C58   H31   1.111883 S    
C39   C40   1.404708 A    
C19   C26   1.416245 A    
C31   H15   1.083316 S    
O8    V2    1.990995 S    
C48   H24   1.082686 S    
C57   C58   1.532476 S    
C30   C54   1.495702 S    
O1    V2    1.973047 S    
O9    C4    1.303962 A    
C20   C23   1.403505 A    
O7    V1    2.153561 S    
C35   C36   1.414405 A    
O1    C2    1.299415 A    
C7    C8    1.408588 A    
C46   C52   1.452769 S    
C39   C44   1.402834 A    
C39   H19   1.083278 S    
C29   C37   1.411085 A    
C41   C53   1.495398 S    
O13   C56   1.304905 A    
C47   C48   1.402345 A    
C29   C36   1.408501 A    
C16   H6    1.082631 S    
C28   H10   1.083789 S    
C30   C32   1.411082 A    
O18   V4    1.976471 S    
O17   V4    1.704601 S    
C27   H8    1.083598 S    
C42   H21   1.082687 S    
C38   H16   1.083318 S    
C9    C10   1.414500 A    
C59   H29   1.110256 S    
O4    C2    1.304079 A    
C50   H25   1.082628 S    
C10   C11   1.455752 S    
O11   C54   1.307005 A    
C58   H30   1.110483 S    
C37   H14   1.083194 S    
O2    C1    1.296344 A    
C24   C25   1.420316 A    
O17   V3    2.153501 S    
O12   C53   1.304088 A    
C5    H1    1.082597 S    
O19   V4    1.991054 S    
C9    C57   1.512712 S    
C43   H22   1.083374 S    
O13   V3    1.986164 S    
C57   H32   1.110760 S    
O3    C4    1.299147 A    
C7    C55   1.493415 S    
C21   C22   1.396167 A    
C48   C49   1.410727 A    
C51   C52   1.402831 A    
O6    V2    1.988005 S    
O9    V2    1.976525 S    
C8    C9    1.410211 A    
C23   C24   1.412838 A    
C47   C52   1.400989 A    
C33   H18   1.084098 S    
O2    V1    1.987456 S    
C25   C26   1.424140 A    
O12   V3    1.977858 S    
C40   C41   1.409863 A    
C26   N1    1.434703 S    
C27   C28   1.394713 A    
C17   C18   1.402666 A    
O14   V3    1.987693 S    
C4    C15   1.495182 S    
O5    V1    1.986065 S    
O8    C3    1.294438 A    
O14   C54   1.296338 A    
C32   H17   1.083203 S    
V4    O20   2.152325 S    
V3    O20   1.705818 S    
C5    C10   1.402114 A    
C15   C16   1.409813 A    
C6    H2    1.082991 S    
N1    O22   1.300421 A    
C34   C35   1.416174 A    
O4    V1    1.977855 S    
O3    V1    1.973673 S    
V1    O10   1.705840 S    
N1    O21   1.301105 A    
C14   C15   1.410894 A    
C44   C45   1.452769 S    
C33   C34   1.414358 A    
C2    C49   1.495385 S    
C13   C18   1.400749 A    
C12   C18   1.451612 S    
O15   V3    1.973488 S    
C13   C14   1.402355 A    
C5    C6    1.402670 A    
C3    C19   1.490022 S    
C37   C38   1.399533 A    
C57   H33   1.111786 S    
C19   C27   1.406967 A    
C45   C46   1.213826 T    
C21   C25   1.406547 A    
C40   H20   1.082630 S    
C51   H26   1.083276 S    
O19   C56   1.292846 A    
C8    H3    1.083646 S    
C59   H27   1.111208 S    
C24   C28   1.398181 A    
C22   H11   1.083638 S    
C21   H9    1.081526 S    
O7    V2    1.705251 S    
C23   H12   1.084259 S    
C30   C33   1.408453 A    
