data_mof_unit_30071.cif
_audit_creation_date              2012-12-10T20:42:42-0500
_audit_creation_method            fapswitch 2.2
_symmetry_space_group_name_H-M    P1
_symmetry_Int_Tables_number       1
_space_group_crystal_system       triclinic
_cell_length_a                    8.912286
_cell_length_b                    10.678872
_cell_length_c                    9.876713
_cell_angle_alpha                 89.965968
_cell_angle_beta                  90.015174
_cell_angle_gamma                 90.059785
_cell_volume                      939.997290311

loop_
_atom_site_label
_atom_site_type_symbol
_atom_type_description
_atom_site_fract_x
_atom_site_fract_y
_atom_site_fract_z
_atom_type_partial_charge
C1    C     C_R   0.504432 0.259966 0.500071 0.871653
C2    C     C_R   0.429162 0.406784 0.928786 0.214144
C3    C     C_3   0.266111 0.375724 0.923432 -0.510478
C4    C     C_R   0.218734 0.499893 0.499975 0.938325
C5    C     C_3   0.266513 0.375189 0.077156 -0.502906
C6    C     C_R   0.504729 0.740010 0.499976 0.871862
C7    C     C_R   0.781284 0.500022 0.500030 0.930238
C8    C     C_1   0.065411 0.499869 0.499987 -0.213840
C9    C     C_1   0.934622 0.499922 0.500031 -0.201326
C10   C     C_R   0.526222 0.063760 0.623044 0.141450
C11   C     C_R   0.528119 0.128567 0.500744 -0.101624
C12   C     C_R   0.559075 0.935356 0.379668 -0.227748
C13   C     C_R   0.558784 0.064878 0.379695 -0.227814
C14   C     C_R   0.528646 0.871403 0.500683 -0.100209
C15   C     C_R   0.526610 0.936021 0.623033 0.125832
C16   C     C_3   0.418143 0.928467 0.738229 -0.473977
C17   C     C_3   0.417442 0.070407 0.738025 -0.492527
C18   C     C_R   0.429323 0.406689 0.071241 0.213008
C19   C     C_R   0.580700 0.585725 0.071895 -0.127820
C20   C     C_R   0.580690 0.585751 0.927992 -0.130850
H1    H     H_    0.572122 0.113977 0.284422 0.171402
H2    H     H_    0.197528 0.452573 0.879439 0.225798
H3    H     H_    0.308614 0.886644 0.708556 0.205276
H4    H     H_    0.643506 0.656516 0.873761 0.145992
H5    H     H_    0.245148 0.281793 0.879046 0.197404
H6    H     H_    0.197841 0.451528 0.121927 0.225618
H7    H     H_    0.246659 0.280819 0.121236 0.201120
H8    H     H_    0.572588 0.886421 0.284394 0.166837
H9    H     H_    0.470052 0.887700 0.830631 0.201735
H10   H     H_    0.307585 0.111092 0.707804 0.198878
H11   H     H_    0.468607 0.111748 0.830455 0.203982
H12   H     H_    0.643553 0.656458 0.126073 0.142726
N1    N     N_R   0.499010 0.499140 0.142800 -0.105501
N2    N     N_R   0.499010 0.499180 0.857150 -0.104719
O1    O     O_R   0.500020 0.316790 0.614690 -0.616445
O2    O     O_R   0.500000 0.316760 0.385350 -0.624464
O3    O     O_R   0.285350 0.500020 0.614650 -0.617900
O4    O     O_R   0.285340 0.499980 0.385310 -0.614562
O5    O     O_R   0.500000 0.683240 0.614650 -0.621835
O6    O     O_R   0.499980 0.683210 0.385310 -0.626618
O7    O     O_R   0.714660 0.500020 0.614690 -0.616254
O8    O     O_R   0.714650 0.499980 0.385350 -0.616631
Zn1   Zn    Zn3+2 0.500010 0.500020 0.653130 0.941511
Zn2   Zn    Zn3+2 0.499990 0.499980 0.346870 0.941253

loop_
_geom_bond_atom_site_label_1
_geom_bond_atom_site_label_2
_ccdc_geom_bond_type
O3    Zn1   S    
O4    Zn2   S    
C2    C18   A    
O1    Zn1   S    
C19   C20   A    
C1    C11   S    
O6    Zn2   S    
C4    C8    S    
C20   N2    A    
C2    N2    A    
C2    C3    S    
C13   H1    S    
C4    O3    A    
C17   H10   S    
O7    Zn1   S    
O8    Zn2   S    
C12   H8    S    
C19   H12   S    
C12   C14   A    
C16   H3    S    
C10   C15   A    
C7    O7    A    
C14   C15   A    
C17   H11   S    
C18   N1    A    
C6    O6    A    
O2    Zn2   S    
C11   C13   A    
C6    C14   S    
C10   C11   A    
C10   C17   S    
C15   C16   S    
C20   H4    S    
C3    H5    S    
C12   C13   A    
C1    O1    A    
C19   N1    A    
C7    O8    A    
C7    C9    S    
C6    O5    A    
C16   C17   S    
C3    H2    S    
O5    Zn1   S    
C5    C18   S    
C16   H9    S    
C5    H7    S    
N1    Zn2   S    
N2    Zn1   S    
C5    H6    S    
C1    O2    A    
C4    O4    A    
C8    C9    T    
C3    C5    S    
