data_mof_unit_43192.cif
_audit_creation_date              2012-12-11T14:13:23-0500
_audit_creation_method            fapswitch 2.2
_symmetry_space_group_name_H-M    P1
_symmetry_Int_Tables_number       1
_space_group_crystal_system       triclinic
_cell_length_a                    11.5352
_cell_length_b                    18.684691
_cell_length_c                    9.966984
_cell_angle_alpha                 89.232935
_cell_angle_beta                  110.014533
_cell_angle_gamma                 90.172459
_cell_volume                      2018.27800415

loop_
_atom_site_label
_atom_site_type_symbol
_atom_type_description
_atom_site_fract_x
_atom_site_fract_y
_atom_site_fract_z
_atom_type_partial_charge
C1    C     C_R   0.072421 0.646647 0.140707 0.546111
C2    C     C_2   0.600643 0.074018 0.083690 -0.082144
C3    C     C_2   0.600646 0.425038 0.078591 -0.116826
C4    C     C_2   0.399358 0.574963 0.921404 -0.116835
C5    C     C_2   0.504038 0.961527 0.979985 -0.032660
C6    C     C_2   0.495963 0.038472 0.020016 -0.032663
C7    C     C_2   0.497078 0.460488 0.009310 0.003057
C8    C     C_2   0.502925 0.539513 0.990690 0.003055
C9    C     C_2   0.004532 0.920241 0.110625 -0.110077
C10   C     C_2   0.995467 0.079759 0.889374 -0.110070
C11   C     C_2   0.985830 0.423227 0.882606 -0.113979
C12   C     C_R   0.927579 0.353352 0.859293 0.546112
C13   C     C_2   0.014172 0.576772 0.117394 -0.113983
C14   C     C_2   0.998831 0.960529 0.995126 -0.005075
C15   C     C_2   0.001166 0.039470 0.004873 -0.005075
C16   C     C_2   0.998113 0.460598 0.002052 -0.047067
C17   C     C_2   0.001890 0.539401 0.997948 -0.047063
C18   C     C_R   0.471040 0.647124 0.444773 0.548175
C19   C     C_R   0.528960 0.352876 0.555227 0.548175
C20   C     C_R   0.563033 0.137335 0.626319 0.539848
C21   C     C_R   0.436967 0.862664 0.373681 0.539848
C22   C     C_R   0.377138 0.646377 0.961477 0.554393
C23   C     C_R   0.931398 0.148218 0.861695 0.518193
C24   C     C_R   0.622862 0.353623 0.038522 0.554398
C25   C     C_R   0.622938 0.145803 0.039350 0.583574
C26   C     C_R   0.377062 0.854196 0.960650 0.583566
C27   C     C_R   0.500245 0.424877 0.487995 -0.020390
C28   C     C_R   0.499754 0.575123 0.512005 -0.020395
C29   C     C_R   0.459236 0.939259 0.414350 -0.014223
C30   C     C_R   0.540764 0.060741 0.585650 -0.014218
C31   C     C_R   0.284720 0.423159 0.484416 -0.027057
C32   C     C_R   0.715280 0.576841 0.515586 -0.027052
C33   C     C_R   0.648221 0.949223 0.346413 -0.079004
C34   C     C_R   0.068601 0.851782 0.138305 0.518193
C35   C     C_R   0.351778 0.050777 0.653586 -0.079004
C36   C     C_R   0.189773 0.456018 0.517655 -0.061158
C37   C     C_R   0.810227 0.543982 0.482347 -0.061155
C38   C     C_R   0.771001 0.970668 0.384044 -0.115629
C39   C     C_R   0.228998 0.029332 0.615954 -0.115630
C40   C     C_R   0.201798 0.526583 0.561862 -0.107790
C41   C     C_R   0.798202 0.473417 0.438139 -0.107787
C42   C     C_R   0.821084 0.014390 0.501063 -0.086469
C43   C     C_R   0.178915 0.985611 0.498935 -0.086469
C44   C     C_R   0.306582 0.565331 0.567457 -0.066358
C45   C     C_R   0.394956 0.460454 0.497479 0.020175
C46   C     C_R   0.693418 0.434669 0.432543 -0.066351
C47   C     C_R   0.745235 0.040349 0.572020 -0.057259
C48   C     C_R   0.254765 0.959651 0.427979 -0.057262
C49   C     C_R   0.401018 0.534254 0.526510 0.009096
C50   C     C_R   0.598981 0.465746 0.473490 0.009099
C51   C     C_R   0.619313 0.025627 0.526158 0.013494
C52   C     C_R   0.380687 0.974373 0.473842 0.013491
C53   C     C_2   0.378065 0.070702 0.024009 0.542462
C54   C     C_2   0.621936 0.929299 0.975992 0.542459
C55   C     C_2   0.621434 0.579946 0.041708 0.585822
C56   C     C_R   0.605044 0.539546 0.502522 0.020176
C57   C     C_2   0.378568 0.420056 0.958308 0.585824
C58   C     C_1   0.011133 0.072531 0.140164 0.253574
C59   C     C_1   0.988864 0.927469 0.859835 0.253579
C60   C     C_1   0.994676 0.575427 0.864707 0.241343
C61   C     C_1   0.005330 0.424572 0.135292 0.241339
C62   C     C_R   0.573931 0.971384 0.426162 0.031051
C63   C     C_R   0.426069 0.028616 0.573838 0.031054
C64   C     C_2   0.399359 0.925981 0.916307 -0.082147
Cr1   Cr    Cr6+3 0.187610 0.750000 0.979860 1.076762
Cr2   Cr    Cr6+3 0.812390 0.250000 0.020140 1.076762
Cr3   Cr    Cr6+3 0.245810 0.750000 0.341640 1.038194
Cr4   Cr    Cr6+3 0.754190 0.250000 0.658360 1.038195
Cr5   Cr    Cr6+3 0.485760 0.750000 0.219910 1.091791
Cr6   Cr    Cr6+3 0.514240 0.250000 0.780090 1.091786
H1    H     H_    0.108385 0.425992 0.513754 0.139685
H2    H     H_    0.727862 0.631907 0.550123 0.150090
H3    H     H_    0.612701 0.915033 0.255270 0.164746
H4    H     H_    0.387299 0.084967 0.744730 0.164739
H5    H     H_    0.314580 0.619100 0.608473 0.146686
H6    H     H_    0.685419 0.380900 0.391526 0.146688
H7    H     H_    0.783880 0.066554 0.670505 0.146092
H8    H     H_    0.216119 0.933447 0.329494 0.146092
H9    H     H_    0.684984 0.044173 0.134699 0.133409
H10   H     H_    0.315018 0.955826 0.865294 0.133417
H11   H     H_    0.316174 0.546630 0.861585 0.138923
H12   H     H_    0.891615 0.574007 0.486248 0.139684
H13   H     H_    0.683832 0.453371 0.138402 0.138915
H14   H     H_    0.008604 0.055674 0.797224 0.088089
H15   H     H_    0.991395 0.944325 0.202776 0.088087
H16   H     H_    0.006301 0.550707 0.211925 0.117142
H17   H     H_    0.993700 0.449292 0.788075 0.117145
H18   H     H_    0.275191 0.159132 0.014470 0.337439
H19   H     H_    0.724820 0.840870 0.985554 0.337437
H20   H     H_    0.738044 0.646820 0.990758 0.336558
H21   H     H_    0.261968 0.353183 0.009281 0.336560
H22   H     H_    0.827749 0.951651 0.325024 0.122969
H23   H     H_    0.172250 0.048350 0.674974 0.122971
H24   H     H_    0.130188 0.551272 0.592758 0.130857
H25   H     H_    0.869811 0.448728 0.407243 0.130854
H26   H     H_    0.918113 0.027739 0.537409 0.121107
H27   H     H_    0.081886 0.972262 0.462589 0.121108
H28   H     H_    0.272139 0.368092 0.449880 0.150092
N1    N     N_1   0.019055 0.098743 0.247523 -0.289623
N2    N     N_1   0.980941 0.901256 0.752476 -0.289621
N3    N     N_1   0.990292 0.604781 0.760197 -0.328632
N4    N     N_1   0.009715 0.395218 0.239802 -0.328632
O1    O     O_R   0.267710 0.668200 0.902110 -0.514541
O2    O     O_R   0.883280 0.330790 0.732340 -0.512772
O3    O     O_R   0.883280 0.169210 0.732340 -0.539540
O4    O     O_R   0.116720 0.830790 0.267660 -0.539540
O5    O     O_R   0.366710 0.675440 0.427590 -0.503405
O6    O     O_R   0.633290 0.324560 0.572410 -0.503404
O7    O     O_R   0.633290 0.175440 0.572410 -0.485959
O8    O     O_R   0.366710 0.824560 0.427590 -0.485960
O9    O     O_R   0.534870 0.669390 0.371760 -0.491409
O10   O     O_R   0.465130 0.330610 0.628240 -0.491416
O11   O     O_R   0.465130 0.169390 0.628240 -0.510563
O12   O     O_R   0.732290 0.331800 0.097890 -0.514542
O13   O     O_R   0.534870 0.830610 0.371760 -0.510561
O14   O     O_R   0.453080 0.674480 0.075160 -0.454518
O15   O     O_R   0.546920 0.325520 0.924840 -0.454521
O16   O     O_R   0.546920 0.174480 0.924840 -0.480427
O17   O     O_R   0.453080 0.825520 0.075160 -0.480424
O18   O     O_3   0.306390 0.750000 0.180470 -0.290952
O19   O     O_3   0.693610 0.250000 0.819530 -0.290952
O20   O     O_2   0.301926 0.032817 0.050835 -0.562852
O21   O     O_R   0.357317 0.144486 0.006975 -0.672312
O22   O     O_2   0.698066 0.967182 0.949145 -0.562847
O23   O     O_R   0.732290 0.168200 0.097890 -0.504366
O24   O     O_R   0.642695 0.855515 0.993052 -0.672317
O25   O     O_2   0.684130 0.579924 0.168360 -0.531814
O26   O     O_R   0.657057 0.620971 0.944110 -0.694754
O27   O     O_2   0.315859 0.420077 0.831661 -0.531821
O28   O     O_R   0.342959 0.379030 0.055917 -0.694756
O29   O     O_R   0.267710 0.831800 0.902110 -0.504366
O30   O     O_R   0.099480 0.674460 0.038850 -0.478501
O31   O     O_R   0.900520 0.325540 0.961150 -0.478502
O32   O     O_R   0.900520 0.174460 0.961150 -0.480796
O33   O     O_R   0.099480 0.825540 0.038850 -0.480795
O34   O     O_R   0.116720 0.669210 0.267660 -0.512772

loop_
_geom_bond_atom_site_label_1
_geom_bond_atom_site_label_2
_ccdc_geom_bond_type
C44   C49   A    
C30   C51   A    
C35   H4    S    
C24   O12   A    
C4    C8    D    
C1    O30   A    
C25   O16   A    
C46   H6    S    
C21   O8    A    
C28   C56   A    
C7    C8    S    
Cr5   O14   S    
H21   O28   S    
C20   C30   S    
C19   O10   A    
C14   C59   S    
C54   O24   S    
C24   O15   A    
C42   H26   S    
C57   O27   D    
C38   C42   A    
C48   C52   A    
C3    C7    D    
C10   C15   D    
C20   O11   A    
Cr6   O15   S    
C23   O3    A    
C38   H22   S    
C11   C16   D    
C31   H28   S    
C48   H8    S    
C41   H25   S    
C26   C64   S    
C18   O5    A    
C39   H23   S    
C25   O23   A    
C2    H9    S    
C9    H15   S    
Cr2   O32   S    
C4    H11   S    
C11   H17   S    
C33   C62   A    
C13   H16   S    
C41   C46   A    
C1    O34   A    
C19   C27   S    
Cr3   O18   S    
C27   C50   A    
C21   O13   A    
Cr4   O7    S    
C19   O6    A    
C27   C45   A    
C22   O14   A    
C30   C63   A    
C59   N2    T    
C64   H10   S    
C3    C24   S    
C2    C6    D    
C51   C62   A    
H18   O21   S    
C8    C55   S    
Cr1   O29   S    
C47   H7    S    
H19   O24   S    
Cr6   O11   S    
C34   O4    A    
Cr4   O2    S    
C57   O28   S    
C36   C40   A    
C18   C28   S    
C26   O17   A    
C32   H2    S    
C53   O21   S    
C16   C17   S    
C39   C43   A    
C21   C29   S    
Cr5   O17   S    
C50   C56   A    
C22   O1    A    
C5    C64   D    
C44   H5    S    
C35   C39   A    
C9    C14   D    
Cr2   O31   S    
C4    C22   S    
C28   C49   A    
C5    C54   S    
Cr3   O8    S    
C45   C49   A    
Cr2   O19   S    
C32   C37   A    
C18   O9    A    
Cr1   O33   S    
Cr6   O10   S    
C33   H3    S    
C55   O25   D    
Cr4   O3    S    
C12   O31   A    
C3    H13   S    
C9    C34   S    
C15   C58   S    
C37   H12   S    
C1    C13   S    
C16   C61   S    
Cr1   O1    S    
C6    C53   S    
C60   N3    T    
Cr1   O30   S    
C43   C48   A    
C54   O22   D    
C29   C62   A    
Cr5   O13   S    
Cr2   O12   S    
C23   O32   A    
C14   C15   S    
C58   N1    T    
C43   H27   S    
C40   H24   S    
C52   C63   A    
Cr4   O19   S    
C47   C51   A    
C11   C12   S    
C36   H1    S    
Cr3   O4    S    
C12   O2    A    
C10   C23   S    
C46   C50   A    
Cr5   O18   S    
C33   C38   A    
Cr2   O23   S    
C13   C17   D    
C53   O20   D    
Cr3   O34   S    
Cr5   O9    S    
Cr6   O19   S    
Cr3   O5    S    
C5    C6    S    
C34   O33   A    
Cr6   O16   S    
C10   H14   S    
Cr1   O18   S    
C32   C56   A    
C61   N4    T    
C2    C25   S    
C42   C47   A    
C37   C41   A    
C17   C60   S    
C20   O7    A    
C40   C44   A    
C55   O26   S    
C31   C45   A    
H20   O26   S    
C31   C36   A    
C35   C63   A    
Cr4   O6    S    
C7    C57   S    
C26   O29   A    
C29   C52   A    
