data_mof_unit_15172.cif
_audit_creation_date              2013-03-05T15:41:54-0500
_audit_creation_method            fapswitch 2.2
_symmetry_space_group_name_H-M    P1
_symmetry_Int_Tables_number       1
_space_group_crystal_system       triclinic
_cell_length_a                    23.442599
_cell_length_b                    8.750652
_cell_length_c                    7.505646
_cell_angle_alpha                 104.278753
_cell_angle_beta                  93.923227
_cell_angle_gamma                 92.836319
_cell_volume                      1485.12109855

loop_
_atom_site_label
_atom_site_type_symbol
_atom_site_description
_atom_site_fract_x
_atom_site_fract_y
_atom_site_fract_z
_atom_type_partial_charge
O1    O     O_R   0.504120 0.286130 0.619770 -0.567012
O2    O     O_R   0.495880 0.713870 0.380230 -0.563117
O3    O     O_R   0.493410 0.256770 0.308360 -0.522028
O4    O     O_R   0.506590 0.743230 0.691640 -0.532514
C1    C     C_R   0.498269 0.199810 0.452392 0.806528
C2    C     C_R   0.502992 0.800215 0.546738 0.848299
O5    O     O_R   0.423230 0.514630 0.655730 -0.558457
O6    O     O_R   0.576770 0.485370 0.344270 -0.538410
O7    O     O_R   0.412530 0.485280 0.344320 -0.537520
O8    O     O_R   0.587470 0.514720 0.655680 -0.566855
C3    C     C_R   0.391382 0.501830 0.503378 0.914099
C4    C     C_R   0.608665 0.500168 0.497051 0.913004
Cu1   Cu    Cu3+1 0.506340 0.517380 0.684380 1.187234
Cu2   Cu    Cu3+1 0.493660 0.482620 0.315620 1.215280
C5    C     C_R   0.883382 0.609944 0.619791 0.653666
C6    C     C_R   0.116712 0.482237 0.323390 0.630123
N1    N     N_R   0.850952 0.547465 0.456854 -0.431878
N2    N     N_R   0.148465 0.539373 0.488976 -0.426645
C7    C     C_R   0.875890 0.494699 0.294892 0.665457
C8    C     C_R   0.122793 0.606833 0.645674 0.678129
C9    C     C_R   0.936008 0.487756 0.295668 -0.056396
C10   C     C_R   0.063373 0.624581 0.638244 -0.058475
C11   C     C_R   0.969629 0.554059 0.463609 -0.056478
C12   C     C_R   0.029924 0.552828 0.471956 -0.055328
C13   C     C_R   0.943093 0.622421 0.623991 -0.063564
C14   C     C_R   0.056778 0.482471 0.313191 -0.071972
C15   C     C_R   0.963724 0.418440 0.135843 0.231692
C16   C     C_R   0.036362 0.712415 0.790062 0.227632
C17   C     C_R   0.023552 0.417037 0.146619 -0.238480
C18   C     C_R   0.976517 0.705149 0.783814 -0.239235
O9    O     O_2   0.857817 0.658691 0.777950 -0.475911
O10   O     O_2   0.143117 0.425985 0.168545 -0.478067
O11   O     O_2   0.842402 0.449677 0.135018 -0.434131
O12   O     O_2   0.154583 0.652561 0.808767 -0.442787
H1    H     H_    0.043887 0.362984 0.023264 0.198101
H2    H     H_    0.956317 0.770157 0.902404 0.195321
C19   C     C_R   0.246767 0.666419 0.571784 0.250071
C20   C     C_R   0.759375 0.384932 0.409606 0.265153
C21   C     C_R   0.306174 0.652871 0.594036 0.173308
C22   C     C_R   0.699477 0.373068 0.416030 0.196851
C23   C     C_R   0.329274 0.509586 0.511275 -0.193458
C24   C     C_R   0.670983 0.509909 0.489471 -0.207311
C25   C     C_R   0.293060 0.373309 0.433866 0.043426
C26   C     C_R   0.701456 0.658948 0.547266 0.047945
C27   C     C_R   0.233246 0.380414 0.438187 0.322971
C28   C     C_R   0.759993 0.673036 0.517350 0.320762
C29   C     C_R   0.209906 0.528847 0.498438 0.060318
C30   C     C_R   0.789442 0.535151 0.457901 0.045726
C31   C     C_2   0.491131 0.031706 0.428642 0.060613
C32   C     C_2   0.511525 0.967762 0.566588 0.097757
N3    N     N_2   0.484110 0.456420 0.038520 0.046114
N4    N     N_2   0.515890 0.543580 0.961480 0.040972
N5    N     N_2   0.932220 0.346693 0.964120 -0.381467
H3    H     H_    0.951275 0.368425 0.852066 0.255067
C33   C     C_3   0.916486 0.180245 0.938617 -0.437348
H4    H     H_    0.955477 0.112433 0.933578 0.167403
H5    H     H_    0.889561 0.135334 0.806616 0.281616
H6    H     H_    0.891464 0.161104 0.052679 0.270243
N6    N     N_2   0.068365 0.826795 0.935180 -0.363620
H7    H     H_    0.054648 0.939024 0.948702 0.262996
C34   C     C_3   0.073608 0.786180 0.110271 -0.483459
H8    H     H_    0.030765 0.772407 0.161567 0.179576
H9    H     H_    0.099897 0.881100 0.212983 0.284413
H10   H     H_    0.095586 0.675442 0.094985 0.265450
N7    N     N_R   0.223972 0.819977 0.612227 0.155677
O13   O     O_R   0.186807 0.855492 0.494500 -0.326566
O14   O     O_R   0.240302 0.925439 0.764690 -0.236662
N8    N     N_R   0.789761 0.244918 0.351395 0.184093
O15   O     O_R   0.774669 0.144703 0.193807 -0.254735
O16   O     O_R   0.833816 0.219813 0.452957 -0.320567
N9    N     N_R   0.342670 0.783347 0.703202 0.165426
O17   O     O_R   0.382107 0.850078 0.629048 -0.372181
O18   O     O_R   0.341488 0.821358 0.881680 -0.198808
N10   N     N_R   0.668198 0.221320 0.357142 0.157342
O19   O     O_R   0.625088 0.197942 0.232752 -0.276451
O20   O     O_R   0.685818 0.102270 0.415297 -0.276097
N11   N     N_2   0.317811 0.226913 0.368139 -0.436058
H11   H     H_    0.303837 0.164536 0.235855 0.336571
C35   C     C_3   0.325215 0.132155 0.500141 -0.336600
H12   H     H_    0.301966 0.014305 0.445483 0.263920
H13   H     H_    0.309101 0.188689 0.635214 0.246071
H14   H     H_    0.371480 0.116792 0.523885 0.235995
N12   N     N_2   0.672179 0.793923 0.629984 -0.437970
H15   H     H_    0.682563 0.893220 0.585890 0.347154
C36   C     C_3   0.673096 0.825744 0.828951 -0.358457
H16   H     H_    0.717216 0.860569 0.894485 0.268053
H17   H     H_    0.657142 0.719740 0.870720 0.251074
H18   H     H_    0.645379 0.923176 0.881339 0.281219
N13   N     N_R   0.196337 0.237483 0.390664 0.160979
O21   O     O_R   0.157568 0.214954 0.499349 -0.317149
O22   O     O_R   0.199405 0.132754 0.235540 -0.272622
N14   N     N_R   0.789750 0.825705 0.542071 0.158561
O23   O     O_R   0.788132 0.935522 0.693735 -0.306927
O24   O     O_R   0.821965 0.851709 0.416710 -0.287867
N15   N     N_R   0.455696 0.942123 0.268205 0.137169
O25   O     O_R   0.468131 0.948958 0.104176 -0.201349
O26   O     O_R   0.407341 0.870222 0.286186 -0.296826
N16   N     N_R   0.550350 0.056388 0.718289 0.116073
O27   O     O_R   0.542289 0.051321 0.886328 -0.229987
O28   O     O_R   0.597190 0.127754 0.686551 -0.310833
N17   N     N_R   0.429404 0.413277 0.953576 0.252452
O29   O     O_R   0.414526 0.264249 0.883830 -0.324300
O30   O     O_R   0.389528 0.512042 0.989771 -0.273799
N18   N     N_R   0.570571 0.585698 0.047070 0.241856
O31   O     O_R   0.584330 0.732180 0.134088 -0.334832
O32   O     O_R   0.610812 0.488448 0.008295 -0.293433

loop_
_geom_bond_atom_site_label_1
_geom_bond_atom_site_label_2
_geom_bond_distance
_ccdc_geom_bond_type
C15   N5    1.423209 S    
C33   H4    1.111913 S    
N17   O29   1.299844 A    
C15   C17   1.400165 A    
N15   O25   1.299221 A    
N1    C30   1.441336 S    
C26   N12   1.424197 S    
N2    C29   1.445834 S    
N18   O32   1.301425 A    
C21   C23   1.407216 A    
N5    H3    1.031960 S    
O5    C3    1.299718 A    
N10   O20   1.299484 A    
O1    C1    1.290619 A    
C7    C9    1.413322 A    
C12   C14   1.405155 A    
C25   N11   1.422018 S    
C16   N6    1.423770 S    
C28   N14   1.439996 S    
C27   C29   1.416135 A    
O4    Cu1   1.963311 S    
C34   H9    1.110176 S    
C4    C24   1.464985 S    
Cu2   N3    2.030839 S    
N8    O15   1.301382 A    
N7    O14   1.300725 A    
C19   N7    1.440626 S    
C11   C12   1.411270 A    
N13   O22   1.300879 A    
C27   N13   1.439027 S    
C20   C30   1.412256 A    
N11   H11   1.030304 S    
C8    O12   1.348331 S    
N11   C35   1.447497 S    
C9    C15   1.419792 A    
N6    H7    1.031857 S    
N17   O30   1.301333 A    
C10   C16   1.415993 A    
Cu1   Cu2   2.702717 S    
C23   C25   1.403897 A    
C1    C31   1.437323 S    
O2    C2    1.286002 A    
C24   C26   1.409147 A    
N18   O31   1.300364 A    
C26   C28   1.409904 A    
N5    C33   1.447000 S    
C6    C14   1.401981 A    
C28   C30   1.410873 A    
N6    C34   1.442603 S    
C32   N16   1.441897 S    
N10   O19   1.300403 A    
C36   H17   1.106241 S    
N3    N4    1.300528 D    
O4    C2    1.302973 A    
C7    O11   1.348590 S    
C35   H13   1.112986 S    
C36   H16   1.108984 S    
C2    C32   1.439075 S    
C34   H10   1.104667 S    
O7    Cu2   1.929285 S    
Cu1   N4    2.030839 S    
O7    C3    1.301843 A    
N12   H15   1.027499 S    
O6    C4    1.300247 A    
N14   O24   1.301253 A    
C31   N15   1.444867 S    
C25   C27   1.408876 A    
O3    Cu2   1.963311 S    
O8    C4    1.301186 A    
N8    O16   1.301245 A    
N12   C36   1.448462 S    
C20   N8    1.436793 S    
N16   O27   1.299146 A    
N16   O28   1.301436 A    
C33   H5    1.110067 S    
C31   C32   1.363152 D    
C10   C12   1.413378 A    
C19   C29   1.415651 A    
N9    O18   1.300810 A    
C36   H18   1.108198 S    
C13   C18   1.401381 A    
C5    N1    1.369064 A    
N4    N18   1.383998 S    
O6    Cu2   1.943764 S    
C8    C10   1.408041 A    
C22   C24   1.409910 A    
O3    C1    1.297940 A    
O8    Cu1   1.929285 S    
C35   H14   1.107218 S    
N15   O26   1.300484 A    
C5    O9    1.350262 S    
C6    O10   1.350027 S    
C17   H1    1.083910 S    
C18   H2    1.083824 S    
C9    C11   1.415886 A    
N9    O17   1.297221 A    
C19   C21   1.405593 A    
C20   C22   1.407869 A    
C16   C18   1.398263 A    
N14   O23   1.300242 A    
N1    C7    1.371060 A    
C22   N10   1.437392 S    
C3    C23   1.465461 S    
N2    C8    1.372396 A    
C11   C13   1.406409 A    
C34   H8    1.111448 S    
O2    Cu2   1.958276 S    
C5    C13   1.396207 A    
C35   H12   1.110829 S    
O5    Cu1   1.943764 S    
O1    Cu1   1.958276 S    
C14   C17   1.402540 A    
C6    N2    1.370673 A    
N7    O13   1.301278 A    
C33   H6    1.111209 S    
C21   N9    1.432783 S    
N13   O21   1.301302 A    
N3    N17   1.383888 S    
