data_mof_unit_47818.cif
_audit_creation_date              2012-12-11T17:04:43-0500
_audit_creation_method            fapswitch 2.2
_symmetry_space_group_name_H-M    P1
_symmetry_Int_Tables_number       1
_space_group_crystal_system       triclinic
_cell_length_a                    17.312825
_cell_length_b                    24.236004
_cell_length_c                    14.901212
_cell_angle_alpha                 89.749579
_cell_angle_beta                  125.533039
_cell_angle_gamma                 90.2354
_cell_volume                      5088.06776416

loop_
_atom_site_label
_atom_site_type_symbol
_atom_type_description
_atom_site_fract_x
_atom_site_fract_y
_atom_site_fract_z
_atom_type_partial_charge
C1    C     C_R   0.808347 0.624402 0.906078 -0.146039
C2    C     C_R   0.150070 0.652795 0.092908 -0.143378
C3    C     C_R   0.308346 0.124401 0.906077 -0.146049
C4    C     C_R   0.650070 0.152796 0.092908 -0.143369
C5    C     C_R   0.813402 0.363600 0.001983 0.054525
C6    C     C_R   0.117625 0.317012 0.997638 0.079310
C7    C     C_R   0.313400 0.863602 0.001983 0.054527
C8    C     C_R   0.617625 0.817012 0.997638 0.079309
C9    C     C_R   0.062536 0.501644 0.366875 0.078959
C10   C     C_R   0.051663 0.502356 0.727139 0.065019
C11   C     C_R   0.562535 0.001644 0.366875 0.078964
C12   C     C_R   0.551663 0.002355 0.727139 0.065021
C13   C     C_R   0.692329 0.499885 0.638111 0.043990
C14   C     C_R   0.325129 0.501021 0.276973 0.032579
C15   C     C_R   0.192354 0.999883 0.638090 0.043978
C16   C     C_R   0.825134 0.001024 0.277018 0.032600
C17   C     C_3   0.536232 0.448406 0.486237 -0.168291
C18   C     C_3   0.504420 0.466570 0.369812 -0.151360
C19   C     C_3   0.036338 0.948377 0.486047 -0.168318
C20   C     C_3   0.004469 0.966695 0.369676 -0.151263
C21   C     C_3   0.456921 0.482874 0.475367 -0.137889
C22   C     C_3   0.571011 0.517759 0.419697 -0.145146
C23   C     C_3   0.956984 0.982726 0.475334 -0.137972
C24   C     C_3   0.070985 0.017909 0.419737 -0.145209
C25   C     C_3   0.426214 0.501091 0.360355 0.183087
C26   C     C_3   0.600244 0.499441 0.533900 0.183164
C27   C     C_3   0.926223 0.001097 0.360378 0.183102
C28   C     C_3   0.100271 0.999437 0.533883 0.183159
C29   C     C_3   0.490295 0.552154 0.407814 -0.167228
C30   C     C_3   0.521447 0.533782 0.523405 -0.150678
C31   C     C_3   0.990231 0.052184 0.408012 -0.167245
C32   C     C_3   0.021433 0.033659 0.523542 -0.150583
C33   C     C_R   0.766824 0.310902 0.103170 0.131129
C34   C     C_R   0.108350 0.234092 0.894909 0.165159
C35   C     C_R   0.266826 0.810902 0.103169 0.131131
C36   C     C_R   0.608350 0.734092 0.894909 0.165156
C37   C     C_R   0.740379 0.334972 0.003848 0.045175
C38   C     C_R   0.137079 0.258769 0.994592 0.031925
C39   C     C_R   0.240378 0.834974 0.003848 0.045172
C40   C     C_R   0.637079 0.758769 0.994593 0.031923
C41   C     C_R   0.656816 0.317353 0.904801 -0.185996
C42   C     C_R   0.197756 0.228662 0.092551 -0.206161
C43   C     C_R   0.156816 0.817354 0.904801 -0.186002
C44   C     C_R   0.697756 0.728662 0.092552 -0.206159
C45   C     C_R   0.903496 0.376428 0.093843 -0.128521
C46   C     C_R   0.054523 0.348857 0.906916 -0.159807
C47   C     C_R   0.403496 0.876429 0.093843 -0.128520
C48   C     C_R   0.554523 0.848857 0.906916 -0.159812
C49   C     C_R   0.108851 0.771095 0.904279 -0.184494
C50   C     C_R   0.746842 0.683079 0.092120 -0.195355
C51   C     C_R   0.608850 0.271095 0.904279 -0.184493
C52   C     C_R   0.246841 0.183079 0.092119 -0.195357
C53   C     C_R   0.143346 0.742625 0.003045 0.040083
C54   C     C_R   0.735289 0.667917 0.993913 0.031394
C55   C     C_R   0.643343 0.242626 0.003045 0.040082
C56   C     C_R   0.235288 0.167917 0.993912 0.031394
C57   C     C_R   0.218603 0.764918 0.102776 0.140079
C58   C     C_R   0.657072 0.689367 0.894452 0.163305
C59   C     C_R   0.718599 0.264919 0.102777 0.140081
C60   C     C_R   0.157071 0.189367 0.894451 0.163295
C61   C     C_3   0.212611 0.788271 0.191183 -0.506067
C62   C     C_3   0.646915 0.709684 0.792851 -0.525811
C63   C     C_3   0.712602 0.288275 0.191177 -0.506064
C64   C     C_3   0.146915 0.209684 0.792850 -0.525809
C65   C     C_3   0.764722 0.338250 0.191370 -0.478632
C66   C     C_3   0.093237 0.258280 0.793247 -0.523716
C67   C     C_3   0.264729 0.838247 0.191374 -0.478629
C68   C     C_3   0.593237 0.758280 0.793248 -0.523714
C69   C     C_R   0.096285 0.555452 0.620680 0.084602
C70   C     C_R   0.091694 0.554036 0.525300 0.059654
C71   C     C_R   0.596295 0.055450 0.620687 0.084608
C72   C     C_R   0.591703 0.054035 0.525306 0.059658
C73   C     C_R   0.096859 0.505636 0.669729 0.042203
C74   C     C_R   0.095794 0.504125 0.481604 0.049683
C75   C     C_R   0.596861 0.005635 0.669731 0.042201
C76   C     C_R   0.595795 0.004124 0.481605 0.049687
C77   C     C_R   0.122332 0.457089 0.641373 -0.185864
C78   C     C_R   0.122031 0.456366 0.547186 -0.198709
C79   C     C_R   0.622329 0.957086 0.641370 -0.185868
C80   C     C_R   0.622027 0.956363 0.547183 -0.198703
C81   C     C_3   0.025031 0.602257 0.474468 -0.223469
C82   C     C_3   0.031831 0.605046 0.580417 -0.220925
C83   C     C_3   0.525050 0.102261 0.474482 -0.223471
C84   C     C_3   0.531852 0.105049 0.580433 -0.220930
C85   C     C_R   0.049486 0.546873 0.303439 -0.127617
C86   C     C_R   0.023485 0.547368 0.757441 -0.152084
C87   C     C_R   0.549486 0.046873 0.303439 -0.127610
C88   C     C_R   0.523485 0.047368 0.757441 -0.152081
C89   C     C_R   0.741489 0.454328 0.698670 -0.143490
C90   C     C_R   0.269142 0.454644 0.249849 -0.142216
C91   C     C_R   0.241505 0.954327 0.698658 -0.143444
C92   C     C_R   0.769146 0.954645 0.249870 -0.142261
C93   C     C_R   0.048563 0.455346 0.305147 -0.146758
C94   C     C_R   0.018833 0.455367 0.749692 -0.120866
C95   C     C_R   0.548562 0.955345 0.305147 -0.146756
C96   C     C_R   0.518833 0.955367 0.749692 -0.120861
C97   C     C_R   0.741189 0.546137 0.696359 -0.159944
C98   C     C_R   0.269634 0.547116 0.251076 -0.125907
C99   C     C_R   0.241199 0.046135 0.696349 -0.159975
C100  C     C_R   0.769635 0.047118 0.251096 -0.125863
C101  C     C_R   0.810737 0.376130 0.909320 -0.118260
C102  C     C_R   0.148634 0.348653 0.090003 -0.134125
C103  C     C_R   0.310736 0.876132 0.909319 -0.118272
C104  C     C_R   0.648635 0.848653 0.090004 -0.134113
C105  C     C_R   0.901436 0.626603 0.090645 -0.123293
C106  C     C_R   0.057197 0.653320 0.909809 -0.134409
C107  C     C_R   0.401436 0.126603 0.090645 -0.123295
C108  C     C_R   0.557197 0.153320 0.909809 -0.134408
C109  C     C_R   0.811331 0.639600 0.997430 0.073392
C110  C     C_R   0.119091 0.684987 0.001442 0.066717
C111  C     C_R   0.311330 0.139599 0.997429 0.073393
C112  C     C_R   0.619090 0.184987 0.001442 0.066718
H1    H     H_    0.748762 0.626194 0.820995 0.108742
H2    H     H_    0.188333 0.666913 0.177235 0.093421
H3    H     H_    0.248761 0.126191 0.820994 0.108746
H4    H     H_    0.688332 0.166913 0.177234 0.093416
H5    H     H_    0.556018 0.405827 0.519837 0.107128
H6    H     H_    0.494560 0.439352 0.304163 0.114765
H7    H     H_    0.056196 0.905772 0.519483 0.107129
H8    H     H_    0.994634 0.939578 0.303916 0.114776
H9    H     H_    0.469980 0.594620 0.373692 0.108437
H10   H     H_    0.530017 0.561150 0.588249 0.110661
H11   H     H_    0.969860 0.094678 0.374064 0.108398
H12   H     H_    0.029977 0.060925 0.588496 0.110705
H13   H     H_    0.633078 0.335804 0.826531 0.122714
H14   H     H_    0.216766 0.243742 0.171160 0.126402
H15   H     H_    0.133077 0.835805 0.826532 0.122724
H16   H     H_    0.716766 0.743742 0.171161 0.126402
H17   H     H_    0.049804 0.755584 0.825624 0.124966
H18   H     H_    0.801929 0.665045 0.170376 0.137004
H19   H     H_    0.549804 0.255584 0.825623 0.124962
H20   H     H_    0.301929 0.165045 0.170375 0.137006
H21   H     H_    0.254738 0.763907 0.268816 0.183610
H22   H     H_    0.601823 0.681969 0.721038 0.188110
H23   H     H_    0.754724 0.263913 0.268814 0.183608
H24   H     H_    0.101822 0.181969 0.721038 0.188121
H25   H     H_    0.138473 0.797168 0.162208 0.200122
H26   H     H_    0.715379 0.722251 0.807851 0.200440
H27   H     H_    0.638462 0.297173 0.162196 0.200122
H28   H     H_    0.215379 0.222250 0.807849 0.200441
H29   H     H_    0.836999 0.342913 0.269137 0.185086
H30   H     H_    0.017152 0.258304 0.722081 0.189664
H31   H     H_    0.337006 0.842910 0.269138 0.185086
H32   H     H_    0.517152 0.758303 0.722081 0.189664
H33   H     H_    0.721140 0.376478 0.162322 0.201568
H34   H     H_    0.131349 0.298007 0.808244 0.198822
H35   H     H_    0.221145 0.876475 0.162331 0.201566
H36   H     H_    0.631347 0.798008 0.808245 0.198822
H37   H     H_    0.130591 0.418414 0.682647 0.122573
H38   H     H_    0.131719 0.417335 0.520081 0.121018
H39   H     H_    0.630582 0.918411 0.682642 0.122573
H40   H     H_    0.631710 0.917332 0.520074 0.121016
H41   H     H_    0.930156 0.371251 0.179263 0.101835
H42   H     H_    0.004377 0.334661 0.823434 0.103219
H43   H     H_    0.430156 0.871252 0.179263 0.101834
H44   H     H_    0.504376 0.834661 0.823435 0.103220
H45   H     H_    0.055410 0.638292 0.458368 0.125755
H46   H     H_    0.963232 0.597978 0.569390 0.136813
H47   H     H_    0.555436 0.138294 0.458386 0.125755
H48   H     H_    0.463252 0.097987 0.569406 0.136810
H49   H     H_    0.070836 0.588831 0.331450 0.087153
H50   H     H_    0.041298 0.589856 0.758129 0.117120
H51   H     H_    0.570836 0.088831 0.331451 0.087154
H52   H     H_    0.541299 0.089855 0.758131 0.117116
H53   H     H_    0.728249 0.412028 0.670590 0.088212
H54   H     H_    0.291943 0.412101 0.266113 0.101807
H55   H     H_    0.228272 0.912026 0.670585 0.088192
H56   H     H_    0.791948 0.912102 0.266132 0.101812
H57   H     H_    0.066662 0.413325 0.334724 0.085306
H58   H     H_    0.028619 0.412831 0.737179 0.092799
H59   H     H_    0.566662 0.913325 0.334723 0.085304
H60   H     H_    0.528618 0.912831 0.737179 0.092798
H61   H     H_    0.726864 0.588178 0.666198 0.094018
H62   H     H_    0.292240 0.589712 0.267875 0.094096
H63   H     H_    0.226872 0.088177 0.666190 0.094035
H64   H     H_    0.792234 0.089715 0.267888 0.094061
H65   H     H_    0.752315 0.370341 0.824231 0.092870
H66   H     H_    0.187507 0.334352 0.174325 0.083950
H67   H     H_    0.252312 0.870346 0.824230 0.092881
H68   H     H_    0.687509 0.834352 0.174326 0.083948
H69   H     H_    0.928520 0.632496 0.175967 0.096897
H70   H     H_    0.009992 0.667629 0.825681 0.088095
H71   H     H_    0.428519 0.132496 0.175967 0.096898
H72   H     H_    0.509992 0.167629 0.825681 0.088092
H73   H     H_    0.408550 0.468655 0.496993 0.114755
H74   H     H_    0.620877 0.531895 0.400341 0.115569
H75   H     H_    0.908655 0.968385 0.496935 0.114733
H76   H     H_    0.120814 0.032166 0.400410 0.115560
N1    N     N_R   0.892620 0.603790 0.941770 -0.040311
N2    N     N_R   0.107380 0.603790 0.058230 -0.037846
N3    N     N_R   0.392620 0.103790 0.941770 -0.040309
N4    N     N_R   0.607380 0.103790 0.058230 -0.037850
N5    N     N_R   0.952270 0.397640 0.058010 -0.041177
N6    N     N_R   0.047730 0.397640 0.941990 -0.037637
N7    N     N_R   0.452270 0.897640 0.058010 -0.041177
N8    N     N_R   0.547730 0.897640 0.941990 -0.037639
N9    N     N_R   0.026310 0.529110 0.206760 -0.040362
N10   N     N_R   0.973690 0.529110 0.793240 -0.040515
N11   N     N_R   0.526310 0.029110 0.206760 -0.040364
N12   N     N_R   0.473690 0.029110 0.793240 -0.040512
N13   N     N_R   0.818570 0.472310 0.793020 -0.035563
N14   N     N_R   0.181430 0.472310 0.206980 -0.039592
N15   N     N_R   0.318570 0.972310 0.793020 -0.035568
N16   N     N_R   0.681430 0.972310 0.206980 -0.039585
N17   N     N_R   0.026930 0.472300 0.207330 -0.038014
N18   N     N_R   0.973070 0.472300 0.792670 -0.039619
N19   N     N_R   0.526930 0.972300 0.207330 -0.038014
N20   N     N_R   0.473070 0.972300 0.792670 -0.039617
N21   N     N_R   0.817960 0.529130 0.792460 -0.034654
N22   N     N_R   0.182040 0.529130 0.207540 -0.040550
N23   N     N_R   0.317960 0.029130 0.792460 -0.034656
N24   N     N_R   0.682040 0.029130 0.207540 -0.040548
N25   N     N_R   0.894850 0.397640 0.943830 -0.040917
N26   N     N_R   0.105150 0.397640 0.056170 -0.037227
N27   N     N_R   0.394850 0.897640 0.943830 -0.040918
N28   N     N_R   0.605150 0.897640 0.056170 -0.037227
N29   N     N_R   0.950040 0.603780 0.055950 -0.041398
N30   N     N_R   0.049960 0.603780 0.944050 -0.039571
N31   N     N_R   0.450040 0.103780 0.055950 -0.041398
N32   N     N_R   0.549960 0.103780 0.944050 -0.039572
Ni1   Ni    Ni4+2 0.934160 0.565860 0.869070 0.208959
Ni2   Ni    Ni4+2 0.065840 0.565860 0.130930 0.208124
Ni3   Ni    Ni4+2 0.434160 0.065860 0.869070 0.208955
Ni4   Ni    Ni4+2 0.565840 0.065860 0.130930 0.208126
Ni5   Ni    Ni4+2 0.067260 0.435560 0.132230 0.207711
Ni6   Ni    Ni4+2 0.932740 0.435560 0.867770 0.211170
Ni7   Ni    Ni4+2 0.567260 0.935560 0.132230 0.207710
Ni8   Ni    Ni4+2 0.432740 0.935560 0.867770 0.211166
C113  C     C_1   0.928416 0.587072 0.379860 0.079777
N33   N     N_1   0.852729 0.574892 0.305967 -0.097760
C114  C     C_1   0.082465 0.654647 0.645743 0.057821
N34   N     N_1   0.122171 0.693590 0.697185 -0.099001
C115  C     C_1   0.428431 0.087082 0.379874 0.079772
N35   N     N_1   0.352742 0.074907 0.305981 -0.097764
C116  C     C_1   0.582500 0.154646 0.645768 0.057827
N36   N     N_1   0.622218 0.193584 0.697218 -0.098995

loop_
_geom_bond_atom_site_label_1
_geom_bond_atom_site_label_2
_ccdc_geom_bond_type
C53   C110  S    
C58   C62   S    
C87   H51   S    
C82   C114  S    
N8    Ni8   S    
N22   Ni2   S    
C22   C29   S    
C5    C37   S    
C55   C112  S    
N10   N18   A    
C2    N2    A    
N21   Ni1   S    
C4    N4    A    
C89   N13   A    
C19   C20   S    
C94   N18   A    
C87   N11   A    
C72   C76   A    
C67   H31   S    
C34   C66   S    
C63   C65   S    
C81   C82   S    
C84   H48   S    
C33   C65   S    
C99   N23   A    
C77   C78   A    
C98   N22   A    
C93   H57   S    
C50   C54   A    
C97   N21   A    
N8    N28   A    
C17   C26   S    
C14   C98   A    
C47   N7    A    
N3    N31   A    
C45   H41   S    
C38   C42   A    
C55   C59   A    
C11   C76   S    
N2    Ni2   S    
C64   H28   S    
C98   H62   S    
C10   C73   S    
N1    Ni1   S    
C96   N20   A    
C103  H67   S    
C10   C94   A    
C11   C95   A    
C91   N15   A    
C85   H49   S    
N27   Ni8   S    
C103  N27   A    
C57   C61   S    
C70   C81   S    
N26   Ni5   S    
C32   H12   S    
C14   C90   A    
C21   C25   S    
C69   C82   S    
C50   H18   S    
C9    C85   A    
N31   Ni4   S    
C52   C56   A    
N9    N17   A    
C102  N26   A    
C2    C110  A    
C30   H10   S    
C11   C87   A    
C29   H9    S    
C70   C74   A    
C65   H33   S    
C116  N36   T    
C6    C38   S    
C49   H17   S    
C69   C73   A    
C86   H50   S    
C23   C27   S    
C115  N35   T    
C18   H6    S    
C56   C111  S    
N7    N27   A    
C68   H36   S    
C47   H43   S    
C17   H5    S    
C1    C109  A    
C16   C27   S    
C4    C112  A    
C19   H7    S    
C33   C59   A    
C7    C103  A    
C90   H54   S    
C34   C60   A    
N5    Ni5   S    
N15   N23   A    
C18   C25   S    
C1    H1    S    
N14   N22   A    
N2    N30   A    
N13   N21   A    
N15   Ni8   S    
N11   Ni4   S    
C95   N19   A    
N1    N29   A    
C91   H55   S    
N14   Ni5   S    
C71   C84   S    
C25   C29   S    
N13   Ni6   S    
C46   H42   S    
C5    C101  A    
C59   C63   S    
N28   Ni7   S    
C97   H61   S    
C108  H72   S    
C27   C31   S    
C52   H20   S    
C41   H13   S    
N6    Ni6   S    
C36   C40   A    
N10   Ni1   S    
C81   H45   S    
C15   C91   A    
C104  N28   A    
N9    Ni2   S    
C61   H21   S    
C77   H37   S    
C53   C57   A    
C19   C23   S    
C16   C100  A    
C39   C43   A    
C88   H52   S    
C5    C45   A    
C100  N24   A    
C33   C37   A    
C56   C60   A    
C46   N6    A    
C107  H71   S    
C45   N5    A    
C63   H23   S    
C22   H74   S    
C35   C39   A    
C21   H73   S    
C8    C48   A    
N18   Ni6   S    
C29   C30   S    
C42   C52   A    
C3    N3    A    
C65   H29   S    
C61   C67   S    
C83   C84   S    
C28   C32   S    
C12   C88   A    
N23   Ni3   S    
N16   N24   A    
N11   N19   A    
C17   C18   S    
C83   H47   S    
C13   C97   A    
C62   H26   S    
N16   Ni7   S    
N17   Ni5   S    
C19   C28   S    
C8    C104  A    
C89   H53   S    
C22   C26   S    
C86   N10   A    
C107  N31   A    
C83   C115  S    
N19   Ni7   S    
C106  N30   A    
C41   C51   A    
N24   Ni4   S    
C26   C30   S    
C105  N29   A    
C67   H35   S    
C102  H66   S    
C101  N25   A    
C13   C26   S    
C16   C92   A    
C76   C80   A    
C9    C74   S    
N4    N32   A    
C43   H15   S    
C9    C93   A    
C72   C83   S    
C20   H8    S    
C78   H38   S    
N30   Ni1   S    
C79   H39   S    
C93   N17   A    
C106  C110  A    
C44   C50   A    
N29   Ni2   S    
C80   H40   S    
C105  C109  A    
C62   H22   S    
C44   H16   S    
C51   H19   S    
C6    C46   A    
C13   C89   A    
C34   C38   A    
N12   Ni3   S    
C107  C111  A    
C4    H4    S    
C31   C32   S    
C43   C49   A    
C24   C28   S    
C15   C99   A    
C92   N16   A    
N6    N26   A    
C36   C68   S    
C10   C86   A    
N5    N25   A    
C100  H64   S    
C66   H30   S    
C20   C27   S    
C63   H27   S    
N3    Ni3   S    
C21   C30   S    
C74   C78   A    
C36   C58   A    
C113  N33   T    
C23   H75   S    
C60   C64   S    
C24   H76   S    
C23   C32   S    
C88   N12   A    
C18   C22   S    
C24   C31   S    
C31   H11   S    
C71   C72   A    
C64   C66   S    
C3    H3    S    
C94   H58   S    
C71   C75   A    
C2    H2    S    
C61   H25   S    
C15   C28   S    
C104  H68   S    
C95   H59   S    
C82   H46   S    
C48   N8    A    
N7    Ni7   S    
N4    Ni4   S    
C68   H32   S    
C51   C55   A    
C62   C68   S    
C6    C102  A    
C14   C25   S    
C37   C41   A    
C69   C70   A    
C48   H44   S    
C17   C21   S    
C92   H56   S    
C66   H34   S    
C49   C53   A    
C101  H65   S    
C35   C67   S    
C42   H14   S    
C3    C111  A    
C79   C80   A    
C108  N32   A    
C108  C112  A    
C84   C116  S    
C40   C44   A    
C99   H63   S    
C54   C109  S    
C73   C77   A    
N12   N20   A    
C35   C57   A    
C96   H60   S    
C12   C75   S    
C54   C58   A    
C114  N34   T    
C7    C39   S    
C85   N9    A    
C12   C96   A    
C81   C113  S    
C64   H24   S    
C8    C40   S    
C105  H69   S    
N25   Ni6   S    
C75   C79   A    
C20   C24   S    
N32   Ni3   S    
N20   Ni8   S    
C106  H70   S    
C7    C47   A    
C90   N14   A    
C1    N1    A    
