data_mof_unit_33142.cif
_audit_creation_date              2012-12-11T14:40:09-0500
_audit_creation_method            fapswitch 2.2
_symmetry_space_group_name_H-M    P1
_symmetry_Int_Tables_number       1
_space_group_crystal_system       triclinic
_cell_length_a                    19.71337
_cell_length_b                    10.989481
_cell_length_c                    19.442943
_cell_angle_alpha                 89.674302
_cell_angle_beta                  97.454971
_cell_angle_gamma                 90.917637
_cell_volume                      4175.94574776

loop_
_atom_site_label
_atom_site_type_symbol
_atom_type_description
_atom_site_fract_x
_atom_site_fract_y
_atom_site_fract_z
_atom_type_partial_charge
C1    C     C_R   0.709885 0.992060 0.367175 0.568656
C2    C     C_R   0.276257 0.959271 0.637559 0.529962
C3    C     C_R   0.209885 0.492061 0.367175 0.568656
C4    C     C_R   0.776257 0.459271 0.637559 0.529962
C5    C     C_3   0.699583 0.357450 0.478550 -0.144047
C6    C     C_3   0.263390 0.319619 0.514418 -0.067413
C7    C     C_3   0.199584 0.857450 0.478550 -0.144047
C8    C     C_3   0.763390 0.819619 0.514418 -0.067413
C9    C     C_3   0.750997 0.406928 0.430998 0.038277
C10   C     C_3   0.249265 0.410350 0.570623 0.038746
C11   C     C_3   0.250997 0.906928 0.430998 0.038277
C12   C     C_3   0.749265 0.910350 0.570623 0.038747
C13   C     C_3   0.749543 0.533334 0.462690 -0.118436
C14   C     C_3   0.284718 0.513691 0.535594 -0.156056
C15   C     C_3   0.249543 0.033334 0.462690 -0.118436
C16   C     C_3   0.784718 0.013691 0.535594 -0.156056
C17   C     C_3   0.810720 0.495782 0.516697 -0.135984
C18   C     C_3   0.213239 0.542765 0.494638 -0.181738
C19   C     C_3   0.310720 0.995783 0.516697 -0.135984
C20   C     C_3   0.713239 0.042765 0.494638 -0.181738
C21   C     C_3   0.811948 0.369609 0.484328 0.029184
C22   C     C_3   0.179573 0.437771 0.530541 -0.008056
C23   C     C_3   0.311948 0.869610 0.484328 0.029184
C24   C     C_3   0.679573 0.937771 0.530541 -0.008056
C25   C     C_3   0.761518 0.318756 0.531873 -0.166388
C26   C     C_3   0.192637 0.348377 0.473707 -0.107954
C27   C     C_3   0.261518 0.818757 0.531873 -0.166388
C28   C     C_3   0.692637 0.848377 0.473707 -0.107954
C29   C     C_3   0.761228 0.443482 0.564124 0.042816
C30   C     C_3   0.227058 0.453329 0.438038 0.045072
C31   C     C_3   0.261228 0.943482 0.564124 0.042816
C32   C     C_3   0.727058 0.953329 0.438038 0.045071
C33   C     C_3   0.482310 0.281590 0.977697 -0.136566
C34   C     C_3   0.440175 0.267288 0.038525 -0.158952
C35   C     C_3   0.982310 0.781590 0.977697 -0.136566
C36   C     C_3   0.940175 0.767288 0.038525 -0.158952
C37   C     C_3   0.532332 0.185768 0.009678 0.276152
C38   C     C_3   0.398123 0.163607 0.998577 0.253983
C39   C     C_3   0.032332 0.685768 0.009678 0.276152
C40   C     C_3   0.898123 0.663607 0.998577 0.253983
C41   C     C_3   0.491545 0.171244 0.071145 0.010031
C42   C     C_3   0.441617 0.176653 0.938184 0.021174
C43   C     C_3   0.991546 0.671244 0.071145 0.010031
C44   C     C_3   0.941617 0.676654 0.938184 0.021174
C45   C     C_R   0.534500 0.179412 0.337190 0.529822
C46   C     C_R   0.438577 0.183615 0.651918 0.549845
C47   C     C_R   0.034500 0.679412 0.337190 0.529822
C48   C     C_R   0.938577 0.683615 0.651918 0.549845
C49   C     C_3   0.448091 0.066901 0.033561 -0.156297
C50   C     C_3   0.491380 0.080946 0.972490 -0.123145
C51   C     C_3   0.948091 0.566900 0.033561 -0.156297
C52   C     C_3   0.991380 0.580946 0.972490 -0.123145
C53   C     C_1   0.765265 0.422440 0.904030 0.021484
C54   C     C_1   0.219357 0.478718 0.085366 0.010975
C55   C     C_1   0.265265 0.922440 0.904030 0.021484
C56   C     C_1   0.719357 0.978718 0.085366 0.010974
C57   C     C_1   0.751514 0.391959 0.033906 -0.035602
C58   C     C_1   0.246273 0.437660 0.959500 -0.058959
C59   C     C_1   0.251514 0.891959 0.033906 -0.035602
C60   C     C_1   0.746273 0.937660 0.959500 -0.058959
C61   C     C_1   0.759059 0.405871 0.963760 -0.019139
C62   C     C_1   0.232430 0.462861 0.027338 -0.049924
C63   C     C_1   0.259059 0.905871 0.963760 -0.019139
C64   C     C_1   0.732429 0.962861 0.027338 -0.049924
C65   C     C_1   0.743533 0.382563 0.093703 0.002782
C66   C     C_1   0.254838 0.408750 0.901672 0.005422
C67   C     C_1   0.243533 0.882563 0.093703 0.002782
C68   C     C_1   0.754838 0.908750 0.901672 0.005422
C69   C     C_R   0.740518 0.365130 0.360439 0.545193
C70   C     C_R   0.259564 0.367372 0.640491 0.542860
C71   C     C_R   0.240518 0.865130 0.360439 0.545193
C72   C     C_R   0.759564 0.867372 0.640491 0.542860
C73   C     C_R   0.704841 0.998604 0.154612 0.583377
C74   C     C_R   0.278642 0.952990 0.836172 0.544056
C75   C     C_R   0.204841 0.498604 0.154612 0.583377
C76   C     C_R   0.778642 0.452989 0.836172 0.544056
C77   C     C_R   0.528744 0.178623 0.141438 0.565407
C78   C     C_R   0.431480 0.182758 0.861261 0.578577
C79   C     C_R   0.028744 0.678623 0.141438 0.565407
C80   C     C_R   0.931480 0.682758 0.861261 0.578577
C81   C     C_R   0.735516 0.356394 0.163586 0.546110
C82   C     C_R   0.264195 0.361032 0.835367 0.556197
C83   C     C_R   0.235516 0.856394 0.163586 0.546110
C84   C     C_R   0.764195 0.861032 0.835367 0.556197
C85   C     C_1   0.460477 0.178076 0.584948 -0.029090
C86   C     C_1   0.507086 0.170877 0.401359 -0.017437
C87   C     C_1   0.960477 0.678076 0.584948 -0.029090
C88   C     C_1   0.007086 0.670877 0.401359 -0.017437
C89   C     C_1   0.490494 0.170034 0.458591 -0.048169
C90   C     C_1   0.474913 0.173809 0.526908 -0.058752
C91   C     C_1   0.990494 0.670034 0.458591 -0.048168
C92   C     C_1   0.974913 0.673809 0.526908 -0.058752
C93   C     C_3   0.700824 0.482822 0.512027 0.277212
C94   C     C_3   0.296669 0.424076 0.477997 0.274705
C95   C     C_3   0.200824 0.982822 0.512027 0.277212
C96   C     C_3   0.796669 0.924076 0.477997 0.274705
Cr1   Cr    Cr6+3 0.765830 0.160660 0.268180 1.010794
Cr2   Cr    Cr6+3 0.234170 0.160660 0.731820 1.017502
Cr3   Cr    Cr6+3 0.265830 0.660660 0.268180 1.010795
Cr4   Cr    Cr6+3 0.734170 0.660660 0.731820 1.017502
Cr5   Cr    Cr6+3 0.612110 0.009150 0.248770 1.020160
Cr6   Cr    Cr6+3 0.387890 0.009150 0.751230 1.016662
Cr7   Cr    Cr6+3 0.112110 0.509150 0.248770 1.020160
Cr8   Cr    Cr6+3 0.887890 0.509150 0.751230 1.016662
Cr9   Cr    Cr6+3 0.615930 0.324050 0.248450 1.023419
Cr10  Cr    Cr6+3 0.384070 0.324050 0.751550 1.005590
Cr11  Cr    Cr6+3 0.115930 0.824050 0.248450 1.023419
Cr12  Cr    Cr6+3 0.884070 0.824050 0.751550 1.005590
H1    H     H_    0.650888 0.309202 0.459745 0.100773
H2    H     H_    0.288330 0.232596 0.528955 0.114848
H3    H     H_    0.150888 0.809202 0.459744 0.100773
H4    H     H_    0.788330 0.732595 0.528955 0.114849
H5    H     H_    0.744305 0.616983 0.430447 0.123781
H6    H     H_    0.324515 0.574017 0.563601 0.099019
H7    H     H_    0.244305 0.116983 0.430447 0.123781
H8    H     H_    0.824515 0.074017 0.563601 0.099019
H9    H     H_    0.355690 0.052835 0.534605 0.112390
H10   H     H_    0.685934 0.127491 0.482832 0.105011
H11   H     H_    0.855690 0.552835 0.534605 0.112390
H12   H     H_    0.185933 0.627491 0.482832 0.105011
H13   H     H_    0.764592 0.239897 0.567262 0.114020
H14   H     H_    0.155397 0.280751 0.447999 0.157811
H15   H     H_    0.264593 0.739897 0.567262 0.114020
H16   H     H_    0.655398 0.780751 0.447999 0.157812
H17   H     H_    0.496403 0.371525 0.956816 0.129728
H18   H     H_    0.421518 0.345150 0.066545 0.116879
H19   H     H_    0.996403 0.871525 0.956816 0.129728
H20   H     H_    0.921518 0.845150 0.066545 0.116879
H21   H     H_    0.433300 0.980125 0.057478 0.123803
H22   H     H_    0.514287 0.005070 0.946368 0.139222
H23   H     H_    0.933300 0.480125 0.057478 0.123803
H24   H     H_    0.014287 0.505070 0.946368 0.139222
O1    O     O_R   0.783230 0.287800 0.346510 -0.541003
O2    O     O_R   0.216770 0.287800 0.653490 -0.505971
O3    O     O_R   0.283230 0.787800 0.346510 -0.541003
O4    O     O_R   0.716770 0.787800 0.653490 -0.505972
O5    O     O_R   0.554500 0.081650 0.170370 -0.509870
O6    O     O_R   0.445500 0.081650 0.829630 -0.501002
O7    O     O_R   0.054500 0.581650 0.170370 -0.509870
O8    O     O_R   0.945500 0.581650 0.829630 -0.501002
O9    O     O_R   0.545430 0.285140 0.163100 -0.503142
O10   O     O_R   0.454570 0.285140 0.836900 -0.536834
O11   O     O_R   0.045430 0.785140 0.163100 -0.503142
O12   O     O_R   0.954570 0.785140 0.836900 -0.536834
O13   O     O_R   0.677850 0.374730 0.185500 -0.484378
O14   O     O_R   0.322150 0.374730 0.814500 -0.510231
O15   O     O_R   0.177850 0.874730 0.185500 -0.484378
O16   O     O_R   0.822150 0.874730 0.814500 -0.510231
O17   O     O_3   0.664630 0.164620 0.255130 -0.291828
O18   O     O_3   0.335370 0.164620 0.744870 -0.294756
O19   O     O_3   0.164630 0.664620 0.255130 -0.291828
O20   O     O_3   0.835370 0.664620 0.744870 -0.294756
O21   O     O_R   0.760130 0.037060 0.338610 -0.484564
O22   O     O_R   0.239870 0.037060 0.661390 -0.488988
O23   O     O_R   0.260130 0.537060 0.338610 -0.484563
O24   O     O_R   0.739870 0.537060 0.661390 -0.488988
O25   O     O_R   0.666620 0.921370 0.332440 -0.515704
O26   O     O_R   0.333380 0.921370 0.667560 -0.525445
O27   O     O_R   0.166620 0.421370 0.332440 -0.515704
O28   O     O_R   0.833380 0.421370 0.667560 -0.525444
O29   O     O_R   0.557170 0.082420 0.312350 -0.514359
O30   O     O_R   0.442830 0.082420 0.687650 -0.491167
O31   O     O_R   0.057170 0.582420 0.312350 -0.514359
O32   O     O_R   0.942830 0.582420 0.687650 -0.491167
O33   O     O_R   0.548310 0.285980 0.316250 -0.519839
O34   O     O_R   0.451690 0.285980 0.683750 -0.511142
O35   O     O_R   0.048310 0.785980 0.316250 -0.519839
O36   O     O_R   0.951690 0.785980 0.683750 -0.511142
O37   O     O_R   0.680520 0.375500 0.327470 -0.500168
O38   O     O_R   0.319480 0.375500 0.672530 -0.520379
O39   O     O_R   0.180520 0.875500 0.327470 -0.500167
O40   O     O_R   0.819480 0.875500 0.672530 -0.520379
O41   O     O_R   0.780350 0.286970 0.193350 -0.521921
O42   O     O_R   0.219650 0.286970 0.806650 -0.510548
O43   O     O_R   0.280350 0.786970 0.193350 -0.521921
O44   O     O_R   0.719650 0.786970 0.806650 -0.510548
O45   O     O_R   0.757460 0.036290 0.196640 -0.494286
O46   O     O_R   0.242540 0.036290 0.803360 -0.495619
O47   O     O_R   0.257460 0.536290 0.196640 -0.494286
O48   O     O_R   0.742540 0.536290 0.803360 -0.495619
O49   O     O_R   0.663740 0.920540 0.179290 -0.508497
O50   O     O_R   0.336260 0.920540 0.820710 -0.515675
O51   O     O_R   0.163740 0.420540 0.179290 -0.508497
O52   O     O_R   0.836260 0.420540 0.820710 -0.515675
O53   O     O_3   0.644987 0.550477 0.528718 -0.551162
C97   C     C_3   0.599469 0.474537 0.560199 0.009036
H25   H     H_    0.626569 0.413349 0.600269 0.131940
H26   H     H_    0.568363 0.418287 0.520156 0.128779
C98   C     C_3   0.551670 0.553665 0.595374 -0.360653
H27   H     H_    0.525669 0.619342 0.557516 0.137622
H28   H     H_    0.512506 0.495726 0.616468 0.120959
H29   H     H_    0.581300 0.605173 0.638551 0.163218
O54   O     O_3   0.355957 0.402300 0.446439 -0.545323
C99   C     C_3   0.394861 0.510397 0.445083 -0.009357
H30   H     H_    0.420527 0.531272 0.498049 0.116724
H31   H     H_    0.362282 0.587297 0.424904 0.161740
C100  C     C_3   0.449315 0.495315 0.397312 -0.337830
H32   H     H_    0.425048 0.471208 0.344270 0.175232
H33   H     H_    0.478842 0.581806 0.394884 0.096022
H34   H     H_    0.485029 0.422768 0.417277 0.169462
O55   O     O_3   0.144987 0.050476 0.528718 -0.551162
C101  C     C_3   0.099469 0.974536 0.560199 0.009036
H35   H     H_    0.126570 0.913348 0.600269 0.131940
H36   H     H_    0.068364 0.918286 0.520157 0.128779
C102  C     C_3   0.051671 0.053663 0.595375 -0.360652
H37   H     H_    0.025669 0.119340 0.557517 0.137622
H38   H     H_    0.012507 0.995724 0.616469 0.120960
H39   H     H_    0.081300 0.105171 0.638552 0.163218
O56   O     O_3   0.855957 0.902299 0.446439 -0.545324
C103  C     C_3   0.894861 0.010396 0.445082 -0.009358
H40   H     H_    0.920527 0.031273 0.498048 0.116724
H41   H     H_    0.862282 0.087296 0.424903 0.161741
C104  C     C_3   0.949316 0.995314 0.397312 -0.337830
H42   H     H_    0.925049 0.971206 0.344270 0.175232
H43   H     H_    0.978842 0.081805 0.394883 0.096023
H44   H     H_    0.985029 0.922768 0.417278 0.169461
C105  C     C_3   0.882594 0.319016 0.477197 -0.377228
H45   H     H_    0.893817 0.242944 0.514339 0.102596
H46   H     H_    0.886767 0.288777 0.423913 0.152695
H47   H     H_    0.922831 0.390133 0.490037 0.130144
C106  C     C_3   0.112249 0.447854 0.560364 -0.377085
H48   H     H_    0.070947 0.470007 0.518082 0.130363
H49   H     H_    0.099251 0.359967 0.584183 0.165100
H50   H     H_    0.116461 0.520632 0.600100 0.133405
C107  C     C_3   0.382595 0.819018 0.477197 -0.377228
H51   H     H_    0.393818 0.742946 0.514339 0.102597
H52   H     H_    0.386767 0.788777 0.423913 0.152695
H53   H     H_    0.422830 0.890135 0.490036 0.130144
C108  C     C_3   0.612249 0.947855 0.560364 -0.377085
H54   H     H_    0.570947 0.970007 0.518082 0.130363
H55   H     H_    0.599250 0.859967 0.584183 0.165100
H56   H     H_    0.616461 0.020633 0.600100 0.133405
O57   O     O_3   0.603654 0.196482 0.008377 -0.554704
C109  C     C_3   0.615852 0.243657 0.942502 -0.015270
H57   H     H_    0.630288 0.341144 0.948034 0.144798
H58   H     H_    0.571640 0.238314 0.900939 0.154984
C110  C     C_3   0.670357 0.172776 0.913286 -0.371324
H59   H     H_    0.650356 0.079348 0.901420 0.158097
H60   H     H_    0.681856 0.215192 0.864052 0.098016
H61   H     H_    0.717686 0.171759 0.950697 0.175189
O58   O     O_3   0.325709 0.153510 0.987560 -0.555526
C111  C     C_3   0.298314 0.177346 0.049913 0.006038
H62   H     H_    0.315341 0.268022 0.070829 0.133176
H63   H     H_    0.314959 0.107852 0.090067 0.129270
C112  C     C_3   0.219787 0.179593 0.036962 -0.353193
H64   H     H_    0.195372 0.089160 0.035233 0.137197
H65   H     H_    0.199947 0.228833 0.079629 0.124294
H66   H     H_    0.201580 0.223060 0.986681 0.178486
O59   O     O_3   0.103654 0.696482 0.008377 -0.554704
C113  C     C_3   0.115852 0.743657 0.942502 -0.015270
H67   H     H_    0.130288 0.841144 0.948034 0.144798
H68   H     H_    0.071640 0.738314 0.900939 0.154984
C114  C     C_3   0.170357 0.672776 0.913286 -0.371324
H69   H     H_    0.150356 0.579348 0.901420 0.158097
H70   H     H_    0.181856 0.715191 0.864052 0.098016
H71   H     H_    0.217686 0.671759 0.950697 0.175189
O60   O     O_3   0.825709 0.653510 0.987560 -0.555526
C115  C     C_3   0.798314 0.677346 0.049913 0.006038
H72   H     H_    0.815341 0.768022 0.070829 0.133176
H73   H     H_    0.814959 0.607852 0.090067 0.129270
C116  C     C_3   0.719787 0.679593 0.036962 -0.353193
H74   H     H_    0.695372 0.589160 0.035233 0.137197
H75   H     H_    0.699947 0.728833 0.079629 0.124294
H76   H     H_    0.701580 0.723060 0.986681 0.178486

loop_
_geom_bond_atom_site_label_1
_geom_bond_atom_site_label_2
_ccdc_geom_bond_type
C58   C62   S    
C99   H31   S    
C74   O46   A    
Cr2   O22   S    
Cr11  O19   S    
C67   C83   S    
Cr10  O18   S    
C83   O43   A    
C98   H29   S    
C94   O54   S    
C17   C29   S    
O55   C101  S    
C14   C18   S    
C19   C23   S    
C35   C36   S    
C8    C96   S    
Cr1   O1    S    
C75   O51   A    
Cr6   O26   S    
C20   H10   S    
C48   O32   A    
C45   O33   A    
C45   C86   S    
Cr5   O17   S    
C38   C49   S    
Cr11  O39   S    
C104  H42   S    
C10   C22   S    
C105  H47   S    
C15   C19   S    
Cr2   O18   S    
O59   C113  S    
C106  H48   S    
C26   C30   S    
C101  H36   S    
C109  H58   S    
Cr7   O51   S    
C33   C42   S    
C72   O40   A    
C3    C30   S    
C77   O5    A    
C38   C42   S    
C106  H50   S    
Cr4   O24   S    
C78   O10   A    
C71   O3    A    
C116  H74   S    
Cr2   O42   S    
C11   C71   S    
C72   O4    A    
C99   C100  S    
C43   C79   S    
C110  H60   S    
C78   O6    A    
C107  H53   S    
C7    C27   S    
C98   H28   S    
O58   C111  S    
Cr6   O6    S    
C102  H39   S    
C57   C61   S    
C100  H33   S    
C9    C13   S    
C45   O29   A    
C50   H22   S    
C59   C67   T    
Cr12  O20   S    
C55   C74   S    
C11   C15   S    
C58   C66   T    
C97   C98   S    
C79   O11   A    
C12   C16   S    
C7    H3    S    
C6    C94   S    
C101  C102  S    
C55   C63   T    
Cr4   O44   S    
C111  H63   S    
C56   C64   T    
C114  H69   S    
C18   C30   S    
Cr1   O21   S    
Cr2   O46   S    
C18   C22   S    
C75   O47   A    
O57   C109  S    
C112  H66   S    
C116  H75   S    
C4    C29   S    
O54   C99   S    
C8    C12   S    
C46   C85   S    
C47   O31   A    
C19   C31   S    
C44   C52   S    
C113  C114  S    
C102  H38   S    
C99   H30   S    
Cr12  O36   S    
Cr5   O25   S    
C35   H19   S    
C2    O22   A    
C21   C105  S    
C87   C92   T    
C3    O27   A    
Cr10  O38   S    
C56   C73   S    
C36   H20   S    
C34   C41   S    
C53   C61   T    
Cr8   O28   S    
C21   C25   S    
C16   H8    S    
C28   C32   S    
C41   C49   S    
C82   O14   A    
Cr10  O10   S    
C52   H24   S    
C23   C27   S    
C84   O16   A    
C25   C29   S    
C51   H23   S    
C22   C106  S    
Cr11  O35   S    
C16   C96   S    
C111  C112  S    
Cr1   O41   S    
C101  H35   S    
C29   C93   S    
C27   C31   S    
C51   C52   S    
C68   C84   S    
C20   C24   S    
C107  H51   S    
C36   C40   S    
O56   C103  S    
C24   C108  S    
C10   C14   S    
C82   O42   A    
C91   C92   S    
C114  H70   S    
C27   H15   S    
C30   C94   S    
C39   C43   S    
C54   C62   T    
C80   O12   A    
Cr11  O15   S    
C14   H6    S    
Cr3   O19   S    
C1    C32   S    
Cr4   O20   S    
Cr8   O8    S    
Cr3   O23   S    
C2    C31   S    
C109  C110  S    
Cr6   O50   S    
C6    H2    S    
C100  H34   S    
C7    C11   S    
C17   C21   S    
C79   O7    A    
C103  C104  S    
Cr3   O47   S    
C108  H54   S    
Cr7   O7    S    
C110  H59   S    
C66   C82   S    
C47   O35   A    
Cr1   O45   S    
C100  H32   S    
C39   O59   S    
C88   C91   T    
C44   C80   S    
C16   C20   S    
Cr9   O13   S    
C33   H17   S    
C33   C34   S    
C48   C87   S    
Cr3   O3    S    
C1    O25   A    
C69   O37   A    
C1    O21   A    
C35   C44   S    
C69   O1    A    
Cr9   O37   S    
C42   C50   S    
C83   O15   A    
C10   C70   S    
C5    H1    S    
C4    O24   A    
Cr12  O12   S    
Cr6   O18   S    
C42   C78   S    
C89   C90   S    
C81   O13   A    
C25   H13   S    
C112  H65   S    
C22   C26   S    
C8    C28   S    
C15   H7    S    
C59   C63   S    
C85   C90   T    
C53   C76   S    
C105  H46   S    
C3    O23   A    
C9    C21   S    
C97   H26   S    
Cr4   O48   S    
C18   H12   S    
C115  H73   S    
O60   C115  S    
C19   H9    S    
Cr5   O49   S    
Cr6   O30   S    
C108  H55   S    
C33   C37   S    
C20   C32   S    
C104  H44   S    
Cr9   O17   S    
C38   O58   S    
C102  H37   S    
Cr5   O5    S    
C96   O56   S    
C46   O34   A    
Cr8   O52   S    
C34   C38   S    
Cr10  O34   S    
Cr7   O31   S    
Cr8   O20   S    
C24   C28   S    
C57   C65   T    
C76   O48   A    
C86   C89   T    
C4    O28   A    
Cr2   O2    S    
Cr8   O32   S    
C116  H76   S    
C5    C93   S    
C40   O60   S    
C28   H16   S    
C37   O57   S    
C74   O50   A    
Cr7   O19   S    
C108  H56   S    
C40   C51   S    
C7    C95   S    
C12   C24   S    
C103  H41   S    
C73   O49   A    
Cr10  O14   S    
C13   C17   S    
C34   H18   S    
C60   C64   S    
C47   C88   S    
C9    C69   S    
C114  H71   S    
Cr5   O29   S    
C115  H72   S    
C70   O38   A    
C104  H43   S    
C73   O45   A    
C32   C96   S    
C84   O44   A    
C95   O55   S    
C41   C77   S    
C37   C50   S    
Cr7   O27   S    
O53   C97   S    
C6    C26   S    
Cr9   O9    S    
C49   H21   S    
C43   C51   S    
Cr12  O40   S    
C31   C95   S    
C35   C39   S    
C111  H62   S    
C105  H45   S    
C11   C23   S    
C107  H52   S    
C8    H4    S    
Cr9   O33   S    
C39   C52   S    
C71   O39   A    
C23   C107  S    
C103  H40   S    
C37   C41   S    
C98   H27   S    
C12   C72   S    
Cr11  O11   S    
C77   O9    A    
C113  H67   S    
C6    C10   S    
C17   H11   S    
C54   C75   S    
C115  C116  S    
C40   C44   S    
C15   C95   S    
Cr3   O43   S    
C2    O26   A    
C60   C68   T    
C106  H49   S    
C49   C50   S    
C109  H57   S    
C110  H61   S    
C13   C93   S    
C70   O2    A    
Cr1   O17   S    
C65   C81   S    
C36   C43   S    
C80   O8    A    
C5    C9    S    
C26   H14   S    
C97   H25   S    
C112  H64   S    
C76   O52   A    
C113  H68   S    
C48   O36   A    
C14   C94   S    
C13   H5    S    
Cr4   O4    S    
C81   O41   A    
C46   O30   A    
Cr12  O16   S    
C5    C25   S    
C93   O53   S    
