data_mof_unit_30112.cif
_audit_creation_date              2012-12-10T18:19:57-0500
_audit_creation_method            fapswitch 2.2
_symmetry_space_group_name_H-M    P1
_symmetry_Int_Tables_number       1
_space_group_crystal_system       triclinic
_cell_length_a                    14.962215
_cell_length_b                    14.043234
_cell_length_c                    14.154307
_cell_angle_alpha                 90.011006
_cell_angle_beta                  89.618956
_cell_angle_gamma                 90.794489
_cell_volume                      2973.72137182

loop_
_atom_site_label
_atom_site_type_symbol
_atom_type_description
_atom_site_fract_x
_atom_site_fract_y
_atom_site_fract_z
_atom_type_partial_charge
C1    C     C_R   0.327022 0.499482 0.503272 0.956499
C2    C     C_R   0.959614 0.563098 0.336219 0.435870
C3    C     C_R   0.566846 0.798860 0.454827 0.064971
C4    C     C_R   0.433691 0.201046 0.545858 0.065270
C5    C     C_R   0.434713 0.797098 0.547038 0.063034
C6    C     C_R   0.567126 0.202984 0.455884 0.059455
C7    C     C_R   0.434495 0.897877 0.551723 -0.125243
C8    C     C_R   0.571771 0.102296 0.458035 -0.129523
C9    C     C_R   0.568662 0.900031 0.451711 -0.116266
C10   C     C_R   0.430263 0.099904 0.545768 -0.114838
C11   C     C_R   0.501213 0.949553 0.501342 -0.007313
C12   C     C_R   0.672817 0.500526 0.495253 1.013236
C13   C     C_R   0.500968 0.050473 0.501493 -0.005992
C14   C     C_R   0.369064 0.947617 0.604498 0.300132
C15   C     C_R   0.644584 0.052816 0.417289 0.297350
C16   C     C_R   0.637137 0.952508 0.403455 0.250154
C17   C     C_R   0.360180 0.047419 0.591049 0.241418
C18   C     C_R   0.499542 0.499982 0.329071 0.906263
C19   C     C_R   0.500398 0.500012 0.670930 0.939379
C20   C     C_1   0.499238 0.499940 0.227657 -0.125231
C21   C     C_1   0.500469 0.500044 0.772348 -0.125809
C22   C     C_1   0.499314 0.499947 0.142448 0.052432
C23   C     C_R   0.952933 0.500970 0.497689 -0.008011
C24   C     C_1   0.500241 0.500064 0.857558 0.051242
C25   C     C_1   0.499588 0.499997 0.042613 0.069912
C26   C     C_1   0.499878 0.500041 0.957394 0.071237
C27   C     C_R   0.815540 0.510477 0.408786 0.362551
C28   C     C_R   0.183895 0.487957 0.588583 0.379103
C29   C     C_R   0.768251 0.501459 0.494496 -0.161829
C30   C     C_R   0.231455 0.498555 0.503158 -0.196772
C31   C     C_R   0.811055 0.487283 0.580432 0.024551
C32   C     C_R   0.188164 0.512452 0.416932 0.021291
C33   C     C_R   0.903920 0.479442 0.580859 0.077297
C34   C     C_R   0.046499 0.497674 0.499570 -0.025993
C35   C     C_R   0.095529 0.519448 0.416671 0.085654
C36   C     C_R   0.908513 0.525984 0.412909 -0.131850
C37   C     C_R   0.090923 0.472325 0.584090 -0.112019
C38   C     C_R   0.947996 0.446073 0.660904 -0.244486
C39   C     C_R   0.051747 0.552783 0.336504 -0.183353
C40   C     C_R   0.039899 0.434656 0.660383 0.430902
H1    H     H_    0.910711 0.421163 0.721975 0.158700
H2    H     H_    0.763969 0.406199 0.689733 0.214957
H3    H     H_    0.277191 0.463718 0.319904 0.195516
H4    H     H_    0.280299 0.583581 0.336340 0.205742
H5    H     H_    0.966243 0.276344 0.803343 0.364647
H6    H     H_    0.964360 0.782444 0.199594 0.413463
H7    H     H_    0.233401 0.921424 0.822142 0.404649
H8    H     H_    0.887915 0.081705 0.380384 0.402871
H9    H     H_    0.697492 0.990635 0.202925 0.364708
H10   H     H_    0.165073 0.003988 0.561757 0.365130
H11   H     H_    0.089840 0.578297 0.276013 0.218718
H12   H     H_    0.619601 0.757506 0.423811 0.206958
H13   H     H_    0.385220 0.242250 0.584283 0.206533
H14   H     H_    0.382262 0.754904 0.579455 0.225451
H15   H     H_    0.616037 0.245139 0.417958 0.224214
H16   H     H_    0.667728 0.361752 0.263252 0.382135
H17   H     H_    0.335933 0.627072 0.738138 0.397708
H18   H     H_    0.782076 0.523495 0.716352 0.213664
N1    N     N_R   0.500000 0.750030 0.500000 -0.143188
N2    N     N_R   0.500000 0.249970 0.500000 -0.142591
N3    N     N_3   0.758245 0.476017 0.665168 -0.461731
N4    N     N_3   0.238075 0.523994 0.330316 -0.439002
O1    O     O_R   0.367850 0.580280 0.500020 -0.596737
O2    O     O_2   0.831618 0.441835 0.230138 -0.216298
O3    O     O_3   0.697012 0.376518 0.324182 -0.546975
O4    O     O_2   0.167679 0.553171 0.768373 -0.218087
O5    O     O_2   0.290256 0.442832 0.735142 -0.268193
O6    O     O_3   0.304717 0.616947 0.677408 -0.538728
O7    O     O_2   0.166178 0.307052 0.701853 -0.139943
O8    O     O_2   0.096951 0.390001 0.835435 -0.213605
O9    O     O_3   0.005333 0.258444 0.749638 -0.479390
O10   O     O_2   0.908130 0.600364 0.158034 -0.200332
O11   O     O_2   0.830362 0.685289 0.285578 -0.179721
O12   O     O_R   0.632150 0.419720 0.499980 -0.572183
O13   O     O_3   0.992303 0.736902 0.243517 -0.531179
O14   O     O_2   0.231205 0.832878 0.653546 -0.249228
O15   O     O_2   0.369248 0.817346 0.743970 -0.306289
O16   O     O_3   0.270692 0.961587 0.779471 -0.425571
O17   O     O_2   0.744609 0.162979 0.301475 -0.259505
O18   O     O_2   0.762361 0.189706 0.471263 -0.277443
O19   O     O_3   0.835793 0.041736 0.399447 -0.425920
O20   O     O_2   0.784048 0.850711 0.374260 -0.171535
O21   O     O_2   0.658197 0.816332 0.269504 -0.280093
O22   O     O_3   0.750114 0.969388 0.238986 -0.424780
O23   O     O_R   0.632150 0.580280 0.499980 -0.624974
O24   O     O_2   0.270743 0.150645 0.717387 -0.145690
O25   O     O_2   0.236749 0.180375 0.551064 -0.299545
O26   O     O_3   0.171721 0.027898 0.627220 -0.403830
O27   O     O_R   0.367850 0.419720 0.500020 -0.612599
O28   O     O_R   0.500000 0.580290 0.373720 -0.592108
O29   O     O_R   0.500000 0.419710 0.626280 -0.594678
O30   O     O_R   0.500000 0.580290 0.626280 -0.589898
O31   O     O_R   0.500000 0.419710 0.373720 -0.607190
O32   O     O_2   0.706678 0.549414 0.262362 -0.261166
S1    S     S_3+6 0.763140 0.471539 0.301998 0.082541
S2    S     S_3+6 0.236189 0.523221 0.696633 0.080357
S3    S     S_3+6 0.080979 0.347775 0.739331 0.144766
S4    S     S_3+6 0.918203 0.646205 0.253363 0.123789
S5    S     S_3+6 0.308597 0.886629 0.696196 0.083880
S6    S     S_3+6 0.748057 0.115162 0.396350 0.090200
S7    S     S_3+6 0.708334 0.893945 0.320791 0.112879
S8    S     S_3+6 0.258693 0.104906 0.622301 0.127288
Zn1   Zn    Zn3+2 0.500000 0.607200 0.500000 1.011158
Zn2   Zn    Zn3+2 0.500000 0.392800 0.500000 1.012623

loop_
_geom_bond_atom_site_label_1
_geom_bond_atom_site_label_2
_ccdc_geom_bond_type
C39   H11   S    
C8    C13   A    
C12   O12   A    
C12   C29   S    
H5    O9    S    
C34   C37   A    
C31   N3    S    
C27   S1    S    
O29   Zn2   S    
C14   S5    S    
O10   S4    D    
O14   S5    D    
C7    C11   A    
O9    S3    S    
O6    S2    S    
C12   O23   A    
H9    O22   S    
O4    S2    D    
C19   C21   S    
C9    C16   A    
C24   C26   S    
C37   C40   A    
C4    H13   S    
C27   C29   A    
C10   C17   A    
H16   O3    S    
H8    O19   S    
C34   C35   A    
C19   O30   A    
O30   Zn1   S    
C2    C39   A    
C7    C14   A    
C23   C33   A    
C22   C25   S    
C31   C33   A    
C30   C32   A    
C15   S6    S    
O23   Zn1   S    
O8    S3    D    
H10   O26   S    
H18   N3    S    
O18   S6    D    
O22   S7    S    
C14   C17   A    
C6    H15   S    
C1    O1    A    
O31   Zn2   S    
H6    O13   S    
O11   S4    D    
C5    N1    A    
C18   O28   A    
C32   C35   A    
C6    N2    A    
C5    H14   S    
C38   H1    S    
O1    Zn1   S    
C40   S3    S    
C5    C7    A    
C6    C8    A    
H4    N4    S    
C25   C26   T    
O13   S4    S    
C35   C39   A    
C17   S8    S    
C3    C9    A    
O25   S8    D    
O17   S6    D    
C23   C34   A    
C4    N2    A    
C9    C11   A    
H2    N3    S    
C20   C22   T    
C8    C15   A    
O27   Zn2   S    
O5    S2    D    
H17   O6    S    
C4    C10   A    
O24   S8    D    
O12   Zn2   S    
C2    C36   A    
C1    O27   A    
O21   S7    D    
O2    S1    D    
C10   C13   A    
O26   S8    S    
C3    H12   S    
O19   S6    S    
C27   C36   A    
C33   C38   A    
C28   S2    S    
N1    Zn1   S    
C28   C30   A    
C32   N4    S    
C29   C31   A    
C38   C40   A    
C11   C13   A    
C28   C37   A    
C1    C30   S    
O20   S7    D    
O15   S5    D    
C18   C20   S    
O32   S1    D    
O28   Zn1   S    
C19   O29   A    
C16   S7    S    
O3    S1    S    
C2    S4    S    
C23   C36   A    
C21   C24   T    
O16   S5    S    
C18   O31   A    
H7    O16   S    
N2    Zn2   S    
C15   C16   A    
H3    N4    S    
O7    S3    D    
C3    N1    A    
