data_mof_unit_25999.cif
_audit_creation_date              2012-12-10T17:34:52-0500
_audit_creation_method            fapswitch 2.2
_symmetry_space_group_name_H-M    P1
_symmetry_Int_Tables_number       1
_space_group_crystal_system       triclinic
_cell_length_a                    12.104957
_cell_length_b                    12.866114
_cell_length_c                    15.722864
_cell_angle_alpha                 93.254534
_cell_angle_beta                  86.648734
_cell_angle_gamma                 94.218188
_cell_volume                      2434.54012753

loop_
_atom_site_label
_atom_site_type_symbol
_atom_type_description
_atom_site_fract_x
_atom_site_fract_y
_atom_site_fract_z
_atom_type_partial_charge
C1    C     C_R   0.521688 0.699944 0.494331 0.884186
C2    C     C_R   0.532877 0.812037 0.488575 -0.093642
C3    C     C_R   0.620324 0.972964 0.544720 -0.252431
C4    C     C_R   0.500705 0.503842 0.661593 0.910741
C5    C     C_R   0.619411 0.866769 0.529697 -0.243841
C6    C     C_R   0.448730 0.865186 0.454065 -0.088141
C7    C     C_R   0.450611 0.973987 0.467651 0.131900
C8    C     C_R   0.535609 0.026396 0.515652 0.177592
C9    C     C_R   0.537920 0.132866 0.531438 -0.276469
C10   C     C_R   0.375524 0.139638 0.449199 -0.209729
C11   C     C_R   0.370572 0.032346 0.434634 -0.238798
C12   C     C_3   0.399894 0.544093 0.060135 -0.439984
C13   C     C_R   0.955322 0.405201 0.416875 -0.381243
C14   C     C_R   0.839626 0.409512 0.427300 0.119079
C15   C     C_R   0.860634 0.542250 0.537579 0.032103
C16   C     C_R   0.477146 0.300113 0.500666 0.873931
C17   C     C_R   0.978329 0.536812 0.530501 0.054764
C18   C     C_R   0.025100 0.468451 0.468178 0.067614
C19   C     C_R   0.141009 0.461080 0.461427 -0.026956
C20   C     C_R   0.164878 0.585809 0.576598 0.036861
C21   C     C_R   0.050751 0.595748 0.585482 -0.342942
C22   C     C_R   0.498591 0.493906 0.338306 0.905069
C23   C     C_3   0.492978 0.473354 0.081554 0.253121
C24   C     C_3   0.404550 0.562128 0.963579 -0.402493
C25   C     C_3   0.608464 0.539130 0.952280 -0.485434
C26   C     C_3   0.608600 0.523700 0.049306 -0.112199
C27   C     C_1   0.494123 0.477360 0.249201 -0.190130
C28   C     C_3   0.495057 0.497906 0.917270 0.279912
C29   C     C_R   0.530845 0.272115 0.054805 0.121083
C30   C     C_R   0.642229 0.261138 0.025027 -0.185711
C31   C     C_R   0.693508 0.169494 0.035929 -0.136229
C32   C     C_R   0.634798 0.086613 0.075347 -0.128214
C33   C     C_R   0.524779 0.095528 0.105080 -0.159074
C34   C     C_3   0.466242 0.364426 0.033171 -0.192912
C35   C     C_R   0.473354 0.187633 0.095519 -0.149172
C36   C     C_R   0.357784 0.806952 0.407440 0.131174
C37   C     C_R   0.381269 0.751420 0.329816 -0.142950
C38   C     C_R   0.296432 0.692164 0.288888 -0.109093
C39   C     C_R   0.187981 0.688043 0.324879 -0.109919
C40   C     C_R   0.163972 0.743178 0.402020 -0.135802
C41   C     C_R   0.248532 0.801923 0.443546 -0.133867
C42   C     C_R   0.773468 0.325295 0.383290 0.188737
C43   C     C_R   0.767780 0.224555 0.414200 -0.153529
C44   C     C_R   0.715156 0.140764 0.368462 -0.147398
C45   C     C_3   0.474049 0.379309 0.934809 -0.156733
C46   C     C_R   0.665650 0.157451 0.293057 -0.102719
C47   C     C_R   0.674071 0.257026 0.260976 -0.156057
C48   C     C_R   0.731316 0.339836 0.304285 -0.142803
C49   C     C_R   0.814846 0.609098 0.608084 0.197557
C50   C     C_R   0.826982 0.717704 0.602380 -0.201222
C51   C     C_R   0.810753 0.783934 0.675101 -0.175150
C52   C     C_R   0.784665 0.742047 0.754291 -0.108011
C53   C     C_R   0.777455 0.634089 0.761060 -0.164111
C54   C     C_R   0.793330 0.567765 0.688617 -0.115525
C55   C     C_R   0.649342 0.621808 0.101950 0.157595
C56   C     C_1   0.491003 0.467890 0.173579 -0.109472
C57   C     C_R   0.729529 0.613410 0.162374 -0.167300
C58   C     C_R   0.758912 0.697591 0.218643 -0.115202
C59   C     C_R   0.709077 0.791541 0.215417 -0.124813
C60   C     C_R   0.631740 0.802040 0.154627 -0.177039
C61   C     C_R   0.603656 0.718794 0.097092 -0.153047
C62   C     C_R   0.377662 0.322396 0.887815 0.147702
C63   C     C_R   0.265547 0.334757 0.913471 -0.156418
C64   C     C_R   0.180324 0.283918 0.867235 -0.144718
C65   C     C_R   0.205340 0.220221 0.794880 -0.104988
C66   C     C_R   0.315729 0.206714 0.768771 -0.121666
C67   C     C_1   0.499029 0.509514 0.826321 -0.093573
C68   C     C_R   0.401266 0.256963 0.814914 -0.155156
C69   C     C_1   0.501135 0.509442 0.750795 -0.173036
C70   C     C_R   0.460516 0.189093 0.496190 -0.024234
H1    H     H_    0.405706 0.619990 0.096979 0.175420
H2    H     H_    0.990356 0.348533 0.371186 0.149761
H3    H     H_    0.021046 0.648862 0.635937 0.167818
H4    H     H_    0.675939 0.495349 0.919334 0.143530
H5    H     H_    0.626358 0.622565 0.938046 0.178789
H6    H     H_    0.669715 0.466032 0.057801 0.114870
H7    H     H_    0.549812 0.344145 0.906699 0.124121
H8    H     H_    0.378302 0.342659 0.052659 0.130635
H9    H     H_    0.689192 0.320178 0.989334 0.110047
H10   H     H_    0.778443 0.161996 0.012170 0.125079
H11   H     H_    0.675064 0.015704 0.082666 0.125342
H12   H     H_    0.322383 0.541870 0.937020 0.173739
H13   H     H_    0.479172 0.031063 0.135695 0.122553
H14   H     H_    0.387525 0.191730 0.118234 0.116513
H15   H     H_    0.316146 0.184321 0.420770 0.148359
H16   H     H_    0.305883 0.996699 0.395722 0.151572
H17   H     H_    0.465225 0.752889 0.301836 0.124753
H18   H     H_    0.314789 0.648448 0.229758 0.118697
H19   H     H_    0.122674 0.641632 0.293257 0.117250
H20   H     H_    0.080079 0.739423 0.430134 0.129411
H21   H     H_    0.229352 0.842656 0.504190 0.121332
H22   H     H_    0.805336 0.210852 0.473063 0.115991
H23   H     H_    0.316928 0.507174 0.079575 0.157025
H24   H     H_    0.712427 0.062982 0.391493 0.143358
H25   H     H_    0.622572 0.092712 0.259244 0.134773
H26   H     H_    0.637910 0.270446 0.202143 0.170660
H27   H     H_    0.742604 0.415052 0.276384 0.131737
H28   H     H_    0.853716 0.750937 0.542132 0.120986
H29   H     H_    0.820477 0.867731 0.670208 0.128938
H30   H     H_    0.773315 0.793179 0.810719 0.125153
H31   H     H_    0.763832 0.602002 0.822809 0.125610
H32   H     H_    0.792971 0.484443 0.695623 0.120568
H33   H     H_    0.767407 0.540621 0.167629 0.104170
H34   H     H_    0.603353 0.172949 0.567814 0.142124
H35   H     H_    0.819107 0.689343 0.265659 0.125455
H36   H     H_    0.730274 0.856171 0.259994 0.124301
H37   H     H_    0.592072 0.874300 0.152897 0.120729
H38   H     H_    0.545003 0.730496 0.050052 0.123559
H39   H     H_    0.242855 0.382900 0.969321 0.111258
H40   H     H_    0.094626 0.294051 0.887559 0.120831
H41   H     H_    0.139158 0.181258 0.759085 0.119184
H42   H     H_    0.335166 0.157494 0.712529 0.133736
H43   H     H_    0.486181 0.245810 0.792738 0.111382
H44   H     H_    0.686827 0.013168 0.579692 0.137649
H45   H     H_    0.682467 0.826467 0.555256 0.179936
H46   H     H_    0.178129 0.408144 0.413875 0.113157
H47   H     H_    0.423595 0.646478 0.953182 0.168030
H48   H     H_    0.219634 0.631206 0.618757 0.130253
N1    N     N_R   0.207800 0.519340 0.515510 -0.095265
N2    N     N_R   0.792190 0.480660 0.484490 -0.135782
O1    O     O_R   0.421690 0.658830 0.504140 -0.607828
O2    O     O_R   0.609320 0.646410 0.494190 -0.619686
O3    O     O_R   0.406150 0.506210 0.627840 -0.615131
O4    O     O_R   0.593770 0.493790 0.617880 -0.619917
O5    O     O_R   0.390680 0.353590 0.505810 -0.629126
O6    O     O_R   0.578310 0.341170 0.495860 -0.614028
O7    O     O_R   0.406230 0.506210 0.382120 -0.612117
O8    O     O_R   0.593850 0.493790 0.372160 -0.620684
Zn1   Zn    Zn3+2 0.374720 0.508290 0.506640 0.954176
Zn2   Zn    Zn3+2 0.625280 0.491710 0.493360 0.945817

loop_
_geom_bond_atom_site_label_1
_geom_bond_atom_site_label_2
_ccdc_geom_bond_type
C66   C68   A    
C10   H15   S    
C26   C55   S    
C20   H48   S    
C57   C58   A    
C23   C56   S    
C53   C54   A    
C25   C28   S    
C7    C11   A    
C48   H27   S    
C12   C23   S    
C24   H47   S    
C62   C63   A    
C13   C18   A    
N2    Zn2   S    
O2    Zn2   S    
C36   C37   A    
C37   C38   A    
C25   H4    S    
C30   C31   A    
O6    Zn2   S    
C11   H16   S    
C49   C54   A    
C21   H3    S    
C45   C62   S    
C15   N2    A    
C4    O4    A    
C18   C19   A    
C23   C26   S    
C61   H38   S    
C24   H12   S    
C1    O2    A    
C65   H41   S    
N1    Zn1   S    
C64   H40   S    
C46   H25   S    
C47   C48   A    
C53   H31   S    
C8    C9    A    
C26   H6    S    
C47   H26   S    
C16   O5    A    
C68   H43   S    
C14   C42   S    
C19   N1    A    
C59   C60   A    
C13   C14   A    
C5    H45   S    
C36   C41   A    
C2    C6    A    
C4    C69   S    
C44   C46   A    
C50   C51   A    
C51   H29   S    
C57   H33   S    
C28   C45   S    
C50   H28   S    
C59   H36   S    
C51   C52   A    
C7    C8    A    
C28   C67   S    
C16   C70   S    
C9    C70   A    
C31   H10   S    
C3    C8    A    
C39   C40   A    
C27   C56   T    
C58   C59   A    
C29   C34   S    
C52   H30   S    
C17   C21   A    
C4    O3    A    
C38   H18   S    
C60   C61   A    
C25   H5    S    
C63   H39   S    
C43   C44   A    
O7    Zn1   S    
C29   C30   A    
C32   H11   S    
C22   O8    A    
C31   C32   A    
C23   C34   S    
C17   C18   A    
O4    Zn2   S    
C34   C45   S    
C42   C48   A    
C33   H13   S    
C60   H37   S    
C30   H9    S    
C10   C70   A    
C40   C41   A    
C41   H21   S    
C12   H1    S    
C49   C50   A    
C14   N2    A    
C22   C27   S    
C55   C57   A    
C12   H23   S    
C2    C5    A    
C42   C43   A    
C55   C61   A    
C52   C53   A    
C15   C17   A    
C12   C24   S    
C46   C47   A    
C54   H32   S    
C37   H17   S    
C24   C28   S    
O1    Zn1   S    
C3    C5    A    
C3    H44   S    
O8    Zn2   S    
C66   H42   S    
C35   H14   S    
C6    C7    A    
C13   H2    S    
C29   C35   A    
C43   H22   S    
C62   C68   A    
C58   H35   S    
C40   H20   S    
C64   C65   A    
C25   C26   S    
C34   H8    S    
C22   O7    A    
C38   C39   A    
C19   H46   S    
C9    H34   S    
C1    C2    S    
C33   C35   A    
C6    C36   S    
C15   C49   S    
C32   C33   A    
C1    O1    A    
C44   H24   S    
C10   C11   A    
C63   C64   A    
O5    Zn1   S    
C20   C21   A    
C65   C66   A    
C45   H7    S    
C67   C69   T    
C16   O6    A    
C39   H19   S    
C20   N1    A    
O3    Zn1   S    
