data_mof_unit_30524.cif
_audit_creation_date              2012-12-11T14:08:23-0500
_audit_creation_method            fapswitch 2.2
_symmetry_space_group_name_H-M    P1
_symmetry_Int_Tables_number       1
_space_group_crystal_system       triclinic
_cell_length_a                    27.989636
_cell_length_b                    7.180274
_cell_length_c                    17.382279
_cell_angle_alpha                 89.78508
_cell_angle_beta                  100.619418
_cell_angle_gamma                 89.787814
_cell_volume                      3433.48354717

loop_
_atom_site_label
_atom_site_type_symbol
_atom_type_description
_atom_site_fract_x
_atom_site_fract_y
_atom_site_fract_z
_atom_type_partial_charge
O1    O     O_R   0.000700 0.436510 0.857920 -0.534945
O2    O     O_R   0.999300 0.563490 0.142080 -0.530342
O3    O     O_R   0.999300 0.936510 0.642080 -0.534937
O4    O     O_R   0.000700 0.063490 0.357920 -0.528393
O5    O     O_R   0.930080 0.766380 0.721890 -0.524192
O6    O     O_R   0.069920 0.233620 0.278110 -0.526719
O7    O     O_R   0.069920 0.266380 0.778110 -0.531087
O8    O     O_R   0.930080 0.733620 0.221890 -0.527077
C1    C     C_R   0.910183 0.597263 0.711132 0.754336
C2    C     C_R   0.089613 0.401749 0.290905 0.760969
C3    C     C_R   0.089388 0.097946 0.790342 0.764342
C4    C     C_R   0.910256 0.902963 0.208626 0.754817
O9    O     O_R   0.996180 0.766230 0.862310 -0.520991
O10   O     O_R   0.003820 0.233770 0.137690 -0.522896
O11   O     O_R   0.003820 0.266230 0.637690 -0.519046
O12   O     O_R   0.996180 0.733770 0.362310 -0.525185
O13   O     O_R   0.065870 0.936460 0.783500 -0.531613
O14   O     O_R   0.934130 0.063540 0.216500 -0.524185
O15   O     O_R   0.934130 0.436460 0.716500 -0.525177
O16   O     O_R   0.065870 0.563540 0.283500 -0.522430
C5    C     C_R   0.998073 0.595449 0.894077 0.748057
C6    C     C_R   0.000693 0.404545 0.105500 0.764846
C7    C     C_R   0.001752 0.095855 0.605773 0.778715
C8    C     C_R   0.999137 0.904257 0.394540 0.760726
O17   O     O_3   0.022790 0.603020 0.723980 -0.370054
O18   O     O_3   0.977210 0.396980 0.276020 -0.359368
O19   O     O_3   0.977210 0.103020 0.776020 -0.357602
O20   O     O_3   0.022790 0.896980 0.223980 -0.356830
V1    V     V_3+5 0.995770 0.877900 0.754830 1.615123
V2    V     V_3+5 0.004230 0.122100 0.245170 1.633135
V3    V     V_3+5 0.004230 0.377900 0.745170 1.611727
V4    V     V_3+5 0.995770 0.622100 0.254830 1.627019
C9    C     C_2   0.995938 0.080810 0.519236 -0.032233
C10   C     C_2   0.006777 0.921304 0.481408 -0.039278
C11   C     C_2   0.003809 0.579877 0.980443 -0.039119
C12   C     C_2   0.992806 0.421776 0.018718 -0.034909
C13   C     C_R   0.684891 0.934239 0.008382 0.675364
C14   C     C_R   0.321803 0.217960 0.924622 0.651859
C15   C     C_R   0.312261 0.460744 0.488603 0.684408
C16   C     C_R   0.681158 0.574812 0.544581 0.665839
O21   O     O_2   0.716214 0.883126 0.961960 -0.491175
O22   O     O_2   0.294881 0.363438 0.941060 -0.487684
O23   O     O_2   0.279189 0.468481 0.535952 -0.484046
O24   O     O_2   0.711201 0.622555 0.495490 -0.485459
N1    N     N_R   0.702412 0.962869 0.086723 -0.531935
N2    N     N_R   0.299366 0.079585 0.876752 -0.536020
N3    N     N_R   0.296250 0.435628 0.410074 -0.540118
N4    N     N_R   0.700596 0.548919 0.622106 -0.535374
C17   C     C_R   0.671212 0.007956 0.136289 0.643452
C18   C     C_R   0.326184 0.937662 0.853062 0.659052
C19   C     C_R   0.328217 0.412571 0.360164 0.644894
C20   C     C_R   0.671728 0.508308 0.675292 0.648077
C21   C     C_R   0.779927 0.099996 0.159726 -0.010540
C22   C     C_R   0.223754 0.093233 0.772117 -0.039927
C23   C     C_R   0.221669 0.575628 0.330509 -0.024015
C24   C     C_R   0.773921 0.716035 0.693158 -0.042365
C25   C     C_R   0.828966 0.073996 0.197598 0.037672
C26   C     C_R   0.172099 0.093634 0.752090 0.010218
C27   C     C_R   0.171681 0.559885 0.296931 0.039292
C28   C     C_R   0.825245 0.720600 0.718574 0.035351
C29   C     C_R   0.830829 0.776255 0.131391 0.106290
C30   C     C_R   0.166806 0.097730 0.889873 0.098348
C31   C     C_R   0.167810 0.268534 0.368707 0.119951
C32   C     C_R   0.832731 0.436167 0.644754 0.123648
C33   C     C_R   0.780585 0.790346 0.105015 -0.118729
C34   C     C_R   0.217433 0.086628 0.909730 -0.094223
C35   C     C_R   0.217637 0.279905 0.397033 -0.110079
C36   C     C_R   0.782281 0.426862 0.625197 -0.110596
C37   C     C_R   0.754555 0.951348 0.117189 0.294487
C38   C     C_R   0.246659 0.083685 0.852238 0.289513
C39   C     C_R   0.244661 0.431798 0.379480 0.296175
C40   C     C_R   0.752645 0.564939 0.647422 0.305340
C41   C     C_R   0.603216 0.013756 0.027096 -0.052900
C42   C     C_R   0.400541 0.073752 0.924942 -0.052320
C43   C     C_R   0.396030 0.453792 0.468565 -0.054972
C44   C     C_R   0.599989 0.517380 0.571849 -0.042520
C45   C     C_R   0.634427 0.956392 0.976467 -0.082902
C46   C     C_R   0.372750 0.211184 0.954823 -0.097948
C47   C     C_R   0.362838 0.472833 0.519878 -0.070251
C48   C     C_R   0.630269 0.556848 0.516783 -0.093715
C49   C     C_R   0.614052 0.929366 0.895807 -0.082247
C50   C     C_R   0.397416 0.341923 0.009826 -0.068257
C51   C     C_R   0.381352 0.491556 0.600822 -0.053561
C52   C     C_R   0.608204 0.592284 0.437695 -0.072399
C53   C     C_R   0.621932 0.045494 0.106794 -0.022289
C54   C     C_R   0.377288 0.939019 0.872451 -0.028808
C55   C     C_R   0.378424 0.423487 0.388075 -0.030299
C56   C     C_R   0.621016 0.497183 0.651559 -0.020831
C57   C     C_R   0.856084 0.915692 0.180315 -0.125848
C58   C     C_R   0.143400 0.091139 0.811106 -0.114914
C59   C     C_R   0.143564 0.409225 0.318296 -0.126232
C60   C     C_R   0.855649 0.585490 0.690946 -0.128205
H1    H     H_    0.761858 0.677179 0.071405 0.204650
H2    H     H_    0.234470 0.086996 0.970950 0.178329
H3    H     H_    0.235735 0.170116 0.434495 0.181194
H4    H     H_    0.765483 0.311399 0.590512 0.173278
C61   C     C_R   0.480239 0.954372 0.907266 0.092555
C62   C     C_R   0.523635 0.132944 0.044479 0.066882
C63   C     C_R   0.517802 0.474759 0.604208 0.079451
C64   C     C_R   0.478653 0.475995 0.442492 0.062379
C65   C     C_R   0.474817 0.179073 0.010528 0.009419
C66   C     C_R   0.531803 0.970869 0.924155 0.018305
C67   C     C_R   0.528100 0.520651 0.467705 0.006702
C68   C     C_R   0.465721 0.465364 0.579113 0.028330
C69   C     C_R   0.451829 0.069402 0.947597 0.064626
C70   C     C_R   0.552940 0.039781 0.998364 0.056375
C71   C     C_R   0.548582 0.500778 0.547735 0.050212
C72   C     C_R   0.446925 0.467611 0.497127 0.049726
C73   C     C_R   0.456320 0.818169 0.856589 -0.095989
C74   C     C_R   0.542866 0.161936 0.124148 -0.088674
C75   C     C_R   0.540601 0.476382 0.683580 -0.077340
C76   C     C_R   0.460683 0.425811 0.364310 -0.109444
C77   C     C_R   0.405639 0.807714 0.841071 -0.089538
C78   C     C_R   0.591002 0.114733 0.155284 -0.082167
C79   C     C_R   0.590869 0.476484 0.706592 -0.105802
C80   C     C_R   0.411333 0.401704 0.337256 -0.084429
O25   O     O_2   0.303547 0.796721 0.810072 -0.499125
O26   O     O_2   0.687961 0.018638 0.214081 -0.511216
O27   O     O_2   0.692041 0.480408 0.751109 -0.497778
O28   O     O_2   0.311362 0.379773 0.283569 -0.494723
C81   C     C_R   0.562875 0.929397 0.870411 0.063147
C82   C     C_R   0.448325 0.328139 0.035881 0.070079
C83   C     C_R   0.430841 0.452363 0.630211 0.071670
C84   C     C_R   0.557317 0.592106 0.415867 0.073206
H5    H     H_    0.388769 0.698628 0.803100 0.160804
H6    H     H_    0.604187 0.137245 0.217129 0.185290
H7    H     H_    0.605900 0.472048 0.768663 0.171751
H8    H     H_    0.399097 0.368695 0.276037 0.193798
H9    H     H_    0.476710 0.713128 0.831853 0.158890
H10   H     H_    0.520108 0.211940 0.163735 0.166813
H11   H     H_    0.520964 0.491628 0.730128 0.168755
H12   H     H_    0.484971 0.401328 0.323633 0.168155
I1    I     I_    0.959673 0.318460 0.461034 -0.233274
I2    I     I_    0.049990 0.699442 0.540921 -0.227159
I3    I     I_    0.039992 0.814210 0.038070 -0.223135
I4    I     I_    0.948910 0.204425 0.959938 -0.226732
I5    I     I_    0.864594 0.546108 0.085704 -0.294498
I6    I     I_    0.128595 0.152750 0.981552 -0.285435
I7    I     I_    0.133843 0.033560 0.410332 -0.282950
I8    I     I_    0.868313 0.212150 0.598130 -0.285222
C85   C     C_2   0.644987 0.916066 0.835589 0.591799
H13   H     H_    0.640985 0.800010 0.795265 0.054998
O29   O     O_2   0.673153 0.041225 0.827862 -0.472437
C86   C     C_2   0.371150 0.490808 0.043659 0.572589
H14   H     H_    0.378271 0.635963 0.032515 0.046610
O30   O     O_2   0.342627 0.451689 0.086521 -0.473308
C87   C     C_2   0.350316 0.559084 0.655607 0.564133
H15   H     H_    0.348023 0.483497 0.708764 0.110560
O31   O     O_2   0.327813 0.705275 0.642314 -0.474879
C88   C     C_2   0.636877 0.631098 0.375956 0.577711
H16   H     H_    0.635664 0.767946 0.348946 0.082247
O32   O     O_2   0.661052 0.507730 0.353467 -0.480368
I9    I     I_    0.136490 0.124793 0.633068 -0.310845
I10   I     I_    0.858935 0.268906 0.286178 -0.275738
I11   I     I_    0.854996 0.922652 0.804913 -0.264826
I12   I     I_    0.141111 0.760583 0.210241 -0.274614
C89   C     C_2   0.252981 0.110814 0.709235 0.562773
H17   H     H_    0.239503 0.056338 0.651281 0.107035
O33   O     O_2   0.292159 0.189833 0.720844 -0.519271
C90   C     C_2   0.756093 0.285504 0.161437 0.479969
H18   H     H_    0.765596 0.377988 0.210833 0.101804
O34   O     O_2   0.726016 0.340068 0.105829 -0.524494
C91   C     C_2   0.742804 0.870737 0.712911 0.477994
H19   H     H_    0.753404 0.951053 0.765771 0.138157
O35   O     O_2   0.705059 0.913859 0.669103 -0.515820
C92   C     C_2   0.249807 0.743263 0.315411 0.480215
H20   H     H_    0.241737 0.816367 0.259933 0.100466
O36   O     O_2   0.282163 0.804215 0.365755 -0.517412
I13   I     I_    0.535364 0.932240 0.746367 -0.410573
I14   I     I_    0.485770 0.563039 0.095040 -0.418502
I15   I     I_    0.441722 0.312956 0.742136 -0.423503
I16   I     I_    0.526077 0.758814 0.315413 -0.393348

loop_
_geom_bond_atom_site_label_1
_geom_bond_atom_site_label_2
_ccdc_geom_bond_type
O17   V3    S    
C81   I13   S    
O1    C5    A    
C89   H17   S    
C62   C74   A    
C23   C27   A    
O19   V1    S    
C18   O25   S    
O13   V1    S    
O3    C7    A    
C87   H15   S    
C76   C80   A    
C48   C52   A    
O15   V3    S    
O4    V2    S    
C92   O36   D    
C68   C83   A    
O7    C3    A    
C24   C91   S    
C36   H4    S    
C25   C57   A    
C54   C77   A    
C32   C36   A    
O9    V1    S    
C53   C78   A    
C91   O35   D    
O10   V2    S    
C14   O22   S    
N4    C20   A    
C85   O29   D    
C32   I8    S    
C78   H6    S    
C33   C37   A    
C77   H5    S    
C10   I2    S    
O1    V3    S    
C79   H7    S    
O2    V4    S    
O3    V1    S    
C1    O15   A    
C11   C12   D    
C2    O16   A    
C24   C40   A    
C22   C38   A    
O2    C6    A    
C16   C48   A    
C66   C70   A    
C52   C84   A    
O14   V2    S    
N1    C17   A    
O8    C4    A    
C66   C81   A    
C44   C56   A    
C61   C66   A    
C73   C77   A    
C34   H2    S    
C61   C69   A    
O11   C7    A    
C63   C68   A    
C21   C37   A    
C43   C72   A    
O12   C8    A    
C35   H3    S    
C31   C59   A    
N4    C40   S    
C67   C84   A    
C12   I4    S    
C1    C60   S    
C29   C57   A    
C19   O28   S    
O5    V1    S    
C28   C60   A    
C65   C69   A    
C31   C35   A    
C64   C72   A    
O7    V3    S    
C30   C34   A    
N1    C37   S    
O8    V4    S    
C17   C53   A    
C4    C57   S    
C20   C56   A    
C86   O30   D    
C19   C55   A    
C21   C25   A    
O18   V4    S    
N3    C19   A    
C14   C46   A    
C7    C9    S    
C13   C45   A    
C64   C67   A    
C8    C10   S    
C24   C28   A    
C49   C81   A    
C76   H12   S    
C90   O34   D    
C80   H8    S    
O5    C1    A    
C26   I9    S    
C9    I1    S    
C61   C73   A    
C46   C50   A    
C17   O26   S    
C84   I16   S    
C45   C49   A    
C36   C40   A    
C63   C75   A    
C22   C26   A    
C9    C10   D    
O9    C5    A    
C27   C59   A    
C30   I6    S    
C26   C58   A    
N3    C39   S    
C55   C80   A    
C51   C87   S    
C75   C79   A    
C50   C86   S    
O6    V2    S    
C2    C59   S    
C64   C76   A    
C44   C71   A    
C73   H9    S    
C92   H20   S    
C88   O32   D    
O12   V4    S    
C32   C60   A    
C13   N1    A    
C68   C72   A    
N2    C38   S    
C63   C71   A    
C15   N3    A    
O16   V4    S    
C75   H11   S    
C16   N4    A    
C74   C78   A    
C3    O13   A    
C21   C90   S    
C87   O31   D    
C31   I7    S    
C11   I3    S    
C44   C48   A    
C86   H14   S    
O6    C2    A    
C15   O23   S    
C27   I12   S    
O11   V3    S    
C5    C11   S    
C42   C54   A    
C62   C65   A    
C6    C12   S    
C25   I10   S    
N2    C18   A    
C65   C82   A    
C62   C70   A    
C51   C83   A    
C90   H18   S    
O10   C6    A    
C56   C79   A    
O20   V2    S    
C28   I11   S    
C41   C53   A    
C85   H13   S    
C42   C69   A    
C47   C51   A    
C3    C58   S    
C29   I5    S    
C41   C70   A    
C34   C38   A    
O4    C8    A    
C30   C58   A    
C49   C85   S    
C33   H1    S    
C74   H10   S    
C35   C39   A    
C13   O21   S    
C83   I15   S    
C14   N2    A    
C91   H19   S    
C18   C54   A    
C20   O27   S    
C29   C33   A    
C16   O24   S    
C89   O33   D    
C42   C46   A    
C4    O14   A    
C41   C45   A    
C88   H16   S    
C67   C71   A    
C23   C92   S    
C82   I14   S    
C43   C47   A    
C50   C82   A    
C23   C39   A    
C43   C55   A    
C15   C47   A    
C22   C89   S    
C52   C88   S    
