data_mof_unit_21928.cif
_audit_creation_date              2012-12-11T14:48:08-0500
_audit_creation_method            fapswitch 2.2
_symmetry_space_group_name_H-M    P1
_symmetry_Int_Tables_number       1
_space_group_crystal_system       triclinic
_cell_length_a                    11.536939
_cell_length_b                    11.560486
_cell_length_c                    19.457574
_cell_angle_alpha                 90.241102
_cell_angle_beta                  89.887257
_cell_angle_gamma                 60.354954
_cell_volume                      2255.38002793

loop_
_atom_site_label
_atom_site_type_symbol
_atom_type_description
_atom_site_fract_x
_atom_site_fract_y
_atom_site_fract_z
_atom_type_partial_charge
C1    C     C_R   0.640652 0.117147 0.599039 0.546434
C2    C     C_1   0.641341 0.702988 0.667702 0.007676
C3    C     C_1   0.127365 0.199339 0.859540 0.006059
C4    C     C_1   0.171074 0.169947 0.727653 -0.031058
C5    C     C_1   0.150489 0.182434 0.799039 -0.030762
C6    C     C_1   0.194502 0.160417 0.667126 0.004144
C7    C     C_1   0.678168 0.191451 0.860982 0.006420
C8    C     C_1   0.658830 0.167184 0.728934 -0.030732
C9    C     C_1   0.665434 0.181001 0.800391 -0.030503
C10   C     C_1   0.653526 0.149471 0.668409 0.005038
C11   C     C_R   0.575642 0.609367 0.314545 0.075541
C12   C     C_R   0.612642 0.745282 0.598326 0.547253
C13   C     C_R   0.588829 0.579180 0.244737 0.068807
C14   C     C_R   0.700718 0.568706 0.208236 0.039722
C15   C     C_R   0.804900 0.571160 0.245100 0.037981
C16   C     C_R   0.787849 0.605779 0.315114 0.046119
C17   C     C_R   0.665974 0.641531 0.346323 0.061853
C18   C     C_R   0.259603 0.244680 0.282212 0.094987
C19   C     C_R   0.228113 0.259429 0.212000 0.080857
C20   C     C_R   0.184314 0.178318 0.181197 0.041752
C21   C     C_R   0.219089 0.055146 0.211796 -0.048882
C22   C     C_R   0.258939 0.034461 0.281106 -0.176605
C23   C     C_R   0.240374 0.145219 0.597888 0.553135
C24   C     C_R   0.268908 0.133324 0.318561 0.015345
C25   C     C_R   0.766913 0.031005 0.287034 0.024900
C26   C     C_R   0.747159 0.042973 0.215676 0.107375
C27   C     C_R   0.664194 0.170124 0.187927 0.019184
C28   C     C_R   0.572101 0.269677 0.229979 -0.167788
C29   C     C_R   0.575058 0.252622 0.300382 -0.148944
C30   C     C_R   0.670089 0.134624 0.330090 0.008119
C31   C     C_R   0.082152 0.231499 0.928833 0.542197
C32   C     C_R   0.683747 0.605454 0.929785 0.549117
C33   C     C_R   0.708233 0.206909 0.930338 0.543121
C34   C     C_R   0.645953 0.109300 0.401172 0.529984
C35   C     C_R   0.092206 0.231551 0.122018 0.559893
C36   C     C_R   0.709885 0.547548 0.133142 0.608058
C37   C     C_R   0.704316 0.206878 0.123899 0.540367
C38   C     C_R   0.620648 0.729487 0.406252 0.584428
C39   C     C_R   0.300841 0.116525 0.393280 0.572397
C40   C     C_1   0.670584 0.647575 0.860361 0.004297
C41   C     C_1   0.655038 0.683244 0.728307 -0.030908
C42   C     C_1   0.663756 0.667247 0.799722 -0.031732
Cr1   Cr    Cr6+3 0.404720 0.198220 0.499960 1.042474
Cr2   Cr    Cr6+3 0.698290 0.897110 0.500380 1.027419
Cr3   Cr    Cr6+3 0.396970 0.904720 0.499610 1.022484
Cr4   Cr    Cr6+3 0.926180 0.152240 0.028110 1.006081
Cr5   Cr    Cr6+3 0.921340 0.452070 0.027460 1.052353
Cr6   Cr    Cr6+3 0.626260 0.447120 0.028700 1.025796
H1    H     H_    0.497762 0.359035 0.207107 0.148982
H2    H     H_    0.502523 0.330547 0.332497 0.139788
H3    H     H_    0.283032 0.941129 0.305433 0.134896
O1    O     O_R   0.267740 0.231990 0.575440 -0.500210
O2    O     O_R   0.685970 0.784630 0.430010 -0.479871
O3    O     O_R   0.502530 0.766960 0.423990 -0.497491
O4    O     O_R   0.288330 0.026310 0.429250 -0.517754
O5    O     O_3   0.499990 0.000020 0.499980 -0.280937
O6    O     O_R   0.821500 0.119550 0.952820 -0.508246
O7    O     O_R   0.037130 0.162750 0.957360 -0.499122
O8    O     O_R   0.056440 0.344950 0.951330 -0.504965
O9    O     O_R   0.797900 0.560570 0.957460 -0.493306
O10   O     O_R   0.596140 0.579600 0.952720 -0.504645
O11   O     O_R   0.639070 0.321380 0.958660 -0.494640
O12   O     O_R   0.527280 0.186680 0.570530 -0.492828
O13   O     O_R   0.821240 0.124490 0.104360 -0.502716
O14   O     O_R   0.036900 0.167320 0.097830 -0.518321
O15   O     O_R   0.056190 0.349890 0.102870 -0.454129
O16   O     O_R   0.797670 0.565150 0.097930 -0.470534
O17   O     O_R   0.595880 0.584540 0.104260 -0.512045
O18   O     O_R   0.638830 0.325960 0.099140 -0.502047
O19   O     O_3   0.824590 0.350480 0.028090 -0.280173
O20   O     O_R   0.728090 0.003480 0.576380 -0.504408
O21   O     O_R   0.682970 0.789220 0.570490 -0.491864
O22   O     O_R   0.499290 0.771920 0.575530 -0.504297
O23   O     O_R   0.285330 0.030900 0.569730 -0.491508
O24   O     O_R   0.270980 0.227040 0.423900 -0.471312
O25   O     O_R   0.530280 0.182090 0.430050 -0.498274
O26   O     O_R   0.731330 0.998530 0.424830 -0.529946
N1    N     N_3   0.464974 0.617360 0.352786 -0.600962
H4    H     H_    0.375459 0.689988 0.331380 0.219605
H5    H     H_    0.469769 0.525324 0.353672 0.221929
N2    N     N_3   0.811735 0.926765 0.171990 -0.638428
H6    H     H_    0.767781 0.947931 0.123379 0.245384
H7    H     H_    0.788425 0.856660 0.191642 0.217909
N3    N     N_3   0.484763 0.567662 0.209982 -0.611388
H8    H     H_    0.423939 0.656882 0.185776 0.241513
H9    H     H_    0.419913 0.556692 0.243044 0.193883
N4    N     N_3   0.927447 0.538473 0.211606 -0.581130
H10   H     H_    0.002369 0.462384 0.239982 0.233978
H11   H     H_    0.941077 0.621312 0.213200 0.214291
N5    N     N_3   0.895728 0.594896 0.356381 -0.621984
H12   H     H_    0.959626 0.493743 0.365383 0.236189
H13   H     H_    0.949282 0.631341 0.329745 0.203372
N6    N     N_3   0.268659 0.349230 0.317684 -0.596788
H14   H     H_    0.171811 0.426113 0.326797 0.215045
H15   H     H_    0.312370 0.389848 0.286440 0.200641
N7    N     N_3   0.239953 0.356335 0.170922 -0.603894
H16   H     H_    0.190138 0.450869 0.193384 0.222150
H17   H     H_    0.340594 0.325991 0.164886 0.223136
C43   C     C_3   0.239097 0.938429 0.168253 -0.242557
C44   C     C_3   0.143182 0.887880 0.187481 -0.291142
C45   C     C_3   0.137620 0.797642 0.131545 -0.419890
H18   H     H_    0.089625 0.856516 0.084732 0.177908
H19   H     H_    0.238981 0.716410 0.117971 0.144861
H20   H     H_    0.078279 0.752159 0.150070 0.160327
H21   H     H_    0.176840 0.831043 0.236110 0.133832
H22   H     H_    0.041065 0.973571 0.195041 0.218974
H23   H     H_    0.232563 0.960912 0.112586 0.167719
H24   H     H_    0.343659 0.860496 0.175281 0.131781
C46   C     C_3   0.891894 0.910083 0.314186 -0.235656
C47   C     C_3   0.981033 0.950363 0.354704 -0.290190
C48   C     C_3   0.094732 0.829776 0.389609 -0.441563
H25   H     H_    0.054484 0.792381 0.430447 0.170181
H26   H     H_    0.150197 0.748755 0.351643 0.126299
H27   H     H_    0.164502 0.858326 0.413329 0.171731
H28   H     H_    0.022973 0.995444 0.319330 0.154476
H29   H     H_    0.923792 0.026371 0.394628 0.190888
H30   H     H_    0.864390 0.847392 0.344985 0.195696
H31   H     H_    0.954373 0.843609 0.271951 0.142550

loop_
_geom_bond_atom_site_label_1
_geom_bond_atom_site_label_2
_ccdc_geom_bond_type
N4    H10   S    
C16   N5    S    
N6    H14   S    
C37   O18   A    
C41   C42   S    
C19   C20   A    
Cr6   O18   S    
C2    C12   S    
N2    H6    S    
Cr6   O10   S    
C36   O16   A    
C46   H30   S    
C43   H24   S    
C13   N3    S    
C44   H21   S    
C1    O20   A    
C18   C24   A    
C31   O7    A    
C28   C29   A    
N3    H9    S    
C32   O10   A    
C33   O11   A    
C34   O26   A    
C14   C36   S    
C21   C43   S    
N1    H5    S    
Cr1   O1    S    
C35   O14   A    
C2    C41   T    
C15   C16   A    
C25   C30   A    
C24   C39   S    
Cr2   O20   S    
Cr3   O22   S    
C18   C19   A    
C31   O8    A    
C47   C48   S    
Cr5   O9    S    
C20   C35   S    
Cr6   O11   S    
Cr2   O2    S    
C39   O4    A    
C48   H25   S    
Cr3   O5    S    
C8    C9    S    
N7    H17   S    
C12   O22   A    
C39   O24   A    
Cr5   O15   S    
C25   C46   S    
C40   C42   T    
C12   O21   A    
C45   H19   S    
C13   C14   A    
Cr4   O7    S    
C7    C33   S    
C1    O12   A    
Cr5   O16   S    
N2    H7    S    
C46   H31   S    
C29   H2    S    
Cr1   O24   S    
C30   C34   S    
Cr1   O12   S    
C45   H18   S    
N3    H8    S    
Cr4   O14   S    
C4    C6    T    
N1    H4    S    
C16   C17   A    
C35   O15   A    
C25   C26   A    
Cr4   O13   S    
Cr3   O23   S    
Cr5   O19   S    
C29   C30   A    
C11   N1    S    
C28   H1    S    
Cr2   O5    S    
N5    H13   S    
C43   C44   S    
C38   O3    A    
N7    H16   S    
C26   C27   A    
C48   H26   S    
Cr6   O17   S    
C3    C31   S    
C8    C10   T    
Cr3   O3    S    
C45   H20   S    
N4    H11   S    
Cr4   O6    S    
C22   C24   A    
C32   O9    A    
C23   O23   A    
N5    H12   S    
C47   H29   S    
C37   O13   A    
C43   H23   S    
C15   N4    S    
Cr1   O25   S    
C7    C9    T    
C11   C17   A    
C33   O6    A    
C1    C10   S    
Cr6   O19   S    
C4    C5    S    
C3    C5    T    
C36   O17   A    
C26   N2    S    
Cr2   O26   S    
C44   H22   S    
C46   C47   S    
C11   C13   A    
C23   O1    A    
C38   O2    A    
C27   C37   S    
C6    C23   S    
C44   C45   S    
Cr2   O21   S    
C48   H27   S    
C17   C38   S    
C32   C40   S    
Cr4   O19   S    
Cr5   O8    S    
Cr1   O5    S    
C20   C21   A    
Cr3   O4    S    
N6    H15   S    
C27   C28   A    
C18   N6    S    
C14   C15   A    
C21   C22   A    
C47   H28   S    
C19   N7    S    
C34   O25   A    
C22   H3    S    
