data_mof_unit_46418.cif
_audit_creation_date              2012-12-10T17:42:14-0500
_audit_creation_method            fapswitch 2.2
_symmetry_space_group_name_H-M    P1
_symmetry_Int_Tables_number       1
_space_group_crystal_system       triclinic
_cell_length_a                    14.988922
_cell_length_b                    13.877154
_cell_length_c                    10.767654
_cell_angle_alpha                 89.490087
_cell_angle_beta                  86.1654
_cell_angle_gamma                 90.727459
_cell_volume                      2234.40965595

loop_
_atom_site_label
_atom_site_type_symbol
_atom_type_description
_atom_site_fract_x
_atom_site_fract_y
_atom_site_fract_z
_atom_type_partial_charge
C1    C     C_R   0.329031 0.499563 0.500257 0.805767
C2    C     C_3   0.553045 0.410775 0.924241 -0.354092
C3    C     C_R   0.819134 0.543248 0.399872 -0.207759
C4    C     C_R   0.767451 0.500811 0.498977 -0.027518
C5    C     C_R   0.807740 0.457029 0.597773 -0.167524
C6    C     C_R   0.900603 0.458139 0.600217 0.041650
C7    C     C_R   0.953182 0.501425 0.500843 0.050785
C8    C     C_R   0.912135 0.543978 0.399973 0.131334
C9    C     C_R   0.941470 0.417570 0.700861 -0.274137
C10   C     C_R   0.034590 0.419937 0.704620 0.424426
C11   C     C_R   0.087846 0.459033 0.602901 0.000833
C12   C     C_R   0.503198 0.500441 0.259761 0.787513
C13   C     C_R   0.046715 0.501500 0.501747 0.006102
C14   C     C_R   0.099052 0.544317 0.401387 0.149619
C15   C     C_R   0.057626 0.586851 0.302091 -0.233915
C16   C     C_R   0.964658 0.586385 0.301153 -0.195287
C17   C     C_R   0.181156 0.457486 0.600004 -0.246629
C18   C     C_R   0.232504 0.499127 0.500051 -0.080509
C19   C     C_R   0.191987 0.543645 0.402024 -0.253495
C20   C     C_R   0.444442 0.792400 0.585145 0.538102
C21   C     C_R   0.439414 0.203617 0.576638 0.556952
C22   C     C_R   0.555992 0.795950 0.416098 0.225605
C23   C     C_R   0.559108 0.206802 0.419620 0.220544
C24   C     C_R   0.554400 0.898291 0.412177 -0.038030
C25   C     C_R   0.556380 0.104288 0.413926 -0.039311
C26   C     C_R   0.670985 0.500413 0.498800 0.837744
C27   C     C_R   0.501392 0.948227 0.502008 0.046436
C28   C     C_R   0.502148 0.051439 0.502241 0.035122
C29   C     C_R   0.448513 0.895469 0.592278 -0.093951
C30   C     C_R   0.447613 0.101591 0.589521 -0.099219
C31   C     C_R   0.605573 0.952558 0.321341 -0.148241
C32   C     C_R   0.606869 0.052753 0.322538 -0.146945
C33   C     C_R   0.400394 0.048540 0.685189 -0.165183
C34   C     C_R   0.402337 0.947389 0.688072 -0.193756
C35   C     C_R   0.500871 0.499783 0.739885 0.809834
C36   C     C_3   0.554587 0.590955 0.064882 -0.386885
C37   C     C_3   0.406799 0.503074 0.082497 -0.408975
C38   C     C_3   0.551197 0.592824 0.922149 -0.029142
C39   C     C_3   0.405416 0.498767 0.939204 -0.027775
C40   C     C_3   0.551277 0.410358 0.066982 -0.347145
C41   C     C_3   0.504004 0.501189 0.121495 0.073368
C42   C     C_3   0.502861 0.499855 0.877788 0.049287
Cu1   Cu    Cu3+1 0.499990 0.597420 0.500010 1.014261
Cu2   Cu    Cu3+1 0.499990 0.402580 0.500010 1.010533
H1    H     H_    0.625042 0.589073 0.090703 0.215607
H2    H     H_    0.368155 0.441892 0.127809 0.194477
H3    H     H_    0.214452 0.426024 0.676140 0.203692
H4    H     H_    0.233015 0.576438 0.325806 0.125473
H5    H     H_    0.097169 0.619925 0.224819 0.141983
H6    H     H_    0.933826 0.619192 0.223272 0.159510
H7    H     H_    0.645000 0.919471 0.246340 0.178625
H8    H     H_    0.647114 0.088050 0.248413 0.176097
H9    H     H_    0.363235 0.085307 0.759705 0.184002
H10   H     H_    0.367081 0.910330 0.765812 0.167838
H11   H     H_    0.524156 0.658179 0.102843 0.191839
H12   H     H_    0.373839 0.570248 0.116397 0.143989
H13   H     H_    0.512468 0.657092 0.896251 0.173521
H14   H     H_    0.369416 0.562719 0.906029 0.134727
H15   H     H_    0.621281 0.409144 0.094859 0.193926
H16   H     H_    0.516296 0.343659 0.103387 0.211656
H17   H     H_    0.623433 0.411536 0.884391 0.178619
H18   H     H_    0.522368 0.342521 0.893215 0.218393
H19   H     H_    0.787092 0.573592 0.321693 0.161505
H20   H     H_    0.766541 0.423774 0.673483 0.142995
H21   H     H_    0.901241 0.384954 0.777872 0.172051
N1    N     N_R   0.499930 0.743810 0.499950 -0.229186
N2    N     N_R   0.499930 0.256190 0.499950 -0.239817
O1    O     O_R   0.370250 0.582280 0.500040 -0.572318
O2    O     O_R   0.370250 0.417720 0.500040 -0.554072
O3    O     O_R   0.499970 0.582270 0.317700 -0.577828
O4    O     O_R   0.499970 0.417730 0.317700 -0.573544
O5    O     O_R   0.629730 0.582260 0.499980 -0.537414
O6    O     O_R   0.629730 0.417740 0.499980 -0.561769
O7    O     O_R   0.500000 0.582270 0.682320 -0.533903
O8    O     O_R   0.500000 0.417730 0.682320 -0.546571
O9    O     O_3   0.072669 0.379870 0.806107 -0.583842
C43   C     C_3   0.072799 0.448836 0.902005 0.057809
H22   H     H_    0.010894 0.492941 0.909552 0.139986
H23   H     H_    0.131640 0.498033 0.885314 0.162554
C44   C     C_3   0.079222 0.397188 0.026274 -0.728888
H24   H     H_    0.017988 0.352707 0.048267 0.246737
H25   H     H_    0.138208 0.349605 0.022937 0.273648
H26   H     H_    0.085780 0.450753 0.101100 0.201602
O10   O     O_3   0.390127 0.739783 0.670701 -0.564200
C45   C     C_3   0.299430 0.748155 0.642795 0.075055
H27   H     H_    0.289128 0.727387 0.545251 0.161873
H28   H     H_    0.274590 0.822632 0.654752 0.121958
C46   C     C_3   0.242063 0.683011 0.731136 -0.787749
H29   H     H_    0.243408 0.709983 0.827797 0.229578
H30   H     H_    0.171910 0.681902 0.703818 0.208324
H31   H     H_    0.268072 0.608536 0.728585 0.251760
O11   O     O_3   0.366290 0.248791 0.634665 -0.537518
C47   C     C_3   0.287360 0.221463 0.575752 0.057080
H32   H     H_    0.294109 0.156734 0.515104 0.110122
H33   H     H_    0.267534 0.281049 0.514818 0.184059
C48   C     C_3   0.210189 0.201408 0.672333 -0.733377
H34   H     H_    0.146953 0.193145 0.625067 0.210559
H35   H     H_    0.221288 0.134010 0.724686 0.225079
H36   H     H_    0.202704 0.261461 0.738742 0.304304
I1    I     I_    0.654783 0.727567 0.296174 -0.412647
I2    I     I_    0.660363 0.279048 0.301424 -0.412810
I3    I     I_    0.684146 0.616781 0.835155 -0.406134
I4    I     I_    0.327108 0.375464 0.890843 -0.449420

loop_
_geom_bond_atom_site_label_1
_geom_bond_atom_site_label_2
_ccdc_geom_bond_type
C35   O7    A    
C47   H32   S    
C40   H16   S    
C27   C29   A    
C26   O5    A    
C24   C27   A    
C26   O6    A    
C6    C9    A    
C7    C8    A    
C45   H27   S    
C25   C28   A    
C35   O8    A    
C1    C18   S    
Cu1   O5    S    
C20   N1    A    
C16   H6    S    
C38   C42   S    
C5    C6    A    
C43   C44   S    
C15   C16   A    
C48   H36   S    
C1    O1    A    
Cu2   O4    S    
C18   C19   A    
C23   N2    A    
C35   C42   S    
C47   H33   S    
C22   N1    A    
C37   H12   S    
C10   O9    S    
C32   H8    S    
Cu1   O1    S    
C48   H35   S    
C9    C10   A    
C2    H17   S    
C25   C32   A    
C45   H28   S    
C8    C16   A    
C40   H15   S    
C13   C14   A    
C21   N2    A    
C36   C41   S    
C44   H26   S    
C33   C34   A    
C39   C42   S    
C20   C29   A    
C43   H23   S    
C33   H9    S    
C22   I1    S    
Cu2   O2    S    
O9    C43   S    
C44   H25   S    
C3    C8    A    
C19   H4    S    
C44   H24   S    
C43   H22   S    
C39   H14   S    
C29   C34   A    
C1    O2    A    
C5    H20   S    
Cu1   O7    S    
Cu2   O8    S    
Cu1   Cu2   S    
C12   C41   S    
C38   H13   S    
C31   C32   A    
C46   H31   S    
C48   H34   S    
C17   C18   A    
C36   H1    S    
O10   C45   S    
C40   C41   S    
C12   O4    A    
C46   H30   S    
C34   H10   S    
C47   C48   S    
C20   O10   S    
C22   C24   A    
C3    C4    A    
C45   C46   S    
C12   O3    A    
C11   C17   A    
C30   C33   A    
C14   C19   A    
C17   H3    S    
C31   H7    S    
C4    C5    A    
C4    C26   S    
C39   I4    S    
C6    C7    A    
C3    H19   S    
Cu1   O3    S    
C21   C30   A    
C36   C38   S    
C24   C31   A    
C38   I3    S    
C36   H11   S    
C11   C13   A    
C23   I2    S    
C2    C42   S    
Cu1   N1    S    
C28   C30   A    
O11   C47   S    
C15   H5    S    
C37   C41   S    
Cu2   O6    S    
C9    H21   S    
C10   C11   A    
C2    C40   S    
C7    C13   A    
C23   C25   A    
C46   H29   S    
C37   C39   S    
C27   C28   A    
C14   C15   A    
Cu2   N2    S    
C37   H2    S    
C2    H18   S    
C21   O11   S    
