data_mof_unit_6920.cif
_audit_creation_date              2012-10-26T18:52:12-0400
_audit_creation_method            fapswitch 2.2
_symmetry_space_group_name_H-M    P1
_symmetry_Int_Tables_number       1
_space_group_crystal_system       triclinic
_cell_length_a                    13.827969
_cell_length_b                    14.790926
_cell_length_c                    14.896469
_cell_angle_alpha                 116.001771
_cell_angle_beta                  107.834416
_cell_angle_gamma                 71.986801
_cell_volume                      2551.68045362

loop_
_atom_site_label
_atom_site_type_symbol
_atom_type_description
_atom_site_fract_x
_atom_site_fract_y
_atom_site_fract_z
_atom_type_partial_charge
C1    C     C_R   0.516058 0.118804 0.687872 0.552925
C2    C     C_R   0.375729 0.507191 0.882220 -0.133919
C3    C     C_R   0.541657 0.382466 0.106116 -0.013532
C4    C     C_R   0.341601 0.613073 0.908746 -0.013305
C5    C     C_R   0.307931 0.308894 0.348667 -0.053028
C6    C     C_R   0.692305 0.692755 0.652911 -0.048247
C7    C     C_R   0.348361 0.217440 0.365168 0.009668
C8    C     C_R   0.651640 0.783482 0.635140 0.017593
C9    C     C_R   0.490541 0.285073 0.488813 0.103744
C10   C     C_R   0.509732 0.714849 0.512071 0.110994
C11   C     C_R   0.460061 0.375683 0.466585 -0.032704
C12   C     C_R   0.480298 0.881244 0.311983 0.548895
C13   C     C_R   0.540615 0.625007 0.535603 -0.035565
C14   C     C_R   0.358892 0.393088 0.407210 0.012998
C15   C     C_R   0.641759 0.608234 0.595035 0.010058
C16   C     C_R   0.687146 0.986243 0.504009 0.555384
C17   C     C_R   0.312839 0.013698 0.495909 0.554079
C18   C     C_R   0.522902 0.451559 0.504724 0.012213
C19   C     C_R   0.478088 0.549277 0.498414 0.004294
C20   C     C_R   0.370507 0.571051 0.462086 -0.143432
C21   C     C_R   0.630506 0.430579 0.542503 -0.123930
C22   C     C_R   0.311632 0.494790 0.412866 -0.011934
C23   C     C_R   0.482546 0.357663 0.925831 0.021214
C24   C     C_R   0.689262 0.506960 0.590496 -0.009644
C25   C     C_1   0.206823 0.023062 0.494653 -0.009529
C26   C     C_1   0.793144 0.976691 0.505071 -0.015286
C27   C     C_2   0.012461 0.036905 0.494450 -0.117588
C28   C     C_2   0.987505 0.962442 0.504984 -0.119802
C29   C     C_1   0.882097 0.969267 0.505323 -0.053946
C30   C     C_1   0.117876 0.030252 0.494250 -0.047213
C31   C     C_R   0.521284 0.185827 0.795865 0.005570
C32   C     C_R   0.453642 0.814035 0.204506 0.005331
C33   C     C_R   0.572593 0.209763 0.973662 -0.131780
C34   C     C_R   0.442364 0.639483 0.081487 0.025883
C35   C     C_R   0.354275 0.787717 0.033539 -0.131063
C36   C     C_R   0.566192 0.145347 0.871595 -0.135986
C37   C     C_R   0.390501 0.853826 0.131505 -0.138088
C38   C     C_R   0.480490 0.291089 0.823129 -0.123243
C39   C     C_R   0.482218 0.707736 0.177872 -0.110245
C40   C     C_1   0.218670 0.310483 0.267124 0.174340
C41   C     C_1   0.780581 0.692577 0.735679 0.174028
C42   C     C_R   0.587212 0.342440 0.188811 0.023412
C43   C     C_R   0.684461 0.359991 0.250642 -0.093757
C44   C     C_R   0.733272 0.311544 0.319898 -0.107325
C45   C     C_R   0.531756 0.316303 0.002530 0.045190
C46   C     C_R   0.685235 0.245685 0.327886 -0.103310
C47   C     C_R   0.586700 0.231085 0.269433 -0.108185
C48   C     C_R   0.537308 0.279891 0.200643 -0.097855
C49   C     C_R   0.265351 0.650604 0.831762 0.013841
C50   C     C_R   0.295204 0.642134 0.745981 -0.100847
C51   C     C_R   0.222597 0.678027 0.673811 -0.113818
C52   C     C_R   0.119762 0.720572 0.685658 -0.109323
C53   C     C_R   0.089413 0.728256 0.770394 -0.103204
C54   C     C_R   0.161926 0.693598 0.843461 -0.091475
C55   C     C_R   0.197983 0.529623 0.383436 0.034126
C56   C     C_R   0.378692 0.680384 0.007350 0.043654
C57   C     C_R   0.129285 0.518552 0.428964 -0.086272
C58   C     C_R   0.022704 0.556549 0.405334 -0.107643
C59   C     C_R   0.984034 0.606356 0.336799 -0.095714
C60   C     C_R   0.051877 0.618311 0.291769 -0.100068
C61   C     C_R   0.158522 0.580459 0.315157 -0.080277
C62   C     C_R   0.803047 0.473165 0.620730 0.038018
C63   C     C_R   0.842875 0.424656 0.690982 -0.081222
C64   C     C_R   0.949983 0.391386 0.718120 -0.099659
C65   C     C_R   0.017957 0.405693 0.674971 -0.089906
C66   C     C_R   0.978925 0.452640 0.604038 -0.102994
C67   C     C_R   0.441952 0.464934 0.953756 0.015574
C68   C     C_R   0.871862 0.485665 0.576333 -0.091836
C69   C     C_1   0.428882 0.720972 0.425252 0.246315
C70   C     C_1   0.571198 0.278139 0.575432 0.245969
C71   C     C_R   0.466499 0.531610 0.056725 0.016023
C72   C     C_R   0.512003 0.488569 0.131976 -0.134183
Cu1   Cu    Cu3+1 0.526370 0.916390 0.524860 0.953028
Cu2   Cu    Cu3+1 0.473630 0.083610 0.475140 0.946319
H1    H     H_    0.045846 0.896199 0.513228 0.135325
H2    H     H_    0.306433 0.821421 0.978871 0.128999
H3    H     H_    0.521018 0.535845 0.212315 0.118220
H4    H     H_    0.344239 0.458927 0.806042 0.105706
H5    H     H_    0.690855 0.847568 0.676574 0.130916
H6    H     H_    0.308752 0.153660 0.323263 0.133480
H7    H     H_    0.723828 0.408274 0.242763 0.108900
H8    H     H_    0.809063 0.323693 0.366171 0.114118
H9    H     H_    0.723934 0.206723 0.380136 0.111023
H10   H     H_    0.549099 0.181019 0.276577 0.125649
H11   H     H_    0.461919 0.266217 0.154078 0.118654
H12   H     H_    0.954080 0.103131 0.486218 0.134437
H13   H     H_    0.374573 0.608812 0.735621 0.119237
H14   H     H_    0.245876 0.673139 0.608743 0.117398
H15   H     H_    0.063715 0.747750 0.629286 0.116189
H16   H     H_    0.009830 0.761454 0.779616 0.139726
H17   H     H_    0.137634 0.699973 0.908929 0.127951
H18   H     H_    0.158514 0.481454 0.483358 0.106896
H19   H     H_    0.970089 0.548027 0.440591 0.097023
H20   H     H_    0.901541 0.636011 0.318871 0.111469
H21   H     H_    0.021865 0.657308 0.239041 0.118858
H22   H     H_    0.210367 0.590755 0.280244 0.135369
H23   H     H_    0.329052 0.649396 0.476266 0.113724
H24   H     H_    0.791037 0.413342 0.725138 0.132796
H25   H     H_    0.980307 0.354570 0.772693 0.119377
H26   H     H_    0.100851 0.380136 0.696268 0.112395
H27   H     H_    0.031701 0.463234 0.570473 0.103990
H28   H     H_    0.842461 0.521204 0.520655 0.096355
H29   H     H_    0.672478 0.352983 0.530794 0.117048
H30   H     H_    0.536927 0.679747 0.233863 0.120595
H31   H     H_    0.450811 0.320189 0.762928 0.129088
H32   H     H_    0.367173 0.936026 0.150665 0.127641
H33   H     H_    0.598804 0.064008 0.852147 0.132259
H34   H     H_    0.611966 0.175214 0.029360 0.129781
N1    N     N_R   0.433980 0.209250 0.437830 -0.259919
N2    N     N_R   0.566020 0.790750 0.562170 -0.255726
N3    N     N_1   0.147309 0.311322 0.201596 -0.292851
N4    N     N_1   0.851019 0.692779 0.802252 -0.312753
N5    N     N_1   0.363831 0.725048 0.355486 -0.330445
N6    N     N_1   0.636036 0.273453 0.645165 -0.327264
O1    O     O_R   0.534760 0.019630 0.662610 -0.509774
O2    O     O_R   0.465240 0.980370 0.337390 -0.511604
O3    O     O_R   0.490220 0.160840 0.620610 -0.490118
O4    O     O_R   0.509780 0.839160 0.379390 -0.491988
O5    O     O_R   0.663260 0.919400 0.523940 -0.505356
O6    O     O_R   0.336740 0.080600 0.476060 -0.504293
O7    O     O_R   0.618720 0.060610 0.481950 -0.485432
O8    O     O_R   0.381280 0.939390 0.518050 -0.481869

loop_
_geom_bond_atom_site_label_1
_geom_bond_atom_site_label_2
_ccdc_geom_bond_type
C66   C68   A    
C3    C42   S    
C34   C56   A    
C23   C45   A    
C57   H18   S    
C18   C21   A    
C33   C45   A    
Cu1   Cu2   S    
C19   C20   A    
C16   O7    A    
Cu2   N1    S    
C61   H22   S    
C39   H30   S    
C11   C18   A    
C53   C54   A    
C70   N6    T    
C69   N5    T    
C62   C63   A    
Cu1   O5    S    
C28   C29   S    
C35   C37   A    
C58   H19   S    
C68   H28   S    
C63   H24   S    
C44   H8    S    
C11   C14   A    
C46   H9    S    
C49   C54   A    
C1    C31   S    
C33   C36   A    
C18   C19   A    
C32   C39   A    
C23   C67   A    
C49   C50   A    
C36   H33   S    
C17   O6    A    
C6    C15   A    
C64   H25   S    
C20   H23   S    
C6    C41   S    
C8    H5    S    
C59   H20   S    
C41   N4    T    
C59   C60   A    
C12   C32   S    
C27   C30   S    
C9    N1    A    
C66   H27   S    
C52   H15   S    
C33   H34   S    
C44   C46   A    
C40   N3    T    
C16   C26   S    
C35   H2    S    
C13   C19   A    
C34   C39   A    
Cu1   N2    S    
C9    C70   S    
C2    C67   A    
C16   O5    A    
C5    C7    A    
C1    O3    A    
C58   C59   A    
C47   H10   S    
C3    C45   A    
C51   C52   A    
C60   C61   A    
C27   H12   S    
C2    C4    A    
C43   C44   A    
C10   C69   S    
C72   H3    S    
C2    H4    S    
C8    N2    A    
C47   C48   A    
Cu2   O2    S    
C50   C51   A    
C42   C48   A    
C32   C37   A    
C9    C11   A    
C5    C14   A    
C50   H13   S    
C12   O4    A    
C15   C24   A    
C20   C22   A    
C65   C66   A    
C55   C57   A    
C43   H7    S    
C21   C24   A    
C42   C43   A    
C53   H16   S    
C52   C53   A    
C25   C30   T    
Cu2   O3    S    
C46   C47   A    
C24   C62   S    
Cu1   O4    S    
C35   C56   A    
C31   C36   A    
C65   H26   S    
C37   H32   S    
C10   C13   A    
C51   H14   S    
C6    C8    A    
C22   C55   S    
C23   C38   A    
Cu2   O6    S    
Cu1   O1    S    
C31   C38   A    
C62   C68   A    
C4    C49   S    
C17   C25   S    
C64   C65   A    
C14   C22   A    
C38   H31   S    
C13   C15   A    
C3    C72   A    
C54   H17   S    
C57   C58   A    
C55   C61   A    
C10   N2    A    
C67   C71   A    
C63   C64   A    
C21   H29   S    
C60   H21   S    
C7    N1    A    
C17   O8    A    
C71   C72   A    
Cu2   O7    S    
C26   C29   T    
Cu1   O8    S    
C5    C40   S    
C27   C28   D    
C48   H11   S    
C1    O1    A    
C28   H1    S    
C34   C71   A    
C4    C56   A    
C7    H6    S    
C12   O2    A    
