data_mof_unit_42616.cif
_audit_creation_date              2012-12-10T16:43:25-0500
_audit_creation_method            fapswitch 2.2
_symmetry_space_group_name_H-M    P1
_symmetry_Int_Tables_number       1
_space_group_crystal_system       triclinic
_cell_length_a                    10.754114
_cell_length_b                    8.696884
_cell_length_c                    7.553645
_cell_angle_alpha                 103.413669
_cell_angle_beta                  95.240742
_cell_angle_gamma                 94.370923
_cell_volume                      680.858574891

loop_
_atom_site_label
_atom_site_type_symbol
_atom_type_description
_atom_site_fract_x
_atom_site_fract_y
_atom_site_fract_z
_atom_type_partial_charge
C1    C     C_R   0.496279 0.199800 0.452844 0.920691
C2    C     C_R   0.082291 0.642608 0.624341 0.091035
C3    C     C_R   0.130246 0.516424 0.504029 -0.100756
C4    C     C_R   0.050065 0.398369 0.379940 -0.185877
C5    C     C_R   0.921879 0.399021 0.378624 -0.205792
C6    C     C_R   0.871996 0.517878 0.501206 -0.085712
C7    C     C_2   0.494280 0.031228 0.427264 -0.364927
C8    C     C_2   0.505548 0.968731 0.572717 -0.360087
C9    C     C_R   0.263320 0.505306 0.501461 0.823055
C10   C     C_R   0.504006 0.800213 0.547108 0.835703
C11   C     C_R   0.737390 0.506187 0.500389 0.764647
C12   C     C_R   0.161399 0.770171 0.741722 -0.180180
C13   C     C_R   0.111133 0.893528 0.856966 -0.142731
C14   C     C_R   0.981843 0.895009 0.854277 -0.134715
C15   C     C_R   0.901948 0.772448 0.737031 -0.175725
C16   C     C_R   0.950767 0.643560 0.622429 0.100173
Cu1   Cu    Cu3+1 0.513920 0.517380 0.684380 0.968082
Cu2   Cu    Cu3+1 0.486080 0.482620 0.315620 0.979360
H1    H     H_    0.087076 0.303002 0.286327 0.170847
H2    H     H_    0.599691 0.624871 0.050940 0.214543
H3    H     H_    0.262233 0.778000 0.744141 0.152705
H4    H     H_    0.172782 0.989379 0.947144 0.177213
H5    H     H_    0.943261 0.992535 0.941817 0.135882
H6    H     H_    0.802233 0.781843 0.735258 0.142833
H7    H     H_    0.861176 0.303902 0.284547 0.149583
H8    H     H_    0.483669 0.958309 0.287774 0.178458
H9    H     H_    0.516059 0.041612 0.712211 0.180215
N1    N     N_2   0.465100 0.456430 0.038520 -0.196857
N2    N     N_2   0.534900 0.543570 0.961480 -0.240103
O1    O     O_R   0.509050 0.286130 0.619770 -0.539234
O2    O     O_R   0.485540 0.256780 0.308360 -0.568538
O3    O     O_R   0.331410 0.514680 0.655740 -0.545945
O4    O     O_R   0.307900 0.485330 0.344330 -0.555587
O5    O     O_R   0.514460 0.743220 0.691640 -0.605602
O6    O     O_R   0.490950 0.713870 0.380230 -0.590007
O7    O     O_R   0.692100 0.514670 0.655670 -0.586062
O8    O     O_R   0.668590 0.485320 0.344260 -0.596563
C17   C     C_2   0.365869 0.332193 0.953798 1.061017
O9    O     O_2   0.312237 0.263583 0.053132 -0.632098
O10   O     O_R   0.325169 0.283649 0.768646 -0.748303
H10   H     H_    0.254434 0.194298 0.736796 0.295357

loop_
_geom_bond_atom_site_label_1
_geom_bond_atom_site_label_2
_ccdc_geom_bond_type
C14   H5    S    
C17   O10   S    
O10   H10   S    
C10   O6    A    
C3    C9    S    
Cu1   O7    S    
C2    C16   A    
Cu2   O6    S    
N1    C17   S    
C2    C12   A    
Cu1   Cu2   S    
Cu2   N1    S    
C7    C8    D    
C10   O5    A    
C13   C14   A    
C9    O4    A    
Cu1   O1    S    
N1    N2    D    
C17   O9    D    
C7    H8    S    
C5    H7    S    
C1    O1    A    
Cu2   O8    S    
C13   H4    S    
C2    C3    A    
H2    N2    S    
C5    C6    A    
Cu2   O4    S    
Cu1   O5    S    
C6    C16   A    
C3    C4    A    
C1    O2    A    
Cu1   N2    S    
C12   C13   A    
C8    C10   S    
C6    C11   S    
C11   O8    A    
Cu1   O3    S    
C14   C15   A    
C15   H6    S    
Cu2   O2    S    
C9    O3    A    
C8    H9    S    
C1    C7    S    
C4    H1    S    
C12   H3    S    
C15   C16   A    
C4    C5    A    
C11   O7    A    
