data_mof_unit_65974.cif
_audit_creation_date              2012-12-10T16:55:52-0500
_audit_creation_method            fapswitch 2.2
_symmetry_space_group_name_H-M    P1
_symmetry_Int_Tables_number       1
_space_group_crystal_system       triclinic
_cell_length_a                    14.344045
_cell_length_b                    10.952534
_cell_length_c                    9.739188
_cell_angle_alpha                 89.23895
_cell_angle_beta                  90.690725
_cell_angle_gamma                 89.778255
_cell_volume                      1529.80331383

loop_
_atom_site_label
_atom_site_type_symbol
_atom_type_description
_atom_site_fract_x
_atom_site_fract_y
_atom_site_fract_z
_atom_type_partial_charge
C1    C     C_R   0.497551 0.265531 0.500880 0.777344
C2    C     C_1   0.771169 0.499901 0.501937 -0.192968
C3    C     C_2   0.487350 0.935581 0.388661 0.663246
C4    C     C_2   0.509811 0.866123 0.498697 -0.371503
C5    C     C_2   0.497808 0.068343 0.390761 -0.355258
C6    C     C_2   0.486647 0.134166 0.504710 0.376862
C7    C     C_2   0.462713 0.582104 0.923851 -0.001992
C8    C     C_2   0.481347 0.592711 0.075626 -0.088619
C9    C     C_R   0.331174 0.500102 0.499373 0.823621
C10   C     C_R   0.501377 0.734503 0.499157 0.860349
C11   C     C_R   0.668815 0.499930 0.500676 0.794618
C12   C     C_1   0.228793 0.500059 0.498341 -0.166580
C13   C     C_1   0.143358 0.500008 0.498706 0.009760
C14   C     C_1   0.042684 0.499946 0.499854 0.016466
C15   C     C_1   0.957261 0.499906 0.500930 0.012652
C16   C     C_1   0.856594 0.499888 0.501868 -0.006012
Cu1   Cu    Cu3+1 0.500020 0.500020 0.638630 0.954319
Cu2   Cu    Cu3+1 0.499980 0.499980 0.361370 0.962995
H1    H     H_    0.538198 0.905658 0.591586 0.178138
H2    H     H_    0.512814 0.113218 0.293393 0.162512
H3    H     H_    0.419312 0.651925 0.875269 0.154508
H4    H     H_    0.478919 0.682520 0.120522 0.224666
H5    H     H_    0.473203 0.417719 0.116709 0.219981
N1    N     N_2   0.499070 0.498660 0.846910 -0.176585
N2    N     N_2   0.499040 0.498630 0.153040 -0.291312
O1    O     O_R   0.500010 0.321960 0.617040 -0.546291
O2    O     O_R   0.499990 0.321920 0.382900 -0.612385
O3    O     O_R   0.376070 0.500020 0.617100 -0.550754
O4    O     O_R   0.376040 0.499980 0.382950 -0.547643
O5    O     O_R   0.500010 0.678080 0.617100 -0.585849
O6    O     O_R   0.499990 0.678040 0.382960 -0.519214
O7    O     O_R   0.623960 0.500020 0.617050 -0.584840
O8    O     O_R   0.623930 0.499980 0.382900 -0.546722
F1    F     F_    0.457529 0.884848 0.269276 -0.663597
F2    F     F_    0.457604 0.082739 0.624742 -0.661322
C17   C     C_3   0.582021 0.429518 0.893649 -0.070077
C18   C     C_3   0.666442 0.512322 0.924571 -0.367673
C19   C     C_3   0.757643 0.439996 0.925385 -0.856386
H6    H     H_    0.755257 0.365141 0.003341 0.257455
H7    H     H_    0.770118 0.400699 0.822618 0.257889
H8    H     H_    0.816534 0.501412 0.951196 0.256204
H9    H     H_    0.670768 0.587080 0.846793 0.240889
H10   H     H_    0.659321 0.554927 0.026539 0.227348
H11   H     H_    0.569101 0.364277 0.978029 0.116745
H12   H     H_    0.601723 0.366566 0.811067 0.215018

loop_
_geom_bond_atom_site_label_1
_geom_bond_atom_site_label_2
_ccdc_geom_bond_type
C18   H10   S    
C8    H4    S    
C18   C19   S    
C8    N2    D    
C11   O8    A    
C2    C16   T    
C10   O5    A    
C9    O4    A    
Cu2   O2    S    
Cu1   Cu2   S    
C17   H12   S    
Cu2   O4    S    
C13   C14   S    
C6    F2    S    
C19   H7    S    
Cu1   O5    S    
C4    H1    S    
N1    C17   S    
Cu2   N2    S    
C5    C6    D    
Cu1   O1    S    
C17   C18   S    
C9    C12   S    
C11   O7    A    
H5    N2    S    
C1    O1    A    
Cu2   O8    S    
C17   H11   S    
Cu1   N1    S    
C2    C11   S    
C4    C10   S    
C7    N1    D    
C7    C8    S    
C19   H6    S    
C12   C13   T    
C19   H8    S    
C1    O2    A    
C18   H9    S    
C5    H2    S    
Cu1   O7    S    
C14   C15   T    
Cu2   O6    S    
C1    C6    S    
C3    F1    S    
C7    H3    S    
Cu1   O3    S    
C10   O6    A    
C3    C4    D    
C15   C16   S    
C9    O3    A    
C3    C5    S    
