data_mof_unit_47097.cif
_audit_creation_date              2013-03-05T15:46:18-0500
_audit_creation_method            fapswitch 2.2
_symmetry_space_group_name_H-M    P1
_symmetry_Int_Tables_number       1
_space_group_crystal_system       triclinic
_cell_length_a                    17.415646
_cell_length_b                    24.159391
_cell_length_c                    14.79005
_cell_angle_alpha                 90.031293
_cell_angle_beta                  125.197072
_cell_angle_gamma                 89.88403
_cell_volume                      5085.210408

loop_
_atom_site_label
_atom_site_type_symbol
_atom_site_description
_atom_site_fract_x
_atom_site_fract_y
_atom_site_fract_z
_atom_type_partial_charge
C1    C     C_R   0.809047 0.623698 0.909790 -0.069181
C2    C     C_R   0.146384 0.346044 0.089423 -0.050334
C3    C     C_R   0.145526 0.654239 0.087971 -0.049102
C4    C     C_R   0.809345 0.376339 0.909450 -0.094627
C5    C     C_R   0.309047 0.123698 0.909790 -0.069121
C6    C     C_R   0.646385 0.846044 0.089424 -0.050366
C7    C     C_R   0.645532 0.154232 0.087985 -0.049029
C8    C     C_R   0.309347 0.876337 0.909433 -0.094713
H1    H     H_    0.749604 0.627714 0.824948 0.170693
H2    H     H_    0.182121 0.330667 0.172230 0.135717
H3    H     H_    0.181866 0.670137 0.170253 0.133377
H4    H     H_    0.750461 0.372699 0.824421 0.176519
H5    H     H_    0.249605 0.127714 0.824947 0.170688
H6    H     H_    0.682121 0.830668 0.172231 0.135714
H7    H     H_    0.681850 0.170124 0.170267 0.133363
H8    H     H_    0.250470 0.872710 0.824401 0.176526
N1    N     N_R   0.892620 0.603790 0.941800 -0.040878
N2    N     N_R   0.107380 0.396210 0.058200 -0.054037
N3    N     N_R   0.107380 0.603790 0.058200 -0.054980
N4    N     N_R   0.892620 0.396210 0.941800 -0.052754
N5    N     N_R   0.392620 0.103790 0.941800 -0.040877
N6    N     N_R   0.607380 0.896210 0.058200 -0.054035
N7    N     N_R   0.607380 0.103790 0.058200 -0.055005
N8    N     N_R   0.392620 0.896210 0.941800 -0.052767
C9    C     C_R   0.904931 0.374995 0.094917 -0.076988
C10   C     C_R   0.053582 0.651608 0.905005 -0.093396
C11   C     C_R   0.055979 0.348303 0.906355 -0.120753
C12   C     C_R   0.905034 0.624820 0.095183 -0.076541
C13   C     C_R   0.404923 0.874978 0.094901 -0.076829
C14   C     C_R   0.553595 0.151610 0.905017 -0.093394
C15   C     C_R   0.555980 0.848303 0.906355 -0.120757
C16   C     C_R   0.405033 0.124820 0.095183 -0.076526
H9    H     H_    0.935146 0.367446 0.180951 0.140046
H10   H     H_    0.006959 0.663074 0.819397 0.166090
H11   H     H_    0.012950 0.336314 0.820772 0.142842
H12   H     H_    0.935649 0.632246 0.181304 0.143609
H13   H     H_    0.435117 0.867411 0.180930 0.139610
H14   H     H_    0.506988 0.163085 0.819410 0.166085
H15   H     H_    0.512951 0.836314 0.820772 0.142837
H16   H     H_    0.435648 0.132247 0.181304 0.143597
N9    N     N_R   0.952210 0.397600 0.057910 -0.059006
N10   N     N_R   0.047790 0.602400 0.942090 -0.054541
N11   N     N_R   0.047790 0.397600 0.942090 -0.056760
N12   N     N_R   0.952210 0.602400 0.057910 -0.063496
N13   N     N_R   0.452210 0.897600 0.057910 -0.058988
N14   N     N_R   0.547790 0.102400 0.942090 -0.054546
N15   N     N_R   0.547790 0.897600 0.942090 -0.056758
N16   N     N_R   0.452210 0.102400 0.057910 -0.063502
C17   C     C_R   0.050155 0.546072 0.305664 -0.068487
C18   C     C_R   0.020368 0.453509 0.751882 -0.131797
C19   C     C_R   0.020841 0.546356 0.752507 -0.133146
C20   C     C_R   0.049655 0.453888 0.305432 -0.074011
C21   C     C_R   0.550150 0.046072 0.305662 -0.068474
C22   C     C_R   0.520370 0.953509 0.751884 -0.131793
C23   C     C_R   0.520842 0.046356 0.752509 -0.133136
C24   C     C_R   0.549645 0.953887 0.305426 -0.073789
H17   H     H_    0.067798 0.588371 0.333618 0.077240
H18   H     H_    0.030595 0.410766 0.740742 0.105335
H19   H     H_    0.031592 0.589089 0.742107 0.110279
H20   H     H_    0.066404 0.411485 0.333068 0.076245
H21   H     H_    0.567793 0.088370 0.333617 0.077226
H22   H     H_    0.530596 0.910765 0.740743 0.105329
H23   H     H_    0.531594 0.089089 0.742109 0.110257
H24   H     H_    0.566387 0.911482 0.333058 0.076018
N17   N     N_R   0.026300 0.529110 0.206760 -0.046947
N18   N     N_R   0.973700 0.470890 0.793240 -0.066623
N19   N     N_R   0.973700 0.529110 0.793240 -0.056468
N20   N     N_R   0.026300 0.470890 0.206760 -0.045776
N21   N     N_R   0.526300 0.029110 0.206760 -0.046941
N22   N     N_R   0.473700 0.970890 0.793240 -0.066629
N23   N     N_R   0.473700 0.029110 0.793240 -0.056468
N24   N     N_R   0.526300 0.970890 0.206760 -0.045729
C25   C     C_R   0.747595 0.456256 0.691601 0.567146
C26   C     C_R   0.269617 0.545446 0.267228 0.595909
C27   C     C_R   0.269211 0.453814 0.267453 0.582056
C28   C     C_R   0.749642 0.546691 0.694694 0.531568
C29   C     C_R   0.247598 0.956257 0.691599 0.567125
C30   C     C_R   0.769618 0.045446 0.267237 0.595905
C31   C     C_R   0.769210 0.953814 0.267459 0.582076
C32   C     C_R   0.249643 0.046691 0.694694 0.531571
N25   N     N_R   0.818530 0.472270 0.792960 -0.150886
N26   N     N_R   0.181470 0.527730 0.207040 -0.156586
N27   N     N_R   0.181470 0.472270 0.207040 -0.158571
N28   N     N_R   0.818530 0.527730 0.792960 -0.140665
N29   N     N_R   0.318530 0.972270 0.792960 -0.150873
N30   N     N_R   0.681470 0.027730 0.207040 -0.156595
N31   N     N_R   0.681470 0.972270 0.207040 -0.158580
N32   N     N_R   0.318530 0.027730 0.792960 -0.140658
C33   C     C_R   0.813239 0.636368 0.004334 0.085875
C34   C     C_R   0.114477 0.314204 0.996743 0.094860
C35   C     C_R   0.112479 0.685859 0.994487 0.068469
C36   C     C_R   0.813382 0.363287 0.003675 0.106665
C37   C     C_R   0.313239 0.136369 0.004333 0.085885
C38   C     C_R   0.614477 0.814204 0.996744 0.094857
C39   C     C_R   0.612501 0.185855 0.994511 0.068584
C40   C     C_R   0.313374 0.863274 0.003644 0.106894
C41   C     C_R   0.067037 0.499965 0.370021 0.087387
C42   C     C_R   0.052687 0.499889 0.727864 0.088726
C43   C     C_R   0.567028 0.999964 0.370016 0.087339
C44   C     C_R   0.552689 0.999889 0.727867 0.088718
C45   C     C_R   0.702260 0.502170 0.629216 -0.065213
C46   C     C_R   0.326093 0.499395 0.299228 -0.054284
C47   C     C_R   0.202263 0.002170 0.629214 -0.065225
C48   C     C_R   0.826093 0.999394 0.299240 -0.054296
Ni1   Ni    Ni4+2 0.934150 0.565840 0.869060 0.256373
Ni2   Ni    Ni4+2 0.065850 0.434160 0.130940 0.208105
Ni3   Ni    Ni4+2 0.065850 0.565840 0.130940 0.210056
Ni4   Ni    Ni4+2 0.934150 0.434160 0.869060 0.217945
Ni5   Ni    Ni4+2 0.434150 0.065840 0.869060 0.256402
Ni6   Ni    Ni4+2 0.565850 0.934160 0.130940 0.208091
Ni7   Ni    Ni4+2 0.565850 0.065840 0.130940 0.210063
Ni8   Ni    Ni4+2 0.434150 0.934160 0.869060 0.217956
C49   C     C_3   0.535377 0.461989 0.531322 0.399146
C50   C     C_3   0.494583 0.540786 0.381791 0.398072
C51   C     C_3   0.494512 0.451121 0.408828 0.421312
C52   C     C_3   0.536342 0.551587 0.504825 0.373174
C53   C     C_3   0.035381 0.961987 0.531331 0.399142
C54   C     C_3   0.994580 0.040785 0.381798 0.398016
C55   C     C_3   0.994511 0.951119 0.408836 0.421290
C56   C     C_3   0.036343 0.051586 0.504833 0.373118
C57   C     C_3   0.468670 0.510438 0.502267 0.069919
C58   C     C_3   0.563107 0.492367 0.412325 0.037580
C59   C     C_3   0.968673 0.010437 0.502279 0.069926
C60   C     C_3   0.063104 0.992366 0.412329 0.037557
C61   C     C_3   0.425403 0.499489 0.379083 -0.252953
C62   C     C_3   0.605812 0.502998 0.535493 -0.278092
C63   C     C_3   0.925403 0.999487 0.379094 -0.252921
C64   C     C_3   0.105813 0.002998 0.535497 -0.278060
C65   C     C_R   0.657964 0.317497 0.901060 -0.285701
C66   C     C_R   0.199386 0.771444 0.095974 -0.288565
C67   C     C_R   0.204130 0.229490 0.099935 -0.299189
C68   C     C_R   0.655419 0.680428 0.903833 -0.271850
C69   C     C_R   0.157993 0.817447 0.900975 -0.285707
C70   C     C_R   0.699519 0.271393 0.096059 -0.288581
C71   C     C_R   0.704131 0.729491 0.099937 -0.299212
C72   C     C_R   0.155419 0.180429 0.903831 -0.271826
H25   H     H_    0.638923 0.335570 0.824188 0.173666
H26   H     H_    0.214444 0.755490 0.172741 0.175060
H27   H     H_    0.222562 0.246738 0.177306 0.178874
H28   H     H_    0.633728 0.660670 0.826995 0.191806
H29   H     H_    0.139006 0.835475 0.824094 0.173668
H30   H     H_    0.714678 0.255410 0.172855 0.174908
H31   H     H_    0.722565 0.746739 0.177307 0.178866
H32   H     H_    0.133728 0.160672 0.826993 0.191800
C73   C     C_R   0.104383 0.773527 0.895996 0.380203
C74   C     C_R   0.748880 0.317974 0.100722 0.361554
C75   C     C_R   0.751578 0.682086 0.103797 0.364478
C76   C     C_R   0.101988 0.224540 0.900268 0.379328
C77   C     C_R   0.604375 0.273559 0.896078 0.380176
C78   C     C_R   0.248739 0.818037 0.100627 0.361131
C79   C     C_R   0.251576 0.182085 0.103795 0.364462
C80   C     C_R   0.601988 0.724540 0.900270 0.379321
C81   C     C_R   0.134618 0.745005 0.994380 -0.058527
C82   C     C_R   0.737588 0.335392 0.002819 -0.047040
C83   C     C_R   0.737529 0.663677 0.004889 -0.047821
C84   C     C_R   0.136653 0.254854 0.998131 -0.067708
C85   C     C_R   0.634667 0.244998 0.994444 -0.058558
C86   C     C_R   0.237557 0.835383 0.002745 -0.046959
C87   C     C_R   0.237528 0.163677 0.004888 -0.047814
C88   C     C_R   0.636654 0.754854 0.998132 -0.067715
C89   C     C_R   0.111474 0.449801 0.633116 -0.117692
C90   C     C_R   0.112601 0.550005 0.540500 -0.085551
C91   C     C_R   0.112867 0.449794 0.540538 -0.102697
C92   C     C_R   0.111275 0.549953 0.633114 -0.123582
C93   C     C_R   0.611473 0.949800 0.633117 -0.117690
C94   C     C_R   0.612595 0.050004 0.540497 -0.085554
C95   C     C_R   0.612860 0.949793 0.540534 -0.102772
C96   C     C_R   0.611275 0.049952 0.633115 -0.123589
H33   H     H_    0.109709 0.410317 0.666159 0.127239
H34   H     H_    0.111684 0.589551 0.505845 0.124437
H35   H     H_    0.112261 0.410268 0.505965 0.121731
H36   H     H_    0.109341 0.589434 0.666114 0.133196
H37   H     H_    0.609709 0.910316 0.666161 0.127199
H38   H     H_    0.611678 0.089549 0.505842 0.124421
H39   H     H_    0.612253 0.910267 0.505960 0.121588
H40   H     H_    0.609343 0.089433 0.666115 0.133170
C97   C     C_R   0.102635 0.499916 0.486812 0.121316
C98   C     C_R   0.098782 0.499872 0.670863 0.105426
C99   C     C_R   0.602626 0.999915 0.486808 0.121366
C100  C     C_R   0.598783 0.999871 0.670865 0.105465
O1    O     O_3   0.727820 0.402637 0.651475 -0.615797
C101  C     C_3   0.805139 0.379871 0.658020 -0.171194
H41   H     H_    0.861055 0.368391 0.744287 0.146159
H42   H     H_    0.831761 0.407954 0.622266 0.157436
H43   H     H_    0.782119 0.341195 0.608666 0.190934
O2    O     O_3   0.298868 0.598712 0.306057 -0.608553
C102  C     C_3   0.252160 0.618668 0.352269 -0.315119
H44   H     H_    0.271875 0.594914 0.426667 0.210971
H45   H     H_    0.174623 0.618589 0.291933 0.128969
H46   H     H_    0.273844 0.662170 0.378606 0.179858
O3    O     O_3   0.297177 0.400933 0.310083 -0.575887
C103  C     C_3   0.249891 0.384224 0.357353 -0.299795
H47   H     H_    0.173052 0.380733 0.294309 0.125206
H48   H     H_    0.264090 0.412691 0.424215 0.186570
H49   H     H_    0.275901 0.342624 0.394630 0.185422
O4    O     O_3   0.747786 0.600616 0.661637 -0.596236
C104  C     C_3   0.767818 0.601561 0.581928 -0.071767
H50   H     H_    0.712651 0.580358 0.504827 0.139408
H51   H     H_    0.837252 0.582765 0.614239 0.121739
H52   H     H_    0.770058 0.645284 0.560753 0.170163
O5    O     O_3   0.227824 0.902639 0.651469 -0.615824
C105  C     C_3   0.305144 0.879876 0.658010 -0.171114
H53   H     H_    0.361062 0.868396 0.744276 0.146125
H54   H     H_    0.331761 0.907961 0.622254 0.157462
H55   H     H_    0.282125 0.841200 0.608655 0.190968
O6    O     O_3   0.798869 0.098711 0.306069 -0.608523
C106  C     C_3   0.752165 0.118663 0.352289 -0.315118
H56   H     H_    0.771888 0.094908 0.426689 0.210969
H57   H     H_    0.674627 0.118582 0.291958 0.128945
H58   H     H_    0.773846 0.162166 0.378625 0.179854
O7    O     O_3   0.797174 0.900932 0.310088 -0.575864
C107  C     C_3   0.749887 0.884224 0.357357 -0.299877
H59   H     H_    0.673048 0.880733 0.294311 0.125183
H60   H     H_    0.764088 0.912691 0.424220 0.186583
H61   H     H_    0.775896 0.842624 0.394632 0.185412
O8    O     O_3   0.247790 0.100616 0.661638 -0.596230
C108  C     C_3   0.267818 0.101560 0.581925 -0.071717
H62   H     H_    0.212646 0.080360 0.504824 0.139390
H63   H     H_    0.337248 0.082760 0.614230 0.121721
H64   H     H_    0.270063 0.145283 0.560753 0.170173
N33   N     N_R   0.420750 0.519744 0.555658 0.247438
O9    O     O_R   0.469758 0.533817 0.659463 -0.342223
O10   O     O_R   0.333862 0.504732 0.507411 -0.482039
N34   N     N_R   0.615698 0.482614 0.364948 0.252854
O11   O     O_R   0.570917 0.474491 0.259089 -0.317978
O12   O     O_R   0.706897 0.479350 0.428236 -0.402894
N35   N     N_R   0.920755 0.019742 0.555673 0.247433
O13   O     O_R   0.969765 0.033818 0.659476 -0.342208
O14   O     O_R   0.833870 0.004727 0.507432 -0.482042
N36   N     N_R   0.115690 0.982613 0.364947 0.252868
O15   O     O_R   0.070906 0.974489 0.259087 -0.317905
O16   O     O_R   0.206890 0.979351 0.428230 -0.402817
O17   O     O_3   0.561913 0.422877 0.615746 -0.591070
C109  C     C_3   0.483849 0.391080 0.589240 -0.063100
H65   H     H_    0.447836 0.371711 0.506477 0.170640
H66   H     H_    0.434034 0.415720 0.596525 0.178157
H67   H     H_    0.508765 0.356952 0.649612 0.180859
O18   O     O_3   0.460835 0.579268 0.294684 -0.565356
C110  C     C_3   0.535232 0.611860 0.312433 -0.091099
H68   H     H_    0.585355 0.586786 0.306075 0.169896
H69   H     H_    0.572178 0.633989 0.392814 0.122052
H70   H     H_    0.505635 0.643826 0.246640 0.163337
O19   O     O_3   0.465944 0.400570 0.350163 -0.561281
C111  C     C_3   0.542486 0.363591 0.397183 -0.010234
H71   H     H_    0.571304 0.353845 0.484561 0.162150
H72   H     H_    0.598901 0.379385 0.390737 0.165014
H73   H     H_    0.517322 0.324129 0.350489 0.147820
O20   O     O_3   0.566981 0.602256 0.562886 -0.585207
C112  C     C_3   0.491950 0.639808 0.519838 -0.000750
H74   H     H_    0.442196 0.626589 0.539433 0.171173
H75   H     H_    0.455506 0.646533 0.429810 0.166170
H76   H     H_    0.520929 0.680426 0.560104 0.181679
O21   O     O_3   0.061920 0.922875 0.615757 -0.591070
C113  C     C_3   0.983856 0.891079 0.589257 -0.063028
H77   H     H_    0.947837 0.871711 0.506491 0.170623
H78   H     H_    0.934044 0.915719 0.596547 0.178157
H79   H     H_    0.008774 0.856950 0.649628 0.180815
O22   O     O_3   0.960829 0.079266 0.294689 -0.565372
C114  C     C_3   0.035224 0.111858 0.312433 -0.090830
H80   H     H_    0.085346 0.086785 0.306072 0.169828
H81   H     H_    0.072172 0.133988 0.392813 0.122067
H82   H     H_    0.005624 0.143824 0.246638 0.163405
O23   O     O_3   0.965943 0.900568 0.350172 -0.561301
C115  C     C_3   0.042485 0.863589 0.397191 -0.010101
H83   H     H_    0.071301 0.853842 0.484569 0.162129
H84   H     H_    0.098901 0.879385 0.390748 0.165052
H85   H     H_    0.017320 0.824128 0.350494 0.147829
O24   O     O_3   0.066984 0.102255 0.562892 -0.585249
C116  C     C_3   0.991953 0.139807 0.519847 -0.000501
H86   H     H_    0.942202 0.126589 0.539447 0.171102
H87   H     H_    0.955506 0.146532 0.429818 0.166245
H88   H     H_    0.020934 0.180425 0.560110 0.181738
N37   N     N_R   0.020550 0.758985 0.791332 0.209760
O25   O     O_R   0.021969 0.753135 0.704848 -0.432240
O26   O     O_R   0.940398 0.758716 0.779290 -0.402866
N38   N     N_R   0.808061 0.347050 0.203535 0.225179
O27   O     O_R   0.850895 0.320471 0.297181 -0.408358
O28   O     O_R   0.808243 0.400935 0.204451 -0.349139
N39   N     N_R   0.811447 0.653095 0.206743 0.220318
O29   O     O_R   0.811199 0.599221 0.208157 -0.362492
O30   O     O_R   0.855282 0.679796 0.300198 -0.408254
N40   N     N_R   0.012658 0.236473 0.799185 0.224173
O31   O     O_R   0.939450 0.244104 0.800810 -0.409082
O32   O     O_R   0.000853 0.230942 0.704437 -0.434743
N41   N     N_R   0.520510 0.259034 0.791431 0.209794
O33   O     O_R   0.521875 0.253202 0.704906 -0.432287
O34   O     O_R   0.440390 0.258730 0.779462 -0.402808
N42   N     N_R   0.307697 0.847241 0.203342 0.225394
O35   O     O_R   0.349691 0.820872 0.297111 -0.407805
O36   O     O_R   0.308141 0.901121 0.203907 -0.349190
N43   N     N_R   0.311445 0.153094 0.206741 0.220319
O37   O     O_R   0.311198 0.099220 0.208154 -0.362407
O38   O     O_R   0.355279 0.179794 0.300197 -0.408275
N44   N     N_R   0.512657 0.736472 0.799188 0.224176
O39   O     O_R   0.439451 0.744104 0.800815 -0.409080
O40   O     O_R   0.500848 0.730936 0.704438 -0.434767

loop_
_geom_bond_atom_site_label_1
_geom_bond_atom_site_label_2
_geom_bond_distance
_ccdc_geom_bond_type
C67   C79   1.392687 A    
N43   O37   1.301793 A    
C46   C61   1.425307 S    
C21   N21   1.334078 A    
C31   N31   1.325093 A    
C32   O8    1.385527 S    
C21   C43   1.382212 A    
N40   O31   1.301711 A    
C35   C81   1.481034 S    
C74   N38   1.436333 S    
C53   C55   1.539977 S    
C65   C82   1.403851 A    
C33   C83   1.477447 S    
C59   N35   1.459227 S    
C68   C83   1.406080 A    
C111  H71   1.108873 S    
C14   H14   1.074027 S    
C11   C34   1.389781 A    
C69   C86   1.403840 A    
C104  H51   1.108468 S    
C101  H41   1.104598 S    
C90   C97   1.402123 A    
C113  H78   1.106451 S    
C72   C87   1.406080 A    
C24   N24   1.334007 A    
C23   C44   1.389530 A    
C106  H58   1.109279 S    
C3    N3    1.336487 A    
C4    H4    1.074452 S    
C75   C83   1.408801 A    
C5    H5    1.076069 S    
N5    N16   1.404505 A    
C7    H7    1.068455 S    
N6    N15   1.404505 A    
N25   Ni4   1.884174 S    
C8    H8    1.074427 S    
N7    N14   1.404561 A    
C58   N34   1.457448 S    
C109  H66   1.106445 S    
C25   N25   1.337733 A    
C89   C91   1.383369 A    
C90   C92   1.383211 A    
C70   C74   1.394885 A    
C94   H38   1.080170 S    
C105  H53   1.104597 S    
C32   C47   1.362696 A    
O3    C103  1.412544 S    
C103  H49   1.109100 S    
C9    N9    1.340697 A    
O6    C106  1.414303 S    
N19   Ni1   1.845588 S    
C11   H11   1.074555 S    
C96   C100  1.401706 A    
C12   N12   1.338781 A    
C13   N13   1.340800 A    
C109  H67   1.103669 S    
C49   O17   1.414173 S    
C25   O1    1.383558 S    
N35   O13   1.300455 A    
C22   N22   1.335106 A    
N17   N20   1.406557 A    
N28   Ni1   1.887553 S    
C54   C60   1.539521 S    
N36   O16   1.300304 A    
N22   Ni8   1.847517 S    
N32   Ni5   1.887553 S    
C116  H87   1.108053 S    
C68   C80   1.394240 A    
C29   C47   1.364869 A    
C69   C73   1.388407 A    
C66   H26   1.078552 S    
O4    C104  1.409337 S    
C114  H81   1.109976 S    
C54   O22   1.412723 S    
C111  H73   1.109066 S    
N41   O34   1.301428 A    
N11   Ni4   1.842117 S    
N39   O30   1.301551 A    
C53   C64   1.551703 S    
C54   C56   1.543672 S    
C3    H3    1.068479 S    
C17   C41   1.382209 A    
C4    N4    1.328668 A    
C65   H25   1.076364 S    
C107  H59   1.108731 S    
C32   N32   1.322842 A    
O2    C102  1.414304 S    
C23   N23   1.335057 A    
C79   C87   1.408800 A    
N4    Ni4   1.849840 S    
C80   N44   1.433869 S    
N8    Ni8   1.849840 S    
N29   Ni8   1.884174 S    
N31   Ni6   1.887552 S    
C65   C77   1.388495 A    
C112  H74   1.107925 S    
N14   Ni5   1.845390 S    
C67   C84   1.407807 A    
N43   O38   1.301552 A    
O21   C113  1.407713 S    
C17   H17   1.078900 S    
C37   C87   1.477449 S    
C20   H20   1.078629 S    
C21   H21   1.078899 S    
C115  H83   1.108880 S    
C23   H23   1.076444 S    
C66   C78   1.395096 A    
C24   H24   1.078632 S    
C12   C33   1.400484 A    
C42   C98   1.461269 S    
O17   C109  1.407706 S    
N3    N10   1.404561 A    
C50   O18   1.412724 S    
C89   H33   1.080574 S    
C71   H31   1.078279 S    
C16   C37   1.400483 A    
C29   N29   1.337738 A    
C93   C95   1.383368 A    
C94   C96   1.383208 A    
C78   N42   1.436502 S    
N37   O25   1.301121 A    
C18   C42   1.389964 A    
C30   C48   1.374306 A    
C49   C62   1.551697 S    
C113  H79   1.103688 S    
C6    C38   1.379101 A    
C108  H62   1.106428 S    
N42   O36   1.301740 A    
N21   N24   1.406557 A    
C27   O3    1.382494 S    
N2    Ni2   1.847805 S    
C57   C61   1.541037 S    
N33   O9    1.300453 A    
C6    H6    1.070583 S    
N6    Ni6   1.847805 S    
C59   C63   1.541035 S    
C107  H61   1.109100 S    
C5    N5    1.333023 A    
C110  H69   1.109977 S    
C19   N19   1.335058 A    
C72   C76   1.394239 A    
C115  H84   1.108852 S    
N35   O14   1.299108 A    
C71   C75   1.392687 A    
C92   H36   1.080501 S    
C54   C63   1.548482 S    
C34   C84   1.481287 S    
C44   C100  1.461266 S    
C92   C98   1.401707 A    
C75   N39   1.436693 S    
C10   N10   1.337643 A    
C95   H39   1.080152 S    
N29   N32   1.339882 A    
C96   H40   1.080503 S    
C9    C36   1.401516 A    
C38   C88   1.481289 S    
C39   C85   1.481004 S    
C14   N14   1.337697 A    
C29   O5    1.383558 S    
C13   C40   1.401572 A    
C50   C52   1.543673 S    
C15   C38   1.389780 A    
N7    Ni7   1.849840 S    
C1    N1    1.333023 A    
C26   C46   1.374309 A    
N30   Ni7   1.884173 S    
C115  H85   1.109068 S    
C7    N7    1.336391 A    
C25   C45   1.364876 A    
N37   O26   1.301423 A    
C111  H72   1.108846 S    
C104  H50   1.106433 S    
C101  H42   1.113188 S    
C67   H27   1.078279 S    
C49   C57   1.524461 S    
N38   O27   1.301950 A    
C106  H57   1.109364 S    
C24   C43   1.382113 A    
C4    C36   1.390666 A    
N17   Ni3   1.847518 S    
C9    H9    1.075776 S    
C55   C63   1.546636 S    
C95   C99   1.402298 A    
C56   O24   1.412047 S    
C110  H68   1.109155 S    
N34   O11   1.300284 A    
C28   N28   1.322843 A    
O23   C115  1.409228 S    
O1    C101  1.404254 S    
C108  H64   1.109054 S    
C31   O7    1.382495 S    
C105  H54   1.113186 S    
N44   O39   1.301712 A    
N12   Ni3   1.842119 S    
O19   C111  1.409226 S    
C6    N6    1.333887 A    
C3    C35   1.381503 A    
C102  H46   1.109278 S    
C28   O4    1.385525 S    
C52   O20   1.412048 S    
C112  H76   1.107786 S    
C105  H55   1.109087 S    
C91   C97   1.402299 A    
N39   O29   1.301793 A    
N22   N23   1.406557 A    
C91   H35   1.080152 S    
C56   C59   1.527096 S    
C60   C64   1.541417 S    
C19   C42   1.389530 A    
C15   N15   1.343005 A    
C116  H86   1.107923 S    
C16   N16   1.338783 A    
C26   N26   1.326342 A    
N9    Ni2   1.845391 S    
C106  H56   1.105607 S    
C18   H18   1.076177 S    
C1    H1    1.076069 S    
C52   C57   1.527091 S    
N30   N31   1.339882 A    
C22   H22   1.076176 S    
C10   C35   1.387697 A    
C49   C51   1.539976 S    
C104  H52   1.109056 S    
C30   O6    1.382004 S    
C43   C99   1.460676 S    
C14   C39   1.387734 A    
C70   H30   1.078554 S    
C41   C97   1.460678 S    
O7    C107  1.412541 S    
C90   H34   1.080169 S    
C76   N40   1.433867 S    
C107  H60   1.109098 S    
C109  H65   1.107353 S    
O20   C112  1.404525 S    
O18   C110  1.406941 S    
C71   C88   1.407806 A    
C78   C86   1.408766 A    
N13   Ni6   1.845391 S    
N40   O32   1.300631 A    
N18   Ni4   1.847517 S    
C56   C64   1.552339 S    
C68   H28   1.080406 S    
C69   H29   1.076340 S    
N27   Ni2   1.887552 S    
C113  H77   1.107362 S    
N1    N12   1.404505 A    
C102  H44   1.105608 S    
C72   H32   1.080405 S    
N2    N11   1.404505 A    
C103  H47   1.108729 S    
C27   N27   1.325094 A    
C48   C63   1.425300 S    
O22   C114  1.406942 S    
C79   N43   1.436693 S    
N36   O15   1.300284 A    
N10   Ni1   1.845390 S    
C11   N11   1.343003 A    
O24   C116  1.404526 S    
C12   H12   1.075229 S    
C2    C34   1.379102 A    
N26   N27   1.339882 A    
C116  H88   1.107787 S    
C13   H13   1.075844 S    
C57   N33   1.459228 S    
C36   C82   1.476835 S    
C76   C84   1.410350 A    
C89   C98   1.401547 A    
C77   C85   1.409208 A    
C101  H43   1.109085 S    
N5    Ni5   1.847805 S    
C26   O2    1.382007 S    
C40   C86   1.476839 S    
C80   C88   1.410350 A    
C2    N2    1.333889 A    
O5    C105  1.404252 S    
C8    C40   1.390599 A    
C114  H82   1.109056 S    
N4    N9    1.404561 A    
C55   C60   1.535034 S    
N41   O33   1.301122 A    
C17   N17   1.334081 A    
N8    N13   1.404561 A    
C93   H37   1.080573 S    
N15   Ni8   1.842117 S    
C20   C41   1.382108 A    
C8    N8    1.328587 A    
C10   H10   1.074009 S    
C55   O23   1.412644 S    
C74   C82   1.408724 A    
C27   C46   1.371875 A    
C110  H70   1.109056 S    
C20   N20   1.334016 A    
C73   C81   1.409182 A    
C30   N30   1.326344 A    
C51   C58   1.535033 S    
C52   C62   1.552339 S    
C22   C44   1.389963 A    
N20   Ni2   1.845590 S    
N24   Ni6   1.845590 S    
C112  H75   1.108054 S    
C53   O21   1.414181 S    
O8    C108  1.409338 S    
C50   C61   1.548481 S    
C58   C62   1.541418 S    
C73   N37   1.430886 S    
N1    Ni1   1.847805 S    
C70   C85   1.409270 A    
C45   C62   1.434947 S    
N26   Ni3   1.884173 S    
C47   C64   1.434941 S    
C18   N18   1.335108 A    
C51   O19   1.412646 S    
N38   O28   1.301876 A    
C31   C48   1.371865 A    
C19   H19   1.076443 S    
C114  H80   1.109155 S    
C2    H2    1.070581 S    
N25   N28   1.339882 A    
C28   C45   1.362701 A    
C1    C33   1.391487 A    
C77   N41   1.430880 S    
N34   O12   1.300304 A    
C5    C37   1.391485 A    
C108  H63   1.108464 S    
C7    C39   1.381457 A    
C51   C61   1.546636 S    
N42   O35   1.301504 A    
C53   C59   1.524464 S    
N33   O10   1.299107 A    
N44   O40   1.300630 A    
N21   Ni7   1.847518 S    
N23   Ni5   1.845588 S    
C15   H15   1.074555 S    
N18   N19   1.406557 A    
C66   C81   1.409303 A    
C16   H16   1.075228 S    
C102  H45   1.109364 S    
C50   C58   1.539524 S    
N16   Ni7   1.842119 S    
C93   C100  1.401546 A    
C94   C99   1.402125 A    
C60   N36   1.457445 S    
N3    Ni3   1.849840 S    
C103  H48   1.109096 S    
