data_mof_unit_41478.cif
_audit_creation_date              2012-12-11T15:47:01-0500
_audit_creation_method            fapswitch 2.2
_symmetry_space_group_name_H-M    P1
_symmetry_Int_Tables_number       1
_space_group_crystal_system       triclinic
_cell_length_a                    20.198521
_cell_length_b                    7.264101
_cell_length_c                    13.595667
_cell_angle_alpha                 89.998117
_cell_angle_beta                  103.096208
_cell_angle_gamma                 90.002089
_cell_volume                      1942.92882339

loop_
_atom_site_label
_atom_site_type_symbol
_atom_type_description
_atom_site_fract_x
_atom_site_fract_y
_atom_site_fract_z
_atom_type_partial_charge
O1    O     O_R   0.449560 0.506810 0.599700 -0.527192
O2    O     O_R   0.550440 0.006810 0.400300 -0.527160
O3    O     O_R   0.587960 0.180060 0.595760 -0.542564
O4    O     O_R   0.412040 0.680060 0.404240 -0.542451
C1    C     C_R   0.614673 0.344466 0.617693 0.719472
C2    C     C_R   0.385329 0.844467 0.382302 0.719594
O5    O     O_R   0.452380 0.177430 0.611700 -0.542562
O6    O     O_R   0.547620 0.677430 0.388300 -0.542504
O7    O     O_R   0.413900 0.001890 0.416350 -0.537372
O8    O     O_R   0.586100 0.501890 0.583650 -0.537388
C3    C     C_R   0.436332 0.345178 0.637510 0.829330
C4    C     C_R   0.563670 0.845184 0.362493 0.829448
O9    O     O_3   0.487530 0.337490 0.435890 -0.384627
O10   O     O_3   0.512470 0.837490 0.564110 -0.384765
V1    V     V_3+5 0.502310 0.064660 0.511890 1.501521
V2    V     V_3+5 0.497690 0.564660 0.488110 1.501753
C5    C     C_R   0.613422 0.752088 0.118537 -0.251081
C6    C     C_R   0.386567 0.252066 0.881461 -0.251396
H1    H     H_    0.589260 0.705105 0.043717 0.168253
H2    H     H_    0.410745 0.205042 0.956269 0.168619
C7    C     C_R   0.603978 0.847437 0.285219 -0.167937
C8    C     C_R   0.396021 0.347419 0.714781 -0.168167
C9    C     C_R   0.926083 0.970077 0.303858 -0.216230
C10   C     C_R   0.073915 0.470087 0.696133 -0.216226
C11   C     C_R   0.885420 0.058456 0.358682 -0.236176
C12   C     C_R   0.114579 0.558483 0.641311 -0.236151
C13   C     C_R   0.813868 0.041832 0.330026 0.517996
C14   C     C_R   0.186131 0.541871 0.669969 0.517926
C15   C     C_R   0.785438 0.903458 0.259185 0.039320
C16   C     C_R   0.214561 0.403508 0.740817 0.039303
C17   C     C_R   0.826402 0.830904 0.195701 -0.056548
C18   C     C_R   0.173597 0.330967 0.804309 -0.056562
C19   C     C_R   0.715085 0.854423 0.240411 0.010753
C20   C     C_R   0.284914 0.354477 0.759595 0.010834
C21   C     C_R   0.684314 0.772882 0.145991 -0.020852
C22   C     C_R   0.315682 0.272968 0.854029 -0.021190
C23   C     C_R   0.725167 0.709291 0.081744 0.309139
C24   C     C_R   0.274834 0.209500 0.918313 0.309061
C25   C     C_R   0.795291 0.731807 0.108904 -0.144563
C26   C     C_R   0.204711 0.231961 0.891139 -0.144511
C27   C     C_R   0.674905 0.873484 0.313741 0.198146
C28   C     C_R   0.325096 0.373524 0.686263 0.198216
C29   C     C_R   0.572749 0.790382 0.187187 0.360194
C30   C     C_R   0.427233 0.290267 0.812802 0.360192
C31   C     C_R   0.896816 0.871494 0.216625 -0.076743
C32   C     C_R   0.103181 0.371519 0.783373 -0.076734
H3    H     H_    0.980071 0.000224 0.321503 0.124518
H4    H     H_    0.019926 0.500217 0.678484 0.124509
H5    H     H_    0.910614 0.151732 0.417213 0.104716
H6    H     H_    0.089384 0.651761 0.582780 0.104713
H7    H     H_    0.824908 0.674945 0.059243 0.179100
H8    H     H_    0.175097 0.175159 0.940825 0.179139
C33   C     C_R   0.211864 0.012789 0.238897 -0.131398
C34   C     C_R   0.788137 0.512797 0.761109 -0.131463
H9    H     H_    0.182323 0.137899 0.234696 0.178472
H10   H     H_    0.817676 0.637915 0.765319 0.178472
C35   C     C_R   0.277419 0.011859 0.301059 -0.100692
C36   C     C_R   0.722583 0.511866 0.698945 -0.100789
H11   H     H_    0.296479 0.136250 0.341615 0.170408
H12   H     H_    0.703520 0.636267 0.658400 0.170391
C37   C     C_R   0.316800 0.850828 0.313230 -0.085521
C38   C     C_R   0.683206 0.350823 0.686758 -0.085403
C39   C     C_R   0.289673 0.692750 0.259821 -0.137887
C40   C     C_R   0.710340 0.192729 0.740148 -0.137777
H13   H     H_    0.318760 0.566401 0.267961 0.160267
H14   H     H_    0.681266 0.066355 0.731980 0.160179
C41   C     C_R   0.225777 0.694580 0.193428 0.289928
C42   C     C_R   0.774229 0.194566 0.806557 0.289969
C43   C     C_R   0.184725 0.855424 0.183352 -0.095792
C44   C     C_R   0.815276 0.355423 0.816647 -0.095746
O11   O     O_R   0.913920 0.203370 0.916260 -0.510636
O12   O     O_R   0.086080 0.703370 0.083740 -0.510628
O13   O     O_R   0.047620 0.535540 0.888290 -0.530649
O14   O     O_R   0.952380 0.035540 0.111710 -0.530643
C45   C     C_R   0.064275 0.368950 0.862743 0.721536
C46   C     C_R   0.935720 0.868943 0.137251 0.721585
O15   O     O_R   0.912040 0.532780 0.904220 -0.542006
O16   O     O_R   0.087960 0.032780 0.095780 -0.542000
O17   O     O_R   0.949550 0.708160 0.099720 -0.547328
O18   O     O_R   0.050450 0.208160 0.900280 -0.547323
C47   C     C_R   0.884985 0.364217 0.884028 0.704252
C48   C     C_R   0.115015 0.864218 0.115972 0.704240
O19   O     O_3   0.012480 0.375300 0.064060 -0.371046
O20   O     O_3   0.987520 0.875300 0.935940 -0.371053
V3    V     V_3+5 0.997690 0.648180 0.988110 1.511012
V4    V     V_3+5 0.002310 0.148180 0.011890 1.511023
O21   O     O_3   0.502132 0.776502 0.161626 -0.555670
C49   C     C_3   0.479503 0.617381 0.103787 0.075246
H15   H     H_    0.514508 0.497824 0.125286 0.129165
H16   H     H_    0.473556 0.648432 0.022156 0.147312
C50   C     C_3   0.410640 0.561934 0.121424 -0.606746
H17   H     H_    0.374348 0.678454 0.103386 0.262259
H18   H     H_    0.390162 0.443450 0.072726 0.209592
H19   H     H_    0.416261 0.521391 0.201588 0.211549
O22   O     O_3   0.497835 0.276105 0.838392 -0.555541
C51   C     C_3   0.520292 0.116187 0.895621 0.075314
H20   H     H_    0.485150 0.997027 0.873697 0.128819
H21   H     H_    0.526289 0.146209 0.977372 0.147594
C52   C     C_3   0.589078 0.060651 0.877742 -0.607418
H22   H     H_    0.625560 0.176635 0.896468 0.262178
H23   H     H_    0.609332 0.941157 0.925773 0.209665
H24   H     H_    0.583416 0.021576 0.797361 0.211639
Br1   Br    Br    0.202156 0.473382 0.116084 -0.562401
Br2   Br    Br    0.797838 0.973369 0.883916 -0.562418
Br3   Br    Br    0.689165 0.575104 0.959171 -0.580974
Br4   Br    Br    0.310852 0.075667 0.041003 -0.581258
Br5   Br    Br    0.715327 0.883625 0.457906 -0.640496
Br6   Br    Br    0.284675 0.383693 0.542098 -0.640453
O23   O     O_3   0.769158 0.171800 0.354476 -0.539300
C53   C     C_3   0.799123 0.297644 0.430446 0.107444
H25   H     H_    0.834320 0.391767 0.402540 0.117790
H26   H     H_    0.825867 0.224429 0.500158 0.135841
C54   C     C_3   0.743228 0.413143 0.456919 -0.606295
H27   H     H_    0.706793 0.323268 0.484271 0.227734
H28   H     H_    0.765981 0.512362 0.517023 0.192768
H29   H     H_    0.715527 0.488898 0.389079 0.234541
O24   O     O_3   0.230842 0.671856 0.645522 -0.539332
C55   C     C_3   0.200881 0.797669 0.569533 0.107482
H30   H     H_    0.165684 0.891808 0.597426 0.117791
H31   H     H_    0.174134 0.724424 0.499833 0.135846
C56   C     C_3   0.256776 0.913150 0.543036 -0.606328
H32   H     H_    0.293198 0.823261 0.515672 0.227719
H33   H     H_    0.234021 0.012372 0.482932 0.192745
H34   H     H_    0.284490 0.988915 0.610864 0.234529

loop_
_geom_bond_atom_site_label_1
_geom_bond_atom_site_label_2
_ccdc_geom_bond_type
C36   C38   A    
C25   H7    S    
O21   C49   S    
C39   H13   S    
O4    V2    S    
C9    C31   A    
C13   C15   A    
O22   C51   S    
O1    C3    A    
C46   O17   A    
C33   C43   A    
C2    O7    A    
O12   V3    S    
C41   Br1   S    
C9    C11   A    
O5    C3    A    
O14   C46   A    
C31   C46   S    
C40   C42   A    
C2    C37   S    
C21   C23   A    
C10   C12   A    
C14   O24   S    
C12   H6    S    
C35   H11   S    
C36   H12   S    
C51   C52   S    
C15   C19   A    
C37   C39   A    
C44   C47   S    
C55   H30   S    
C56   H34   S    
O18   V4    S    
C43   C48   S    
C19   C21   A    
C53   H25   S    
C8    C30   A    
C20   C28   A    
C11   H5    S    
C51   H21   S    
C38   C40   A    
C45   O18   A    
C20   C22   A    
C54   H29   S    
O16   V4    S    
O5    V1    S    
O2    C4    A    
O6    V2    S    
C24   C26   A    
C7    C29   A    
O13   C45   A    
C32   C45   S    
C39   C41   A    
C33   H9    S    
C34   H10   S    
C9    H3    S    
C16   C20   A    
C10   H4    S    
O20   V3    S    
O4    C2    A    
C50   H17   S    
C33   C35   A    
C26   H8    S    
C4    C7    S    
C41   C43   A    
C55   C56   S    
C40   H14   S    
C24   Br4   S    
C5    C29   A    
C23   Br3   S    
C6    C30   A    
C50   H18   S    
O11   V4    S    
O16   C48   A    
C52   H22   S    
C34   C44   A    
C49   C50   S    
O15   C47   A    
O6    C4    A    
C51   H20   S    
O19   V4    S    
O1    V2    S    
O14   V4    S    
O2    V1    S    
C53   C54   S    
O13   V3    S    
C56   H32   S    
C7    C27   A    
C55   H31   S    
C42   C44   A    
C52   H23   S    
C49   H16   S    
O17   V3    S    
O3    V1    S    
C54   H27   S    
C34   C36   A    
C27   Br5   S    
C18   C32   A    
C42   Br2   S    
O3    C1    A    
C35   C37   A    
C11   C13   A    
C3    C8    S    
C12   C14   A    
C29   O21   S    
C14   C16   A    
O7    V1    S    
C19   C27   A    
C1    O8    A    
C15   C17   A    
C30   O22   S    
O8    V2    S    
O23   C53   S    
C50   H19   S    
C16   C18   A    
C8    C28   A    
C28   Br6   S    
C22   C24   A    
C5    H1    S    
C17   C25   A    
C1    C38   S    
C6    H2    S    
C18   C26   A    
C53   H26   S    
C56   H33   S    
O15   V3    S    
C52   H24   S    
C49   H15   S    
C13   O23   S    
C23   C25   A    
C17   C31   A    
O9    V2    S    
O10   V1    S    
C5    C21   A    
O11   C47   A    
O24   C55   S    
C6    C22   A    
O12   C48   A    
C10   C32   A    
C54   H28   S    
