data_mof_unit_24536.cif
_audit_creation_date              2012-10-26T19:21:34-0400
_audit_creation_method            fapswitch 2.2
_symmetry_space_group_name_H-M    P1
_symmetry_Int_Tables_number       1
_space_group_crystal_system       triclinic
_cell_length_a                    9.754021
_cell_length_b                    10.868993
_cell_length_c                    15.879197
_cell_angle_alpha                 93.818083
_cell_angle_beta                  79.655185
_cell_angle_gamma                 109.500562
_cell_volume                      1561.05394599

loop_
_atom_site_label
_atom_site_type_symbol
_atom_type_description
_atom_site_fract_x
_atom_site_fract_y
_atom_site_fract_z
_atom_type_partial_charge
C1    C     C_R   0.556167 0.745932 0.500831 0.546586
C2    C     C_2   0.548760 0.075101 0.439704 0.009202
C3    C     C_2   0.927524 0.496780 0.489208 -0.030381
C4    C     C_2   0.077727 0.512283 0.506210 -0.030180
C5    C     C_R   0.411549 0.486181 0.662662 0.553943
C6    C     C_R   0.588227 0.512641 0.337330 0.533661
C7    C     C_R   0.358562 0.471990 0.755371 -0.006070
C8    C     C_R   0.639125 0.515194 0.244369 -0.008601
C9    C     C_R   0.161834 0.417490 0.877363 -0.135588
C10   C     C_R   0.829644 0.530117 0.121147 -0.136098
C11   C     C_R   0.208112 0.435206 0.789449 -0.138617
C12   C     C_R   0.449629 0.254787 0.489127 0.548361
C13   C     C_R   0.786083 0.530066 0.209646 -0.142678
C14   C     C_R   0.461751 0.491166 0.810076 -0.132662
C15   C     C_R   0.536404 0.499273 0.189800 -0.137730
C16   C     C_R   0.417808 0.468710 0.898470 0.032241
C17   C     C_R   0.575882 0.493137 0.100500 0.031366
C18   C     C_R   0.265187 0.434377 0.931996 0.052560
C19   C     C_R   0.726166 0.512525 0.066488 0.052292
C20   C     C_R   0.521149 0.480947 0.954323 0.033016
C21   C     C_R   0.470966 0.470765 0.044297 0.032481
C22   C     C_3   0.702950 0.168534 0.407272 -0.251994
C23   C     C_R   0.317345 0.435270 0.074901 -0.140877
C24   C     C_3   0.804141 0.106001 0.348309 -0.450303
C25   C     C_3   0.424097 0.846384 0.376403 -0.243240
C26   C     C_3   0.395665 0.919629 0.305828 -0.447718
C27   C     C_R   0.672184 0.499711 0.923156 -0.138444
C28   C     C_R   0.216901 0.416600 0.019591 -0.137600
C29   C     C_R   0.771949 0.514246 0.978333 -0.136392
C30   C     C_2   0.585214 0.885770 0.491010 -0.126384
C31   C     C_2   0.434053 0.116575 0.474503 -0.124359
C32   C     C_2   0.521728 0.933294 0.437174 0.003763
Cu1   Cu    Cu3+1 0.362980 0.479380 0.485080 0.912209
Cu2   Cu    Cu3+1 0.637020 0.520620 0.514920 0.919842
H1    H     H_    0.100261 0.388520 0.045789 0.101398
H2    H     H_    0.882503 0.606360 0.588683 0.201491
H3    H     H_    0.867254 0.542285 0.250699 0.122795
H4    H     H_    0.126423 0.419719 0.748301 0.128619
H5    H     H_    0.044944 0.389380 0.902650 0.102003
H6    H     H_    0.944354 0.543705 0.095344 0.102818
H7    H     H_    0.831517 0.035068 0.383718 0.157765
H8    H     H_    0.751701 0.056310 0.293257 0.158167
H9    H     H_    0.908950 0.183128 0.323107 0.122020
H10   H     H_    0.693450 0.247617 0.370090 0.155514
H11   H     H_    0.756871 0.211802 0.463163 0.158416
H12   H     H_    0.886402 0.528194 0.951632 0.102636
H13   H     H_    0.328011 0.981482 0.333251 0.153439
H14   H     H_    0.501187 0.981136 0.268576 0.157156
H15   H     H_    0.333894 0.848014 0.261386 0.136311
H16   H     H_    0.478197 0.776595 0.343973 0.163693
H17   H     H_    0.315661 0.790356 0.413761 0.166490
H18   H     H_    0.121675 0.578625 0.556360 0.147041
H19   H     H_    0.888054 0.437884 0.435228 0.134707
H20   H     H_    0.426308 0.494633 0.218623 0.121666
H21   H     H_    0.576572 0.525932 0.782119 0.123298
H22   H     H_    0.269764 0.416639 0.141338 0.098835
H23   H     H_    0.716999 0.499684 0.856066 0.102167
H24   H     H_    0.324714 0.045741 0.492259 0.091225
H25   H     H_    0.661483 0.952685 0.528750 0.094195
H26   H     H_    0.113317 0.386284 0.415121 0.199137
N1    N     N_2   0.842890 0.551600 0.537350 -0.352382
N2    N     N_2   0.157110 0.448400 0.462650 -0.357125
O1    O     O_R   0.426810 0.668300 0.492040 -0.502117
O2    O     O_R   0.573190 0.331700 0.507960 -0.493931
O3    O     O_R   0.658240 0.703130 0.517240 -0.481295
O4    O     O_R   0.341760 0.296870 0.482760 -0.482267
O5    O     O_R   0.319390 0.472820 0.610170 -0.492985
O6    O     O_R   0.680610 0.527180 0.389830 -0.505004
O7    O     O_R   0.550820 0.507640 0.635370 -0.495003
O8    O     O_R   0.449180 0.492360 0.364630 -0.506502

loop_
_geom_bond_atom_site_label_1
_geom_bond_atom_site_label_2
_ccdc_geom_bond_type
C2    C22   S    
C11   H4    S    
C7    C11   A    
C17   C21   A    
C25   H17   S    
C6    O8    A    
C8    C13   A    
C20   C27   A    
C27   C29   A    
C3    H19   S    
C29   H12   S    
C13   H3    S    
C26   H14   S    
C10   C19   A    
Cu1   O1    S    
C30   H25   S    
C25   C32   S    
C6    O6    A    
C14   H21   S    
C18   C28   A    
C23   H22   S    
C12   C31   S    
C10   C13   A    
C23   C28   A    
C30   C32   D    
C24   H7    S    
C9    C11   A    
Cu2   O7    S    
Cu1   O5    S    
C26   H13   S    
C4    H18   S    
C1    O1    A    
C2    C32   S    
H26   N2    S    
C16   C20   A    
C17   C19   A    
Cu2   O2    S    
Cu1   Cu2   S    
C8    C15   A    
C22   C24   S    
C3    N1    D    
C21   C23   A    
Cu1   O8    S    
C12   O2    A    
C2    C31   D    
C14   C16   A    
Cu1   O4    S    
C5    O5    A    
C3    C4    S    
C19   C29   A    
C15   H20   S    
C4    N2    D    
C9    C18   A    
C9    H5    S    
C22   H11   S    
C24   H8    S    
C20   C21   A    
C31   H24   S    
C16   C18   A    
C27   H23   S    
C26   H15   S    
Cu2   O6    S    
C15   C17   A    
C24   H9    S    
C5    C7    S    
C1    C30   S    
C10   H6    S    
C6    C8    S    
C25   C26   S    
C25   H16   S    
C12   O4    A    
C1    O3    A    
C5    O7    A    
C7    C14   A    
C22   H10   S    
H2    N1    S    
C28   H1    S    
Cu1   N2    S    
Cu2   N1    S    
Cu2   O3    S    
