data_mof_unit_64126.cif
_audit_creation_date              2012-12-10T16:49:05-0500
_audit_creation_method            fapswitch 2.2
_symmetry_space_group_name_H-M    P1
_symmetry_Int_Tables_number       1
_space_group_crystal_system       triclinic
_cell_length_a                    18.852867
_cell_length_b                    19.000448
_cell_length_c                    18.734804
_cell_angle_alpha                 109.788481
_cell_angle_beta                  109.200528
_cell_angle_gamma                 109.814095
_cell_volume                      5141.04704552

loop_
_atom_site_label
_atom_site_type_symbol
_atom_type_description
_atom_site_fract_x
_atom_site_fract_y
_atom_site_fract_z
_atom_type_partial_charge
C1    C     C_R   0.381055 0.383212 0.502450 0.919655
C2    C     C_2   0.317467 0.323732 0.510925 -0.342422
C3    C     C_2   0.490993 0.172856 0.249610 -0.156125
C4    C     C_R   0.498041 0.616839 0.620011 0.880894
C5    C     C_2   0.509375 0.185001 0.190181 -0.328935
C6    C     C_2   0.502197 0.245486 0.322331 -0.151344
C7    C     C_2   0.487018 0.305446 0.309986 -0.329990
C8    C     C_2   0.823755 0.747288 0.502608 -0.203007
C9    C     C_2   0.821056 0.819322 0.511296 0.290576
C10   C     C_2   0.763324 0.684833 0.513430 -0.118269
C11   C     C_2   0.680887 0.666975 0.480353 -0.242047
C12   C     C_R   0.496645 0.671390 0.759609 0.056397
C13   C     C_R   0.380601 0.994754 0.875866 0.980626
C14   C     C_R   0.503334 0.877690 0.880658 0.876047
C15   C     C_R   0.619870 0.997798 0.116304 0.779090
C16   C     C_R   0.618599 0.614219 0.495219 0.923515
C17   C     C_R   0.502088 0.116841 0.118635 0.928468
C18   C     C_R   0.876766 0.995414 0.381184 0.915445
C19   C     C_R   0.116683 0.118574 0.497227 0.941152
C20   C     C_R   0.121299 0.002223 0.619058 0.965686
C21   C     C_R   0.882057 0.881513 0.501895 0.791374
C22   C     C_2   0.249873 0.989699 0.670492 -0.285753
C23   C     C_R   0.496848 0.679711 0.687476 -0.080727
C24   C     C_2   0.194685 0.012250 0.687146 -0.373852
C25   C     C_2   0.323867 0.000330 0.741504 0.486342
C26   C     C_2   0.312547 0.986285 0.803513 -0.371301
C27   C     C_2   0.751139 0.013386 0.327889 -0.126276
C28   C     C_R   0.496949 0.377967 0.379396 0.928145
C29   C     C_2   0.799614 0.979454 0.312610 -0.238337
C30   C     C_2   0.679774 0.001233 0.253537 -0.205128
C31   C     C_2   0.689970 0.006528 0.187524 0.293040
C32   C     C_R   0.485794 0.595685 0.763816 -0.305726
C33   C     C_R   0.491153 0.591662 0.838835 0.514613
C34   C     C_R   0.501330 0.752027 0.681411 -0.199848
C35   C     C_R   0.507294 0.663341 0.909712 -0.131790
C36   C     C_R   0.514743 0.737019 0.905162 -0.284454
C37   C     C_R   0.506151 0.740616 0.828772 0.102499
C38   C     C_R   0.506229 0.817648 0.746934 -0.199267
C39   C     C_R   0.507592 0.811864 0.819468 -0.091298
C40   C     C_2   0.179544 0.257514 0.504875 -0.137735
C41   C     C_2   0.175639 0.181609 0.487837 -0.330871
C42   C     C_2   0.240781 0.318849 0.493827 -0.149158
H1    H     H_    0.501743 0.757973 0.625968 0.165564
H2    H     H_    0.763826 0.050078 0.393850 0.158175
H3    H     H_    0.780273 0.935265 0.245855 0.188427
H4    H     H_    0.620318 0.992195 0.255093 0.121641
H5    H     H_    0.513344 0.661720 0.968575 0.161631
H6    H     H_    0.528392 0.791159 0.962479 0.172804
H7    H     H_    0.507276 0.872436 0.740238 0.176890
H8    H     H_    0.135882 0.273272 0.523806 0.171381
H9    H     H_    0.212032 0.161733 0.459213 0.157375
H10   H     H_    0.224525 0.362021 0.475316 0.170359
H11   H     H_    0.337721 0.287807 0.539231 0.159352
H12   H     H_    0.471951 0.111064 0.247381 0.164820
H13   H     H_    0.768605 0.890662 0.536445 0.338219
H14   H     H_    0.656800 0.690441 0.437692 0.185464
H15   H     H_    0.242477 0.965914 0.605448 0.173221
H16   H     H_    0.396807 0.027310 0.691143 0.327121
H17   H     H_    0.248535 0.960988 0.797565 0.114968
H18   H     H_    0.765250 0.027262 0.137157 0.340230
H19   H     H_    0.470585 0.474098 0.789772 0.331738
H20   H     H_    0.537931 0.249275 0.198163 0.160086
H21   H     H_    0.519881 0.247986 0.384858 0.166239
H22   H     H_    0.459671 0.297590 0.245031 0.158950
H23   H     H_    0.872651 0.735828 0.490971 0.126981
H24   H     H_    0.786393 0.654720 0.548350 0.159339
H25   H     H_    0.471875 0.538930 0.708958 0.148629
H26   H     H_    0.206929 0.044430 0.753722 0.158129
O1    O     O_R   0.460610 0.409240 0.550770 -0.635028
O2    O     O_R   0.909530 0.949160 0.358700 -0.619915
O3    O     O_R   0.090460 0.141840 0.551380 -0.612553
O4    O     O_R   0.358470 0.409870 0.449260 -0.612223
O5    O     O_R   0.090460 0.039050 0.448590 -0.622585
O6    O     O_R   0.090470 0.050840 0.641300 -0.617717
O7    O     O_R   0.090460 0.948050 0.538510 -0.618030
O8    O     O_R   0.909540 0.960950 0.551410 -0.616932
O9    O     O_R   0.909540 0.858160 0.448620 -0.633219
O10   O     O_R   0.551070 0.590720 0.641790 -0.617954
O11   O     O_R   0.448930 0.591350 0.540280 -0.622570
O12   O     O_R   0.358520 0.946380 0.906940 -0.634334
O13   O     O_R   0.641530 0.590130 0.550740 -0.612136
O14   O     O_R   0.539390 0.590760 0.449230 -0.624839
O15   O     O_R   0.551070 0.408650 0.459720 -0.619384
O16   O     O_R   0.448930 0.409280 0.358210 -0.622537
O17   O     O_R   0.460650 0.048500 0.906910 -0.557581
O18   O     O_3   0.769147 0.840657 0.541755 -0.759904
O19   O     O_3   0.401594 0.019350 0.741843 -0.746698
O20   O     O_3   0.771186 0.033783 0.193952 -0.758508
O21   O     O_3   0.481581 0.519042 0.845008 -0.765049
O22   O     O_R   0.551120 0.956920 0.905770 -0.613235
O23   O     O_R   0.449000 0.854790 0.905800 -0.622180
O24   O     O_R   0.641600 0.047410 0.086710 -0.612532
O25   O     O_R   0.539480 0.945290 0.086740 -0.645542
O26   O     O_R   0.551130 0.138990 0.087850 -0.621549
O27   O     O_R   0.449000 0.036870 0.087880 -0.617556
O28   O     O_R   0.909540 0.051950 0.461490 -0.620825
Zn1   Zn    Zn3+2 0.568200 0.499580 0.567780 0.963575
Zn2   Zn    Zn3+2 0.431800 0.500420 0.432220 0.967224
Zn3   Zn    Zn3+2 0.568250 0.065080 0.996810 1.008158
Zn4   Zn    Zn3+2 0.431870 0.928710 0.996840 0.957449
Zn5   Zn    Zn3+2 1.000000 0.068630 0.568630 0.974078
Zn6   Zn    Zn3+2 1.000000 0.931370 0.431370 0.964996

loop_
_geom_bond_atom_site_label_1
_geom_bond_atom_site_label_2
_ccdc_geom_bond_type
C18   O2    A    
C28   O16   A    
C18   O28   A    
O11   Zn2   S    
C19   O3    A    
C35   C36   A    
C3    C6    S    
C35   H5    S    
H16   O19   S    
C22   H15   S    
H18   O20   S    
C38   H7    S    
O4    Zn2   S    
C21   O8    A    
C36   C37   A    
C38   C39   A    
C3    H12   S    
C5    C17   S    
C25   O19   S    
C27   C29   D    
C1    C2    S    
C12   C37   A    
C14   O22   A    
C14   C39   S    
C27   H2    S    
C20   C24   S    
C8    C9    D    
C22   C25   S    
O7    Zn6   S    
C17   O27   A    
O23   Zn4   S    
C26   H17   S    
C15   O24   A    
C40   C42   S    
O3    Zn5   S    
C13   O12   A    
C8    H23   S    
O28   Zn5   S    
O12   Zn4   S    
C28   O15   A    
O14   Zn2   S    
O9    Zn6   S    
H19   O21   S    
C10   H24   S    
C14   O23   A    
C1    O4    A    
C19   O5    A    
C4    O11   A    
C4    C23   S    
O27   Zn4   S    
C25   C26   D    
C1    O1    A    
C7    C28   S    
C20   O7    A    
C29   H3    S    
C6    H21   S    
C4    O10   A    
O17   Zn3   S    
C33   O21   S    
C9    O18   S    
C11   C16   S    
C12   C23   A    
C23   C34   A    
O10   Zn1   S    
C16   O14   A    
C20   O6    A    
C18   C29   S    
O25   Zn4   S    
O6    Zn5   S    
O5    Zn6   S    
C32   H25   S    
C22   C24   D    
C13   C26   S    
C21   O9    A    
O22   Zn3   S    
O8    Zn5   S    
C40   C41   D    
C31   O20   S    
C34   C38   A    
C30   H4    S    
C34   H1    S    
C3    C5    D    
C2    H11   S    
C15   O25   A    
O2    Zn6   S    
C15   C31   S    
C6    C7    D    
O16   Zn2   S    
C32   C33   A    
H13   O18   S    
C37   C39   A    
C9    C21   S    
C30   C31   D    
O13   Zn1   S    
O26   Zn3   S    
C2    C42   D    
C40   H8    S    
C16   O13   A    
C33   C35   A    
C5    H20   S    
C36   H6    S    
C7    H22   S    
C10   C11   D    
C24   H26   S    
C8    C10   S    
O15   Zn1   S    
C13   O17   A    
C17   O26   A    
C41   H9    S    
C12   C32   A    
C11   H14   S    
C19   C41   S    
O24   Zn3   S    
C42   H10   S    
C27   C30   S    
O1    Zn1   S    
