data_mof_unit_60468.cif
_audit_creation_date              2012-12-10T18:51:04-0500
_audit_creation_method            fapswitch 2.2
_symmetry_space_group_name_H-M    P1
_symmetry_Int_Tables_number       1
_space_group_crystal_system       triclinic
_cell_length_a                    37.107316
_cell_length_b                    30.270303
_cell_length_c                    21.705009
_cell_angle_alpha                 90.219999
_cell_angle_beta                  125.311367
_cell_angle_gamma                 89.80755
_cell_volume                      19894.5912059

loop_
_atom_site_label
_atom_site_type_symbol
_atom_type_description
_atom_site_fract_x
_atom_site_fract_y
_atom_site_fract_z
_atom_type_partial_charge
C1    C     C_R   0.413935 0.500006 0.914211 0.927868
C2    C     C_R   0.586103 0.499986 0.086067 0.922475
C3    C     C_R   0.913935 0.000006 0.914211 0.927854
C4    C     C_R   0.086103 0.999985 0.086068 0.922480
C5    C     C_2   0.508061 0.498142 0.823122 -0.422557
C6    C     C_2   0.489919 0.499331 0.174884 -0.428716
C7    C     C_2   0.008061 0.998142 0.823123 -0.422552
C8    C     C_2   0.989917 0.999332 0.174882 -0.428716
C9    C     C_R   0.296455 0.519830 0.842324 -0.240649
C10   C     C_R   0.703158 0.475117 0.159425 -0.236777
C11   C     C_R   0.796455 0.019845 0.842312 -0.240662
C12   C     C_R   0.203158 0.975118 0.159424 -0.236771
C13   C     C_R   0.342305 0.519140 0.890351 0.169769
C14   C     C_R   0.657220 0.474621 0.113318 0.155698
C15   C     C_R   0.842304 0.019155 0.890340 0.169780
C16   C     C_R   0.157220 0.974622 0.113316 0.155696
C17   C     C_R   0.366220 0.500021 0.865149 -0.085155
C18   C     C_R   0.633889 0.499967 0.133994 -0.111366
C19   C     C_R   0.866220 0.000021 0.865148 -0.085175
C20   C     C_R   0.133889 0.999967 0.133994 -0.111366
C21   C     C_R   0.344235 0.480632 0.792942 0.169247
C22   C     C_R   0.656528 0.525282 0.200800 0.161134
C23   C     C_R   0.844235 0.980621 0.792950 0.169250
C24   C     C_R   0.156528 0.025281 0.200801 0.161138
C25   C     C_R   0.298216 0.480205 0.746691 -0.246940
C26   C     C_R   0.702459 0.524452 0.247160 -0.241485
C27   C     C_R   0.798215 0.980195 0.746699 -0.246942
C28   C     C_R   0.202459 0.024452 0.247161 -0.241491
C29   C     C_R   0.274373 0.499894 0.771186 0.045130
C30   C     C_R   0.725722 0.499696 0.226368 0.042353
C31   C     C_R   0.774372 0.999897 0.771184 0.045126
C32   C     C_R   0.225722 0.999697 0.226368 0.042355
C33   C     C_R   0.203109 0.509203 0.646458 -0.178766
C34   C     C_R   0.796515 0.494282 0.352559 -0.179500
C35   C     C_R   0.703109 0.009199 0.646454 -0.178775
C36   C     C_R   0.296515 0.994282 0.352559 -0.179505
C37   C     C_R   0.157319 0.509306 0.601480 -0.199612
C38   C     C_R   0.842291 0.494505 0.398294 -0.199961
C39   C     C_R   0.657318 0.009301 0.601477 -0.199665
C40   C     C_R   0.342291 0.994505 0.398294 -0.199982
C41   C     C_R   0.134372 0.499489 0.633163 -0.030805
C42   C     C_R   0.865600 0.500057 0.366118 -0.033075
C43   C     C_R   0.634373 0.999490 0.633163 -0.030797
C44   C     C_R   0.365600 0.000058 0.366118 -0.033079
C45   C     C_R   0.502260 0.499768 0.883276 0.933109
C46   C     C_R   0.497328 0.500089 0.116382 0.942580
C47   C     C_R   0.002260 0.999768 0.883276 0.933093
C48   C     C_R   0.997327 0.000089 0.116381 0.942579
C49   C     C_R   0.157529 0.489039 0.709898 -0.198309
C50   C     C_R   0.842765 0.505548 0.287917 -0.196794
C51   C     C_R   0.657530 0.989048 0.709901 -0.198302
C52   C     C_R   0.342765 0.005550 0.287918 -0.196803
C53   C     C_R   0.203282 0.488548 0.754673 -0.178683
C54   C     C_R   0.797029 0.505511 0.242302 -0.181382
C55   C     C_R   0.703282 0.988558 0.754676 -0.178689
C56   C     C_R   0.297029 0.005512 0.242302 -0.181392
C57   C     C_R   0.226249 0.498982 0.723274 0.150072
C58   C     C_R   0.773774 0.499790 0.274450 0.150291
C59   C     C_R   0.726249 0.998985 0.723273 0.150073
C60   C     C_R   0.273774 0.999790 0.274450 0.150290
C61   C     C_R   0.500027 0.413689 0.500066 0.905535
C62   C     C_R   0.000027 0.913690 0.500066 0.905495
C63   C     C_R   0.499746 0.501811 0.618852 0.945206
C64   C     C_R   0.500345 0.501218 0.381297 0.942903
C65   C     C_R   0.999746 0.001810 0.618852 0.945197
C66   C     C_R   0.000345 0.001217 0.381297 0.942894
C67   C     C_R   0.499973 0.586314 0.499899 0.862680
C68   C     C_R   0.999973 0.086314 0.499899 0.862685
C69   C     C_R   0.999988 0.413549 0.499879 0.905597
C70   C     C_R   0.499988 0.913549 0.499879 0.905592
C71   C     C_R   0.086412 0.499915 0.586121 0.872368
C72   C     C_R   0.913579 0.500039 0.413779 0.873107
C73   C     C_R   0.586412 0.999916 0.586121 0.872284
C74   C     C_R   0.413579 0.000040 0.413779 0.873022
C75   C     C_R   0.000020 0.586314 0.500128 0.906670
C76   C     C_R   0.500019 0.086310 0.500127 0.906510
C77   C     C_R   0.466064 0.296090 0.437731 -0.233658
C78   C     C_R   0.534225 0.296351 0.563673 -0.233517
C79   C     C_R   0.966031 0.796095 0.437780 -0.233403
C80   C     C_R   0.034258 0.796355 0.563633 -0.233266
C81   C     C_R   0.999787 0.273682 0.499034 0.052787
C82   C     C_R   0.499787 0.773682 0.499035 0.052806
C83   C     C_R   0.466344 0.342029 0.435801 0.169988
C84   C     C_R   0.533855 0.342313 0.565105 0.170151
C85   C     C_R   0.966311 0.842031 0.435840 0.170023
C86   C     C_R   0.033887 0.842315 0.565073 0.170183
C87   C     C_R   0.500085 0.365486 0.500316 -0.110678
C88   C     C_R   0.000085 0.865489 0.500318 -0.110823
C89   C     C_R   0.500170 0.273631 0.500816 0.134551
C90   C     C_R   0.000170 0.773638 0.500821 0.134985
C91   C     C_R   0.024081 0.702776 0.478850 0.198026
C92   C     C_R   0.976427 0.702998 0.522897 0.197956
C93   C     C_R   0.524550 0.202760 0.479786 0.198177
C94   C     C_R   0.475954 0.202983 0.521957 0.198109
C95   C     C_R   0.023746 0.656789 0.478639 -0.275609
C96   C     C_R   0.976633 0.657004 0.522657 -0.275530
C97   C     C_R   0.524200 0.156771 0.479547 -0.275810
C98   C     C_R   0.476176 0.156987 0.521746 -0.275758
C99   C     C_R   0.000133 0.634078 0.500484 -0.086648
C100  C     C_R   0.500132 0.134067 0.500484 -0.086045
C101  C     C_R   0.000268 0.725785 0.500947 0.037694
C102  C     C_R   0.500266 0.225773 0.500945 0.037942
C103  C     C_R   0.459720 0.703218 0.458457 -0.180569
C104  C     C_R   0.539972 0.703194 0.539564 -0.180900
C105  C     C_R   0.959720 0.203217 0.458395 -0.180568
C106  C     C_R   0.039972 0.203195 0.539626 -0.180898
C107  C     C_R   0.459713 0.657448 0.458706 -0.198121
C108  C     C_R   0.540071 0.657429 0.539942 -0.197790
C109  C     C_R   0.959713 0.157447 0.458645 -0.198123
C110  C     C_R   0.040071 0.157429 0.540003 -0.197789
C111  C     C_R   0.499916 0.634325 0.499535 -0.026859
C112  C     C_R   0.999916 0.134325 0.499535 -0.026854
C113  C     C_R   0.999945 0.296515 0.442740 0.179520
C114  C     C_R   0.999674 0.296579 0.555573 0.178875
C115  C     C_R   0.499882 0.796515 0.442679 0.179518
C116  C     C_R   0.499737 0.796578 0.555634 0.178874
C117  C     C_R   0.499824 0.725839 0.498901 0.154553
C118  C     C_R   0.999823 0.225839 0.498901 0.154559
C119  C     C_R   0.999921 0.365492 0.499572 -0.134677
C120  C     C_R   0.499921 0.865492 0.499572 -0.134681
C121  C     C_R   0.000009 0.342479 0.443598 -0.199288
C122  C     C_R   0.999744 0.342534 0.555249 -0.200640
C123  C     C_R   0.499947 0.842480 0.443539 -0.199285
C124  C     C_R   0.499806 0.842534 0.555309 -0.200637
C125  C     C_2   0.534124 0.522258 0.749742 -0.187157
C126  C     C_2   0.469663 0.527096 0.254878 -0.193896
C127  C     C_2   0.034124 0.022258 0.749742 -0.187162
C128  C     C_2   0.969666 0.027099 0.254881 -0.193895
C129  C     C_2   0.498556 0.508285 0.683520 -0.394457
C130  C     C_2   0.502099 0.506724 0.317320 -0.384924
C131  C     C_2   0.998556 0.008285 0.683520 -0.394451
C132  C     C_2   0.002100 0.006723 0.317321 -0.384914
C133  C     C_2   0.532363 0.527550 0.815463 0.272219
C134  C     C_2   0.473463 0.533439 0.191729 0.267475
C135  C     C_2   0.032363 0.027550 0.815463 0.272224
C136  C     C_2   0.973467 0.033443 0.191734 0.267477
H1    H     H_    0.564485 0.530072 0.755525 0.177025
H2    H     H_    0.441255 0.540346 0.251265 0.172524
H3    H     H_    0.064485 0.030072 0.755525 0.177022
H4    H     H_    0.941260 0.040353 0.251270 0.172516
H5    H     H_    0.139929 0.517626 0.542290 0.153732
H6    H     H_    0.859357 0.490015 0.458546 0.155641
H7    H     H_    0.639928 0.017615 0.542285 0.153739
H8    H     H_    0.359357 0.990014 0.458546 0.155652
H9    H     H_    0.140334 0.480909 0.735123 0.154742
H10   H     H_    0.860171 0.510139 0.262025 0.156476
H11   H     H_    0.640335 0.980923 0.735128 0.154747
H12   H     H_    0.360171 0.010141 0.262025 0.156484
H13   H     H_    0.220740 0.479839 0.813725 0.131197
H14   H     H_    0.779803 0.510396 0.182087 0.129538
H15   H     H_    0.720741 0.979855 0.813731 0.131200
H16   H     H_    0.279803 0.010398 0.182087 0.129539
H17   H     H_    0.440090 0.277753 0.389042 0.131229
H18   H     H_    0.560250 0.278220 0.612534 0.131076
H19   H     H_    0.940020 0.777758 0.389136 0.130925
H20   H     H_    0.060321 0.778225 0.612449 0.130771
H21   H     H_    0.042171 0.638827 0.461992 0.156240
H22   H     H_    0.958154 0.639205 0.539115 0.156942
H23   H     H_    0.542967 0.138797 0.463601 0.155755
H24   H     H_    0.457355 0.139179 0.537504 0.156470
H25   H     H_    0.000141 0.360310 0.400533 0.166848
H26   H     H_    0.999658 0.360403 0.598521 0.166603
H27   H     H_    0.500030 0.860310 0.400426 0.166852
H28   H     H_    0.499770 0.860403 0.598629 0.166607
H29   H     H_    0.428675 0.721049 0.427034 0.134216
H30   H     H_    0.570982 0.721008 0.570863 0.134375
H31   H     H_    0.928675 0.221049 0.426923 0.134214
H32   H     H_    0.070981 0.221008 0.570973 0.134373
H33   H     H_    0.466978 0.503833 0.675274 0.159638
H34   H     H_    0.532483 0.497244 0.324046 0.159704
H35   H     H_    0.966978 0.003833 0.675274 0.159645
H36   H     H_    0.032482 0.997239 0.324044 0.159707
H37   H     H_    0.428368 0.640269 0.427106 0.157439
H38   H     H_    0.571453 0.640238 0.571788 0.157606
H39   H     H_    0.928368 0.140268 0.426995 0.157435
H40   H     H_    0.071453 0.140238 0.571899 0.157601
H41   H     H_    0.494055 0.469429 0.786283 0.142957
H42   H     H_    0.496485 0.467862 0.203639 0.147074
H43   H     H_    0.994055 0.969429 0.786283 0.142955
H44   H     H_    0.996477 0.967861 0.203631 0.147076
H45   H     H_    0.278049 0.535002 0.861472 0.139560
H46   H     H_    0.721199 0.455785 0.143459 0.142236
H47   H     H_    0.778048 0.035028 0.861453 0.139564
H48   H     H_    0.221199 0.955788 0.143456 0.142234
H49   H     H_    0.281105 0.464456 0.691764 0.138240
H50   H     H_    0.719958 0.543801 0.298727 0.141919
H51   H     H_    0.781104 0.964436 0.691778 0.138244
H52   H     H_    0.219958 0.043800 0.298729 0.141913
H53   H     H_    0.220427 0.517799 0.621633 0.131417
H54   H     H_    0.778867 0.489352 0.377955 0.130250
H55   H     H_    0.720427 0.017789 0.621627 0.131421
H56   H     H_    0.278867 0.989351 0.377955 0.130255
O1    O     O_R   0.434530 0.536960 0.934530 -0.626341
O2    O     O_R   0.565470 0.536960 0.065470 -0.619540
O3    O     O_R   0.934530 0.036960 0.934530 -0.626332
O4    O     O_R   0.065470 0.036960 0.065470 -0.619542
O5    O     O_R   0.065470 0.500010 0.514410 -0.628896
O6    O     O_R   0.934530 0.500010 0.485590 -0.629355
O7    O     O_R   0.565470 0.000010 0.514410 -0.628902
O8    O     O_R   0.434530 0.000010 0.485590 -0.629364
O9    O     O_R   0.065460 0.500010 0.616540 -0.625835
O10   O     O_R   0.934540 0.500010 0.383460 -0.626940
O11   O     O_R   0.565460 0.000010 0.616540 -0.625843
O12   O     O_R   0.434540 0.000010 0.383460 -0.626946
O13   O     O_R   0.000010 0.565480 0.448930 -0.624971
O14   O     O_R   0.999990 0.565480 0.551070 -0.622717
O15   O     O_R   0.500010 0.065480 0.448930 -0.624817
O16   O     O_R   0.499990 0.065480 0.551070 -0.622562
O17   O     O_R   0.434530 0.463040 0.934530 -0.613637
O18   O     O_R   0.565470 0.463040 0.065470 -0.613960
O19   O     O_R   0.934530 0.963040 0.934530 -0.613625
O20   O     O_R   0.065470 0.963040 0.065470 -0.613960
O21   O     O_R   0.500010 0.536960 0.909550 -0.611434
O22   O     O_R   0.499990 0.536960 0.090450 -0.599570
O23   O     O_R   0.000010 0.036960 0.909550 -0.611433
O24   O     O_R   0.999990 0.036960 0.090450 -0.599571
O25   O     O_R   0.500010 0.463040 0.909550 -0.607960
O26   O     O_R   0.499990 0.463040 0.090450 -0.631205
O27   O     O_R   0.000010 0.963040 0.909550 -0.607959
O28   O     O_R   0.999990 0.963040 0.090450 -0.631204
O29   O     O_R   0.536960 0.434530 0.536970 -0.598073
O30   O     O_R   0.463040 0.434530 0.463030 -0.597549
O31   O     O_R   0.036960 0.934530 0.536970 -0.598058
O32   O     O_R   0.963040 0.934530 0.463030 -0.597534
O33   O     O_R   0.536950 0.500000 0.627420 -0.616783
O34   O     O_R   0.463050 0.500000 0.372580 -0.614843
O35   O     O_R   0.036950 1.000000 0.627420 -0.616812
O36   O     O_R   0.963050 0.000000 0.372580 -0.614870
O37   O     O_R   0.463030 0.500000 0.553490 -0.624356
O38   O     O_R   0.536970 0.500000 0.446510 -0.624252
O39   O     O_R   0.963030 1.000000 0.553490 -0.624339
O40   O     O_R   0.036970 1.000000 0.446510 -0.624235
O41   O     O_R   0.536960 0.565470 0.536960 -0.631316
O42   O     O_R   0.463040 0.565470 0.463040 -0.631855
O43   O     O_R   0.036960 0.065470 0.536960 -0.631312
O44   O     O_R   0.963040 0.065470 0.463040 -0.631851
O45   O     O_R   0.000000 0.434540 0.448940 -0.626277
O46   O     O_R   0.000000 0.434540 0.551060 -0.628358
O47   O     O_R   0.500000 0.934540 0.448940 -0.626278
O48   O     O_R   0.500000 0.934540 0.551060 -0.628358
Zn1   Zn    Zn3+2 0.500000 0.549350 0.000000 0.964268
Zn2   Zn    Zn3+2 0.000000 0.049350 0.000000 0.964268
Zn3   Zn    Zn3+2 0.500000 0.450640 0.000000 0.957340
Zn4   Zn    Zn3+2 0.000000 0.950640 0.000000 0.957341
Zn5   Zn    Zn3+2 0.549360 0.500000 0.549360 0.951579
Zn6   Zn    Zn3+2 0.450640 0.500000 0.450640 0.952742
Zn7   Zn    Zn3+2 0.049360 0.000000 0.549360 0.951569
Zn8   Zn    Zn3+2 0.950640 0.000000 0.450640 0.952731
Zn9   Zn    Zn3+2 0.000010 0.500010 0.431810 0.940120
Zn10  Zn    Zn3+2 0.999990 0.500010 0.568190 0.940467
Zn11  Zn    Zn3+2 0.500010 0.000010 0.431810 0.940203
Zn12  Zn    Zn3+2 0.499990 0.000010 0.568190 0.940550
C137  C     C_3   0.000092 0.272305 0.381998 -0.918300
H57   H     H_    0.029945 0.251097 0.408124 0.246982
H58   H     H_    0.970162 0.251326 0.348645 0.245898
H59   H     H_    0.000283 0.295437 0.342584 0.235976
C138  C     C_3   0.999458 0.272447 0.616053 -0.915685
H60   H     H_    0.969566 0.251383 0.589692 0.247358
H61   H     H_    0.029351 0.251340 0.649227 0.246181
H62   H     H_    0.999290 0.295630 0.655681 0.235709
C139  C     C_3   0.499962 0.772305 0.381872 -0.918326
H63   H     H_    0.529809 0.751096 0.407929 0.246991
H64   H     H_    0.470027 0.751328 0.348579 0.245897
H65   H     H_    0.500110 0.795437 0.342416 0.235983
C140  C     C_3   0.499590 0.772447 0.616180 -0.915715
H66   H     H_    0.469703 0.751381 0.589889 0.247368
H67   H     H_    0.529487 0.751342 0.649295 0.246178
H68   H     H_    0.499464 0.795629 0.655850 0.235717
N1    N     N_2   0.433211 0.364280 0.368371 -0.284016
H69   H     H_    0.403253 0.348083 0.337838 0.220076
C141  C     C_3   0.447265 0.377455 0.321313 -0.755703
H70   H     H_    0.420502 0.396624 0.272362 0.237883
H71   H     H_    0.454683 0.347814 0.300048 0.223919
H72   H     H_    0.477075 0.398719 0.353350 0.233941
N2    N     N_2   0.566925 0.364885 0.632308 -0.284223
H73   H     H_    0.596924 0.348691 0.663014 0.219679
C142  C     C_3   0.552828 0.378634 0.679221 -0.755010
H74   H     H_    0.579515 0.398057 0.727929 0.236742
H75   H     H_    0.545536 0.349262 0.700855 0.223558
H76   H     H_    0.522928 0.399830 0.646934 0.235207
N3    N     N_2   0.933144 0.864279 0.368437 -0.284032
H77   H     H_    0.903184 0.848086 0.337969 0.219989
C143  C     C_3   0.947136 0.877437 0.321283 -0.755412
H78   H     H_    0.920352 0.896603 0.272355 0.237797
H79   H     H_    0.954522 0.847788 0.299985 0.223995
H80   H     H_    0.976951 0.898699 0.353253 0.233959
N4    N     N_2   0.066991 0.864885 0.632248 -0.284236
H81   H     H_    0.096992 0.848694 0.662890 0.219593
C144  C     C_3   0.052956 0.878620 0.679255 -0.754726
H82   H     H_    0.079664 0.898041 0.727938 0.236654
H83   H     H_    0.045696 0.849242 0.700924 0.223634
H84   H     H_    0.023052 0.899814 0.647033 0.235224
N5    N     N_2   0.049069 0.725798 0.458404 -0.301821
H85   H     H_    0.079263 0.711299 0.479289 0.221973
C145  C     C_3   0.025066 0.734959 0.378557 -0.788992
H86   H     H_    0.046051 0.754916 0.368059 0.238523
H87   H     H_    0.994569 0.754030 0.358421 0.248005
H88   H     H_    0.016190 0.703599 0.346049 0.234231
N6    N     N_2   0.951474 0.726246 0.543508 -0.301901
H89   H     H_    0.921333 0.711810 0.522792 0.221928
C146  C     C_3   0.975579 0.735692 0.623356 -0.788899
H90   H     H_    0.954604 0.755796 0.633983 0.238455
H91   H     H_    0.005992 0.754725 0.643293 0.247807
H92   H     H_    0.984608 0.704451 0.655937 0.234494
N7    N     N_2   0.549996 0.225774 0.460275 -0.301930
H93   H     H_    0.580181 0.211148 0.481490 0.221936
C147  C     C_3   0.526450 0.235251 0.380600 -0.788666
H94   H     H_    0.547789 0.255160 0.370852 0.238462
H95   H     H_    0.496006 0.254493 0.360199 0.248171
H96   H     H_    0.517539 0.204015 0.347764 0.234248
N8    N     N_2   0.450543 0.226227 0.541630 -0.302009
H97   H     H_    0.420408 0.211664 0.520581 0.221887
C148  C     C_3   0.474189 0.235992 0.621307 -0.788565
H98   H     H_    0.452861 0.256050 0.631182 0.238391
H99   H     H_    0.504552 0.255193 0.641512 0.247974
H100  H     H_    0.483249 0.204877 0.654219 0.234507
N9    N     N_2   0.557575 0.560943 0.871567 -0.272804
H101  H     H_    0.573818 0.550599 0.926795 0.227912
C149  C     C_3   0.581906 0.592718 0.859391 -0.801981
H102  H     H_    0.595049 0.618958 0.903170 0.240309
H103  H     H_    0.559883 0.608554 0.803207 0.255163
H104  H     H_    0.610154 0.576339 0.863842 0.225049
N10   N     N_2   0.459197 0.573704 0.149088 -0.272023
H105  H     H_    0.440543 0.569913 0.091301 0.259908
C150  C     C_3   0.444981 0.609996 0.173886 -0.807816
H106  H     H_    0.440046 0.639907 0.140358 0.240601
H107  H     H_    0.470529 0.617606 0.234338 0.257915
H108  H     H_    0.413162 0.601798 0.165122 0.226067
N11   N     N_2   0.057574 0.060943 0.871567 -0.272803
H109  H     H_    0.073817 0.050599 0.926795 0.227913
C151  C     C_3   0.081906 0.092718 0.859391 -0.801988
H110  H     H_    0.095049 0.118958 0.903170 0.240309
H111  H     H_    0.059883 0.108554 0.803207 0.255161
H112  H     H_    0.110154 0.076339 0.863843 0.225049
N12   N     N_2   0.959211 0.073712 0.149104 -0.272023
H113  H     H_    0.940554 0.069926 0.091316 0.259905
C152  C     C_3   0.945007 0.110007 0.173916 -0.807815
H114  H     H_    0.940079 0.139920 0.140397 0.240600
H115  H     H_    0.970558 0.117609 0.234370 0.257915
H116  H     H_    0.913186 0.101818 0.165152 0.226062
N13   N     N_2   0.363947 0.535100 0.965517 -0.317970
H117  H     H_    0.349278 0.562988 0.969360 0.227393
C153  C     C_3   0.370472 0.501330 0.018130 -0.828919
H118  H     H_    0.338366 0.486233 0.999463 0.243770
H119  H     H_    0.385169 0.516137 0.074682 0.242602
H120  H     H_    0.393095 0.475280 0.022835 0.251344
N14   N     N_2   0.634567 0.450416 0.044384 -0.308144
H121  H     H_    0.646013 0.457203 0.011980 0.216266
C154  C     C_3   0.632320 0.403391 0.053321 -0.745186
H122  H     H_    0.665844 0.388476 0.084068 0.221385
H123  H     H_    0.611165 0.387619 0.996835 0.231232
H124  H     H_    0.617705 0.396712 0.084846 0.259515
N15   N     N_2   0.863947 0.035129 0.965498 -0.317945
H125  H     H_    0.849281 0.063025 0.969325 0.227389
C155  C     C_3   0.870462 0.001373 0.018125 -0.828919
H126  H     H_    0.838352 0.986285 0.999459 0.243765
H127  H     H_    0.885157 0.016191 0.074668 0.242597
H128  H     H_    0.893083 0.975313 0.022848 0.251333
N16   N     N_2   0.134567 0.950418 0.044381 -0.308143
H129  H     H_    0.146013 0.957207 0.011977 0.216264
C156  C     C_3   0.132320 0.903393 0.053316 -0.745184
H130  H     H_    0.165845 0.888478 0.084059 0.221382
H131  H     H_    0.111164 0.887623 0.996828 0.231231
H132  H     H_    0.117707 0.896712 0.084843 0.259513
N17   N     N_2   0.368244 0.461213 0.767037 -0.297703
H133  H     H_    0.352530 0.434511 0.731609 0.225174
C157  C     C_3   0.383252 0.492485 0.736211 -0.786003
H134  H     H_    0.354522 0.507930 0.684354 0.234347
H135  H     H_    0.403715 0.475083 0.721480 0.231510
H136  H     H_    0.403752 0.518677 0.778091 0.247306
N18   N     N_2   0.633158 0.550020 0.223069 -0.299667
H137  H     H_    0.643956 0.543699 0.277920 0.218045
C158  C     C_3   0.631113 0.596928 0.208841 -0.736296
H138  H     H_    0.664596 0.611771 0.245097 0.218334
H139  H     H_    0.609371 0.613137 0.221902 0.236349
H140  H     H_    0.617288 0.603168 0.148607 0.257461
N19   N     N_2   0.868243 0.961188 0.767054 -0.297685
H141  H     H_    0.852527 0.934482 0.731636 0.225174
C159  C     C_3   0.883253 0.992449 0.736215 -0.785981
H142  H     H_    0.854524 0.007890 0.684352 0.234341
H143  H     H_    0.903715 0.975038 0.721491 0.231514
H144  H     H_    0.903754 0.018644 0.778085 0.247286
N20   N     N_2   0.133158 0.050018 0.223071 -0.299665
H145  H     H_    0.143956 0.043696 0.277922 0.218047
C160  C     C_3   0.131113 0.096927 0.208846 -0.736298
H146  H     H_    0.164595 0.111770 0.245102 0.218330
H147  H     H_    0.109370 0.113135 0.221908 0.236350
H148  H     H_    0.117288 0.103168 0.148611 0.257461

loop_
_geom_bond_atom_site_label_1
_geom_bond_atom_site_label_2
_ccdc_geom_bond_type
C55   C59   A    
C16   N16   S    
C152  H114  S    
C146  H90   S    
C77   C89   A    
C97   H23   S    
C86   C88   A    
C141  H70   S    
C96   C99   A    
C33   H53   S    
C31   C59   S    
C9    C13   A    
C79   C90   A    
C80   C86   A    
C115  C139  S    
C65   C131  S    
C11   C15   A    
C12   C16   A    
C45   O21   A    
N4    C144  S    
C3    C19   S    
C142  H75   S    
N13   C153  S    
C135  N11   S    
C85   N3    S    
C106  C118  A    
O24   Zn2   S    
C103  C117  A    
C41   C49   A    
N15   C155  S    
C78   C89   A    
C25   C29   A    
C156  H132  S    
C14   N14   S    
C115  C123  A    
C27   C31   A    
N10   H105  S    
C28   C32   A    
C158  H140  S    
N12   C152  S    
C62   C88   S    
C69   C119  S    
C3    O3    A    
C19   C23   A    
C123  H27   S    
C8    H44   S    
C155  H126  S    
O5    Zn9   S    
C16   C20   A    
C131  H35   S    
C42   C72   S    
C23   N19   S    
C27   H51   S    
C44   C74   S    
C25   H49   S    
O3    Zn2   S    
C74   O8    A    
N1    C141  S    
C10   H46   S    
C105  C118  A    
N20   H145  S    
C79   C85   A    
C152  H116  S    
C139  H64   S    
C104  C117  A    
C146  H92   S    
C4    O4    A    
O19   Zn4   S    
C109  H39   S    
C55   H15   S    
C110  H40   S    
C76   C100  S    
C107  H37   S    
C108  C111  A    
C128  C136  S    
C133  N9    S    
N17   H133  S    
C75   O13   A    
O41   Zn5   S    
C49   C53   A    
O21   Zn1   S    
C157  H136  S    
C95   C99   A    
O14   Zn10  S    
C127  C131  D    
C79   H19   S    
N12   H113  S    
C4    C20   S    
C125  C129  D    
C94   C102  A    
N16   H129  S    
C34   C58   A    
C126  C130  D    
C103  C107  A    
C132  H36   S    
C147  H95   S    
O42   Zn6   S    
C76   O16   A    
C160  H147  S    
C43   C73   S    
C149  H103  S    
C154  H122  S    
O44   Zn8   S    
O20   Zn4   S    
O25   Zn3   S    
C54   H14   S    
C12   H48   S    
C5    C133  D    
C73   O11   A    
C130  H34   S    
C82   C115  A    
C139  H63   S    
C148  H99   S    
C92   C96   A    
C65   O35   A    
C138  H60   S    
C68   C112  S    
C150  H107  S    
C61   O30   A    
C61   C87   S    
C77   H17   S    
C70   C120  S    
N7    C147  S    
C81   C114  A    
C62   O32   A    
C51   C55   A    
C41   C71   S    
C44   C52   A    
C52   H12   S    
C142  H74   S    
O46   Zn10  S    
C143  H80   S    
C53   H13   S    
N11   C151  S    
C70   O48   A    
C91   C101  A    
C119  C121  A    
C3    O19   A    
C94   N8    S    
C92   N6    S    
C1    O17   A    
C34   H54   S    
C10   C14   A    
C159  H144  S    
O31   Zn7   S    
O26   Zn3   S    
C72   O6    A    
C47   O23   A    
N10   C150  S    
N5    H85   S    
C68   O43   A    
N6    C146  S    
C21   N17   S    
C75   C99   S    
C144  H82   S    
C140  H67   S    
C126  C134  S    
C42   C50   A    
C155  H127  S    
C98   H24   S    
C103  H29   S    
C154  H124  S    
N8    C148  S    
C93   C97   A    
C97   C100  A    
C72   O10   A    
C85   C88   A    
C105  C109  A    
O23   Zn2   S    
C35   H55   S    
C95   H21   S    
C107  C111  A    
C24   C28   A    
C64   C130  S    
C139  H65   S    
C26   C30   A    
O36   Zn8   S    
N3    C143  S    
C1    C17   S    
C122  H26   S    
C13   C17   A    
C147  H96   S    
C153  H119  S    
C128  H4    S    
C145  H86   S    
C64   O38   A    
C26   H50   S    
C74   O12   A    
C134  N10   S    
C37   C41   A    
C114  C138  S    
C110  C112  A    
N19   C159  S    
C9    H45   S    
O35   Zn7   S    
C40   C44   A    
O10   Zn9   S    
C113  C121  A    
C142  H76   S    
C66   O36   A    
C143  H78   S    
O15   Zn11  S    
C141  H72   S    
C83   C87   A    
C67   O42   A    
C46   O26   A    
O2    Zn1   S    
C8    C136  D    
C86   N4    S    
N2    H73   S    
C153  H118  S    
O17   Zn3   S    
N15   H125  S    
C159  H142  S    
C15   C19   A    
C156  H131  S    
C50   C54   A    
C37   H5    S    
C22   N18   S    
C127  C135  S    
O18   Zn3   S    
C28   H52   S    
C54   C58   A    
C2    C18   S    
C94   C98   A    
N18   H137  S    
C144  H84   S    
O27   Zn4   S    
C35   C59   A    
N9    C149  S    
C21   C25   A    
O12   Zn11  S    
C141  H71   S    
O32   Zn8   S    
C126  H2    S    
C157  H134  S    
C108  H38   S    
C56   H16   S    
C69   O46   A    
C120  C123  A    
C63   O37   A    
C50   H10   S    
C36   H56   S    
N1    H69   S    
C6    H42   S    
O1    Zn1   S    
C152  H115  S    
O34   Zn6   S    
C146  H91   S    
C113  C137  S    
C65   O39   A    
C147  H94   S    
C145  H87   S    
N14   H121  S    
C53   C57   A    
C78   H18   S    
C125  H1    S    
C5    C45   S    
C81   C118  S    
C33   C37   A    
C56   C60   A    
O4    Zn2   S    
C2    O2    A    
C7    C47   S    
C136  N12   S    
C35   C39   A    
N6    H89   S    
C8    C48   S    
C24   N20   S    
O6    Zn10  S    
N4    H81   S    
C49   H9    S    
C157  H135  S    
O38   Zn5   S    
C92   C101  A    
C67   C111  S    
C29   C57   S    
O48   Zn12  S    
C98   C100  A    
C32   C60   S    
C104  C108  A    
C160  H146  S    
C48   O28   A    
C116  C124  A    
C93   C102  A    
C138  H62   S    
C137  H59   S    
C18   C22   A    
C82   C116  A    
O8    Zn12  S    
O30   Zn6   S    
C43   C51   A    
C148  H98   S    
C137  H57   S    
C15   N15   S    
C63   C129  S    
C150  H106  S    
C61   O29   A    
O13   Zn9   S    
C104  H30   S    
C149  H102  S    
N5    C145  S    
N7    H93   S    
C22   C26   A    
C84   N2    S    
C81   C113  A    
C82   C117  S    
C124  H28   S    
C17   C21   A    
C96   H22   S    
N8    H97   S    
C48   O24   A    
C89   C102  S    
C143  H79   S    
C45   O25   A    
N11   H109  S    
C14   C18   A    
C1    O1    A    
O39   Zn8   S    
C84   C87   A    
C151  H110  S    
C64   O34   A    
N13   H117  S    
O28   Zn4   S    
O22   Zn1   S    
C129  H33   S    
N2    C142  S    
C38   C42   A    
N17   C157  S    
O16   Zn12  S    
C75   O14   A    
C159  H143  S    
C77   C83   A    
C66   O40   A    
C83   N1    S    
C10   C30   A    
C68   O44   A    
C30   C58   S    
C120  C124  A    
C20   C24   A    
C46   O22   A    
C23   C27   A    
C140  H66   S    
C76   O15   A    
C9    C29   A    
C160  H148  S    
C149  H104  S    
C121  H25   S    
C154  H123  S    
C12   C32   A    
C38   H6    S    
O45   Zn9   S    
C127  H3    S    
C128  C132  D    
O43   Zn7   S    
C151  H112  S    
C71   O5    A    
C145  H88   S    
C66   C132  S    
O33   Zn5   S    
C2    O18   A    
O47   Zn11  S    
C36   C40   A    
C11   H47   S    
C116  C140  S    
C109  C112  A    
C13   N13   S    
C137  H58   S    
C148  H100  S    
C39   C43   A    
C63   O33   A    
N18   C158  S    
N3    H77   S    
C47   O27   A    
C91   N5    S    
C105  H31   S    
C138  H61   S    
C106  H32   S    
C150  H108  S    
N20   C160  S    
C90   C101  S    
C7    C135  D    
N14   C154  S    
C51   H11   S    
C7    H43   S    
N16   C156  S    
C62   O31   A    
C151  H111  S    
C5    H41   S    
N19   H141  S    
O37   Zn6   S    
O7    Zn11  S    
C39   H7    S    
C40   H8    S    
C70   O47   A    
C80   H20   S    
C106  C110  A    
C119  C122  A    
C125  C133  S    
C71   O9    A    
C93   N7    S    
C67   O41   A    
C33   C57   A    
C6    C46   S    
C34   C38   A    
C36   C60   A    
C156  H130  S    
C4    O20   A    
O40   Zn7   S    
C6    C134  D    
C158  H138  S    
O29   Zn5   S    
C73   O7    A    
C144  H83   S    
C158  H139  S    
C80   C90   A    
N9    H101  S    
C140  H68   S    
C11   C31   A    
O11   Zn12  S    
C114  C122  A    
C78   C84   A    
C155  H128  S    
C91   C95   A    
O9    Zn10  S    
C153  H120  S    
C69   O45   A    
C52   C56   A    
