data_mof_unit_33398.cif
_audit_creation_date              2013-03-05T15:50:12-0500
_audit_creation_method            fapswitch 2.2
_symmetry_space_group_name_H-M    P1
_symmetry_Int_Tables_number       1
_space_group_crystal_system       triclinic
_cell_length_a                    14.838021
_cell_length_b                    15.630687
_cell_length_c                    9.64069
_cell_angle_alpha                 90.456163
_cell_angle_beta                  89.593674
_cell_angle_gamma                 90.235385
_cell_volume                      2235.80496139

loop_
_atom_site_label
_atom_site_type_symbol
_atom_site_description
_atom_site_fract_x
_atom_site_fract_y
_atom_site_fract_z
_atom_type_partial_charge
O1    O     O_R   0.409820 0.909830 0.618810 -0.592925
O2    O     O_R   0.409820 0.090170 0.618810 -0.582181
O3    O     O_R   0.909820 0.409830 0.618810 -0.581819
O4    O     O_R   0.909820 0.590170 0.618810 -0.599132
O5    O     O_R   0.409840 0.909830 0.381240 -0.582754
O6    O     O_R   0.409840 0.090170 0.381240 -0.571662
O7    O     O_R   0.909840 0.409830 0.381240 -0.565920
O8    O     O_R   0.909840 0.590170 0.381240 -0.587008
C1    C     C_R   0.379777 0.883114 0.499860 0.762175
C2    C     C_R   0.379182 0.116460 0.500806 0.755251
C3    C     C_R   0.879402 0.383470 0.500144 0.772691
C4    C     C_R   0.882891 0.620811 0.501933 0.768885
Cu1   Cu    Cu3+1 0.499990 0.000000 0.640660 0.928147
Cu2   Cu    Cu3+1 0.999990 0.500000 0.640660 0.932093
Cu3   Cu    Cu3+1 0.500010 0.000000 0.359340 0.939625
Cu4   Cu    Cu3+1 0.000010 0.500000 0.359340 0.941872
O9    O     O_R   0.590170 0.090170 0.618760 -0.575399
O10   O     O_R   0.590170 0.909830 0.618760 -0.588615
O11   O     O_R   0.090170 0.590170 0.618760 -0.575096
O12   O     O_R   0.090170 0.409830 0.618760 -0.577423
O13   O     O_R   0.590190 0.090180 0.381190 -0.566421
O14   O     O_R   0.590190 0.909820 0.381190 -0.579098
O15   O     O_R   0.090190 0.590180 0.381190 -0.579298
O16   O     O_R   0.090190 0.409820 0.381190 -0.568098
C5    C     C_R   0.617176 0.119931 0.500192 0.769052
C6    C     C_R   0.610686 0.874921 0.499882 0.783333
C7    C     C_R   0.117575 0.619573 0.499920 0.767728
C8    C     C_R   0.116832 0.379750 0.499513 0.759986
H1    H     H_    0.389234 0.266118 0.378405 0.151116
H2    H     H_    0.400412 0.723663 0.577327 0.133400
H3    H     H_    0.808556 0.694992 0.282733 0.158680
H4    H     H_    0.892863 0.230003 0.389197 0.145781
C9    C     C_R   0.205401 0.089038 0.640826 -0.190245
C10   C     C_R   0.197542 0.920288 0.407236 -0.196523
C11   C     C_R   0.810397 0.702625 0.768390 -0.176923
C12   C     C_R   0.702588 0.416096 0.624012 -0.179332
H5    H     H_    0.253201 0.037150 0.644721 0.140845
H6    H     H_    0.245990 0.972114 0.403647 0.130737
H7    H     H_    0.880162 0.686946 0.784294 0.169123
H8    H     H_    0.750064 0.468806 0.623947 0.141382
C13   C     C_R   0.121627 0.076220 0.703878 -0.128992
C14   C     C_R   0.109423 0.937487 0.366673 -0.126484
C15   C     C_R   0.758339 0.714589 0.887994 -0.170746
C16   C     C_R   0.617905 0.430273 0.683318 -0.138993
H9    H     H_    0.106979 0.016331 0.755157 0.136851
H10   H     H_    0.091495 0.001138 0.333309 0.139571
H11   H     H_    0.786779 0.702276 0.988990 0.127422
H12   H     H_    0.602096 0.492078 0.728568 0.138312
C17   C     C_R   0.669450 0.740997 0.877251 -0.159968
C18   C     C_R   0.553300 0.365444 0.683025 -0.138225
C19   C     C_R   0.056369 0.139765 0.699448 -0.139610
C20   C     C_R   0.044377 0.873059 0.369665 -0.144011
H13   H     H_    0.627715 0.747038 0.969348 0.136902
H14   H     H_    0.487348 0.376970 0.728002 0.133665
H15   H     H_    0.991043 0.129160 0.747182 0.133960
H16   H     H_    0.975955 0.886713 0.338600 0.135199
C21   C     C_R   0.635711 0.763742 0.748332 -0.180620
C22   C     C_R   0.573026 0.285986 0.623634 -0.178021
C23   C     C_R   0.074646 0.216744 0.632604 -0.180449
C24   C     C_R   0.067193 0.790964 0.412658 -0.177721
H17   H     H_    0.566312 0.784386 0.743821 0.160298
H18   H     H_    0.520278 0.238104 0.623366 0.148401
H19   H     H_    0.021255 0.263477 0.629300 0.150030
H20   H     H_    0.014709 0.742867 0.413833 0.134674
C25   C     C_R   0.690961 0.759568 0.628074 0.099743
C26   C     C_R   0.658725 0.269872 0.564157 0.094680
C27   C     C_R   0.159458 0.231619 0.569201 0.096385
C28   C     C_R   0.156056 0.772151 0.454216 0.096991
C29   C     C_R   0.225500 0.166515 0.572201 0.090396
C30   C     C_R   0.221826 0.837830 0.452611 0.086155
C31   C     C_R   0.773467 0.715786 0.634779 0.105531
C32   C     C_R   0.724271 0.335806 0.564208 0.094562
C33   C     C_R   0.308650 0.180086 0.502646 -0.094658
C34   C     C_R   0.309713 0.819237 0.498940 -0.085796
C35   C     C_R   0.814357 0.687902 0.507616 -0.121266
C36   C     C_R   0.808849 0.320024 0.500749 -0.090438
C37   C     C_R   0.325442 0.255789 0.431373 -0.202873
C38   C     C_R   0.332481 0.737706 0.543701 -0.191452
C39   C     C_R   0.779825 0.715738 0.380943 -0.218105
C40   C     C_R   0.827728 0.241789 0.437219 -0.209456
H21   H     H_    0.686540 0.794972 0.278925 0.157016
H22   H     H_    0.781562 0.116483 0.392078 0.138018
H23   H     H_    0.277997 0.378959 0.379261 0.139790
H24   H     H_    0.289263 0.609563 0.571192 0.135511
C41   C     C_R   0.708816 0.772208 0.378247 -0.215182
C42   C     C_R   0.764151 0.177334 0.438284 -0.223579
C43   C     C_R   0.261756 0.319825 0.430893 -0.225657
C44   C     C_R   0.268940 0.673100 0.541789 -0.223859
C45   C     C_R   0.667484 0.798748 0.501632 -0.119615
C46   C     C_R   0.680347 0.190439 0.501210 -0.085610
C47   C     C_R   0.179457 0.308825 0.499406 -0.087038
C48   C     C_R   0.181107 0.689753 0.499142 -0.087688
H25   H     H_    0.364637 0.961290 0.129212 0.141685
H26   H     H_    0.863653 0.534432 0.130015 0.135975
C49   C     C_R   0.658158 0.050797 0.138637 0.261277
C50   C     C_R   0.158963 0.453499 0.138681 0.251627
C51   C     C_R   0.706979 0.115793 0.072415 -0.242537
C52   C     C_R   0.208284 0.388735 0.071990 -0.245601
H27   H     H_    0.762282 0.147314 0.125206 0.167161
H28   H     H_    0.264175 0.358667 0.124007 0.165219
C53   C     C_R   0.706713 0.116950 0.928335 -0.242112
C54   C     C_R   0.207215 0.385835 0.927998 -0.238992
H29   H     H_    0.761559 0.149683 0.875836 0.165583
H30   H     H_    0.262030 0.353258 0.875007 0.165982
C55   C     C_R   0.658283 0.052565 0.859312 0.251016
C56   C     C_R   0.158404 0.449095 0.859504 0.258818
C57   C     C_R   0.577858 0.022835 0.925030 0.140977
C58   C     C_R   0.078068 0.478583 0.925055 0.144867
C59   C     C_R   0.577613 0.022891 0.073587 0.141410
C60   C     C_R   0.078149 0.479562 0.073586 0.145560
N1    N     N_R   0.501200 0.000000 0.147910 -0.189371
N2    N     N_R   0.001200 0.500000 0.147910 -0.187225
C61   C     C_R   0.425827 0.978376 0.074271 -0.059181
C62   C     C_R   0.925286 0.519261 0.074728 -0.062220
H31   H     H_    0.364679 0.961345 0.872625 0.138357
H32   H     H_    0.863592 0.533650 0.873464 0.141694
C63   C     C_R   0.425865 0.978369 0.926718 -0.066142
C64   C     C_R   0.925311 0.519162 0.927186 -0.079927
N3    N     N_R   0.501270 0.000000 0.852040 -0.189933
N4    N     N_R   0.001270 0.500000 0.852040 -0.187782
C65   C     C_3   0.718291 0.990854 0.780542 -0.767663
H33   H     H_    0.698063 0.924080 0.802034 0.243277
H34   H     H_    0.720071 0.003970 0.667995 0.233806
H35   H     H_    0.789322 0.995444 0.816195 0.191444
C66   C     C_3   0.217815 0.510801 0.781388 -0.796011
H36   H     H_    0.220617 0.494354 0.669804 0.227165
H37   H     H_    0.196133 0.577753 0.800246 0.238001
H38   H     H_    0.288553 0.508631 0.818762 0.192500
C67   C     C_3   0.717116 0.985665 0.207881 -0.807739
H39   H     H_    0.717730 0.993782 0.321649 0.236184
H40   H     H_    0.695162 0.920454 0.177907 0.220540
H41   H     H_    0.788426 0.990828 0.172336 0.195331
C68   C     C_3   0.217465 0.519388 0.210325 -0.793473
H42   H     H_    0.220916 0.507952 0.323094 0.225286
H43   H     H_    0.288014 0.517141 0.170636 0.197328
H44   H     H_    0.193797 0.585175 0.188315 0.237855

loop_
_geom_bond_atom_site_label_1
_geom_bond_atom_site_label_2
_geom_bond_distance
_ccdc_geom_bond_type
C22   H18   1.080698 S    
H23   C43   1.078877 S    
C43   C47   1.394875 A    
C58   N4    1.387219 A    
O10   C6    1.300125 A    
C32   C36   1.413985 A    
N2    C62   1.369183 A    
H26   C62   1.081447 S    
C26   C46   1.414676 A    
C6    C45   1.461818 S    
C25   C45   1.414920 A    
C55   C57   1.425075 A    
C56   C66   1.506552 S    
C5    C46   1.443867 S    
C18   H14   1.082731 S    
C35   C39   1.400851 A    
Cu1   O10   1.956599 S    
C3    C36   1.439075 S    
C63   N3    1.368881 A    
C2    C33   1.446598 S    
C38   C44   1.378825 A    
C17   C21   1.392506 A    
C14   H10   1.082852 S    
C21   H17   1.081653 S    
O2    Cu1   1.960906 S    
C65   H35   1.112759 S    
C40   C42   1.377409 A    
C20   C24   1.395353 A    
C51   H27   1.083403 S    
O6    Cu3   1.956496 S    
C22   C26   1.413929 A    
Cu3   O14   1.961122 S    
C26   C32   1.414140 A    
C12   C32   1.414239 A    
C44   C48   1.395481 A    
C58   C60   1.431903 A    
C10   C14   1.395199 A    
H31   C63   1.081446 S    
C52   C54   1.388764 A    
C50   C52   1.400989 A    
C30   C34   1.413502 A    
C68   H44   1.110520 S    
C29   C33   1.416073 A    
O15   C7    1.297340 A    
O4    C4    1.294303 A    
O11   C7    1.299782 A    
C10   C30   1.413312 A    
C34   C38   1.392392 A    
C9    C29   1.414283 A    
C67   H41   1.112702 S    
C23   C27   1.414316 A    
O8    Cu4   1.956496 S    
C11   C31   1.420195 A    
Cu4   O16   1.961122 S    
C57   C59   1.432161 A    
C57   N3    1.384922 A    
Cu1   N3    2.038073 S    
O7    C3    1.298619 A    
C60   N2    1.380897 A    
C53   C55   1.400772 A    
C65   H34   1.105944 S    
C18   C22   1.394749 A    
Cu2   O12   1.956599 S    
C12   H8    1.081794 S    
O1    C1    1.298553 A    
C49   C59   1.419116 A    
C41   C45   1.395367 A    
C15   C17   1.388439 A    
O12   C8    1.298332 A    
H22   C42   1.078653 S    
C50   C60   1.420010 A    
C9    H5    1.080665 S    
C27   C29   1.416238 A    
H24   C44   1.079688 S    
O1    Cu1   1.950568 S    
C11   H7    1.077081 S    
O5    C1    1.296143 A    
Cu3   N1    2.038283 S    
H4    C40   1.084485 S    
O8    C4    1.315008 A    
C51   C53   1.389328 A    
C27   C47   1.415742 A    
C55   C65   1.511868 S    
C7    C48   1.443463 S    
N1    C61   1.368709 A    
H25   C61   1.081515 S    
C54   H30   1.084057 S    
C49   C67   1.507910 S    
C37   C43   1.379420 A    
C65   H33   1.105608 S    
C62   C64   1.422392 A    
O3    Cu2   1.950568 S    
C61   C63   1.422505 A    
C28   C30   1.413633 A    
O7    Cu4   1.950992 S    
Cu4   O15   1.950780 S    
Cu2   N4    2.038073 S    
Cu1   Cu3   2.712116 S    
C42   C46   1.394856 A    
C66   H36   1.104582 S    
Cu2   Cu4   2.712116 S    
C12   C16   1.394615 A    
C19   C23   1.394201 A    
C1    C34   1.438478 S    
O2    C2    1.298489 A    
C39   C41   1.377789 A    
C11   C15   1.395106 A    
Cu4   N2    2.038283 S    
O16   C8    1.301881 A    
C66   H37   1.109352 S    
C67   H39   1.103213 S    
C16   C18   1.392037 A    
O13   C5    1.299731 A    
C33   C37   1.393723 A    
C10   H6    1.081430 S    
Cu2   O11   1.951092 S    
C36   C40   1.391920 A    
C21   C25   1.416414 A    
O6    C2    1.300418 A    
C49   C51   1.400773 A    
H3    C39   1.083459 S    
C50   C68   1.510323 S    
C23   H19   1.080598 S    
Cu1   O9    1.951092 S    
C24   H20   1.080277 S    
C9    C13   1.394257 A    
C59   N1    1.384270 A    
O9    C5    1.297700 A    
C25   C31   1.407104 A    
C31   C35   1.429723 A    
C68   H42   1.104748 S    
C56   C58   1.421950 A    
C66   H38   1.112880 S    
C17   H13   1.082627 S    
C28   C48   1.414088 A    
H32   C64   1.080965 S    
C54   C56   1.400479 A    
C8    C47   1.449447 S    
C19   H15   1.082755 S    
O4    Cu2   1.960906 S    
C52   H28   1.083042 S    
C64   N4    1.368431 A    
O5    Cu3   1.950992 S    
O3    C3    1.296358 A    
H2    C38   1.084834 S    
C20   H16   1.083094 S    
Cu3   O13   1.950780 S    
H1    C37   1.084424 S    
C24   C28   1.413543 A    
C53   H29   1.084013 S    
O14   C6    1.309832 A    
C4    C35   1.464208 S    
C68   H43   1.112581 S    
C13   H9    1.082639 S    
C15   H11   1.082880 S    
C13   C19   1.391101 A    
H21   C41   1.078708 S    
C16   H12   1.082712 S    
C14   C20   1.392337 A    
C67   H40   1.105670 S    
