data_mof_unit_15072.cif
_audit_creation_date              2012-10-26T20:01:52-0400
_audit_creation_method            fapswitch 2.2
_symmetry_space_group_name_H-M    P1
_symmetry_Int_Tables_number       1
_space_group_crystal_system       triclinic
_cell_length_a                    11.697241
_cell_length_b                    10.773248
_cell_length_c                    9.657006
_cell_angle_alpha                 90.326065
_cell_angle_beta                  89.990169
_cell_angle_gamma                 94.488121
_cell_volume                      1213.19824039

loop_
_atom_site_label
_atom_site_type_symbol
_atom_type_description
_atom_site_fract_x
_atom_site_fract_y
_atom_site_fract_z
_atom_type_partial_charge
C1    C     C_R   0.495760 0.262582 0.499749 0.533040
C2    C     C_R   0.488589 0.870053 0.500632 -0.000770
C3    C     C_R   0.660903 0.655367 0.153171 -0.084983
C4    C     C_R   0.284245 0.499322 0.500017 0.527376
C5    C     C_R   0.752227 0.721219 0.092830 -0.194327
C6    C     C_R   0.760513 0.723125 0.952576 -0.147292
C7    C     C_R   0.675387 0.662896 0.868757 0.137489
C8    C     C_R   0.583520 0.578486 0.927537 0.185932
C9    C     C_R   0.580636 0.576999 0.077481 0.132672
C10   C     C_R   0.423584 0.426576 0.072893 0.002017
C11   C     C_R   0.423384 0.426782 0.925665 -0.004348
C12   C     C_R   0.226999 0.042614 0.714076 -0.121203
C13   C     C_R   0.496317 0.736809 0.500241 0.531512
C14   C     C_R   0.715665 0.499312 0.499891 0.543169
C15   C     C_1   0.162475 0.499586 0.500096 -0.020297
C16   C     C_1   0.059931 0.499721 0.500079 -0.033731
C17   C     C_1   0.940038 0.499635 0.499922 -0.042576
C18   C     C_1   0.837473 0.499420 0.499796 -0.034316
C19   C     C_R   0.312527 0.114323 0.643822 -0.131939
C20   C     C_R   0.226815 0.912975 0.714561 0.108820
C21   C     C_R   0.313013 0.855334 0.644786 -0.050430
C22   C     C_R   0.401678 0.926407 0.574684 -0.007471
C23   C     C_R   0.401336 0.057648 0.574050 0.017117
C24   C     C_R   0.487810 0.128010 0.499288 0.009484
C25   C     C_R   0.569227 0.069549 0.422181 -0.146684
C26   C     C_R   0.569647 0.941530 0.422903 -0.151808
Cu1   Cu    Cu3+1 0.499990 0.499990 0.640660 0.958464
Cu2   Cu    Cu3+1 0.500010 0.500010 0.359340 0.932560
H1    H     H_    0.634520 0.123639 0.363715 0.129100
H2    H     H_    0.814416 0.776175 0.155490 0.119169
H3    H     H_    0.765980 0.695797 0.692539 0.206376
H4    H     H_    0.670931 0.800042 0.729158 0.211680
H5    H     H_    0.138522 0.865641 0.888196 0.232691
H6    H     H_    0.059468 0.858396 0.741605 0.222782
H7    H     H_    0.829859 0.782066 0.907060 0.116081
H8    H     H_    0.360363 0.366355 0.870677 0.111143
H9    H     H_    0.306583 0.213935 0.642613 0.128509
H10   H     H_    0.159710 0.087912 0.766693 0.107697
H11   H     H_    0.307973 0.754791 0.644105 0.160571
H12   H     H_    0.635166 0.898005 0.364772 0.111083
H13   H     H_    0.360661 0.365908 0.126976 0.118855
H14   H     H_    0.658358 0.670663 0.260962 0.188726
N1    N     N_R   0.501070 0.501210 0.147910 -0.243523
N2    N     N_R   0.501110 0.501290 0.852040 -0.228988
N3    N     N_3   0.682851 0.704674 0.729673 -0.533559
N4    N     N_3   0.138166 0.838463 0.784067 -0.635253
O1    O     O_R   0.499990 0.319640 0.618810 -0.503608
O2    O     O_R   0.500000 0.319660 0.381240 -0.497661
O3    O     O_R   0.337190 0.500000 0.618790 -0.510163
O4    O     O_R   0.337200 0.500030 0.381210 -0.492162
O5    O     O_R   0.500000 0.680340 0.618760 -0.471736
O6    O     O_R   0.500010 0.680360 0.381190 -0.520251
O7    O     O_R   0.662800 0.499970 0.618790 -0.458383
O8    O     O_R   0.662810 0.500000 0.381210 -0.516655

loop_
_geom_bond_atom_site_label_1
_geom_bond_atom_site_label_2
_ccdc_geom_bond_type
C2    C22   A    
C19   C23   A    
C23   C24   A    
Cu1   O7    S    
C1    O2    A    
C6    C7    A    
H6    N4    S    
C8    C9    A    
C13   O6    A    
H4    N3    S    
C14   C18   S    
Cu2   N1    S    
C21   H11   S    
C4    O3    A    
C12   C20   A    
C4    C15   S    
C17   C18   T    
C10   N1    A    
C7    C8    A    
C2    C26   A    
C21   C22   A    
C24   C25   A    
C10   H13   S    
C12   H10   S    
H5    N4    S    
Cu2   O6    S    
C26   H12   S    
C3    C9    A    
C7    N3    S    
C12   C19   A    
C3    H14   S    
C11   H8    S    
C14   O8    A    
Cu1   O5    S    
C25   H1    S    
C5    C6    A    
C20   N4    S    
C9    N1    A    
C10   C11   A    
C15   C16   T    
Cu1   O3    S    
C11   N2    A    
C14   O7    A    
C20   C21   A    
C1    C24   S    
C5    H2    S    
H3    N3    S    
C6    H7    S    
Cu1   O1    S    
Cu1   Cu2   S    
C2    C13   S    
Cu2   O8    S    
C22   C23   A    
C1    O1    A    
C19   H9    S    
C25   C26   A    
C13   O5    A    
Cu2   O4    S    
Cu1   N2    S    
Cu2   O2    S    
C8    N2    A    
C4    O4    A    
C16   C17   S    
C3    C5    A    
