data_mof_unit_68369.cif
_audit_creation_date              2012-12-10T19:24:08-0500
_audit_creation_method            fapswitch 2.2
_symmetry_space_group_name_H-M    P1
_symmetry_Int_Tables_number       1
_space_group_crystal_system       triclinic
_cell_length_a                    10.523656
_cell_length_b                    10.520639
_cell_length_c                    9.788477
_cell_angle_alpha                 90.17992
_cell_angle_beta                  90.59272
_cell_angle_gamma                 90.064146
_cell_volume                      1083.67291355

loop_
_atom_site_label
_atom_site_type_symbol
_atom_type_description
_atom_site_fract_x
_atom_site_fract_y
_atom_site_fract_z
_atom_type_partial_charge
C1    C     C_R   0.503360 0.258200 0.499821 0.977853
C2    C     C_3   0.603119 0.552228 0.050176 -0.195105
C3    C     C_R   0.258244 0.498877 0.499171 1.025828
C4    C     C_R   0.741756 0.501121 0.500829 1.025825
C5    C     C_3   0.042175 0.404258 0.577411 0.257395
C6    C     C_3   0.957825 0.595737 0.422588 0.257419
C7    C     C_3   0.956104 0.389560 0.450945 0.222373
C8    C     C_3   0.043896 0.610435 0.549055 0.222382
C9    C     C_3   0.875656 0.501343 0.502509 -0.246001
C10   C     C_3   0.124344 0.498652 0.497491 -0.246000
C11   C     C_3   0.962556 0.516050 0.629082 0.294144
C12   C     C_R   0.496639 0.741801 0.500179 0.977868
C13   C     C_3   0.037444 0.483945 0.370918 0.294136
C14   C     C_3   0.588940 0.039214 0.592313 -0.154718
C15   C     C_3   0.411058 0.960788 0.407689 -0.154723
C16   C     C_3   0.613324 0.954676 0.466672 0.337984
C17   C     C_3   0.386675 0.045326 0.533331 0.337954
C18   C     C_3   0.495010 0.875974 0.500145 -0.206393
C19   C     C_3   0.504988 0.124028 0.499857 -0.206389
C20   C     C_3   0.688044 0.086257 0.696123 -0.340896
C21   C     C_3   0.755066 0.975095 0.767615 -0.317380
C22   C     C_3   0.849452 0.022459 0.875696 -0.848407
C23   C     C_3   0.469419 0.960960 0.624621 0.375172
C24   C     C_3   0.311927 0.913756 0.303904 -0.340946
C25   C     C_3   0.244989 0.024923 0.232334 -0.317372
C26   C     C_3   0.150414 0.977562 0.124444 -0.848396
C27   C     C_3   0.530579 0.039041 0.375381 0.375203
C28   C     C_3   0.493269 0.384642 0.048328 -0.231695
C29   C     C_3   0.506731 0.615357 0.951673 -0.231548
C30   C     C_3   0.594033 0.438407 0.953718 0.564888
C31   C     C_3   0.405967 0.561589 0.046281 0.564887
C32   C     C_3   0.396883 0.447768 0.949824 -0.195255
H1    H     H_    0.489182 0.287987 0.093058 0.198539
H2    H     H_    0.001341 0.461972 0.180078 0.354227
H3    H     H_    0.786991 0.975715 0.414426 0.360745
H4    H     H_    0.213002 0.024287 0.585559 0.360756
H5    H     H_    0.923871 0.081978 0.827936 0.266683
H6    H     H_    0.799707 0.079085 0.954782 0.275968
H7    H     H_    0.896026 0.939987 0.925911 0.263864
H8    H     H_    0.683903 0.913283 0.817923 0.252822
H9    H     H_    0.806948 0.916987 0.691429 0.253928
H10   H     H_    0.758953 0.145889 0.642456 0.227178
H11   H     H_    0.639263 0.145861 0.773298 0.245577
H12   H     H_    0.510816 0.712012 0.906944 0.198551
H13   H     H_    0.199963 0.920666 0.045436 0.276015
H14   H     H_    0.075898 0.918308 0.172405 0.266662
H15   H     H_    0.103986 0.060041 0.074088 0.263859
H16   H     H_    0.193280 0.083216 0.308495 0.253997
H17   H     H_    0.316190 0.086559 0.181842 0.252762
H18   H     H_    0.360663 0.854075 0.226764 0.245637
H19   H     H_    0.240973 0.854208 0.357610 0.227207
H20   H     H_    0.424801 0.993580 0.810790 0.343172
H21   H     H_    0.575194 0.006421 0.189211 0.343154
H22   H     H_    0.744966 0.338892 0.977684 0.325527
H23   H     H_    0.309734 0.405897 0.903154 0.186683
H24   H     H_    0.254876 0.660862 0.022308 0.325555
H25   H     H_    0.690267 0.594101 0.096845 0.186685
H26   H     H_    0.980439 0.222168 0.378339 0.359249
H27   H     H_    0.019562 0.777824 0.621668 0.359233
H28   H     H_    0.014527 0.261472 0.693945 0.351845
H29   H     H_    0.985474 0.738492 0.306012 0.351841
H30   H     H_    0.998660 0.538021 0.819921 0.354209
N1    N     N_3   0.499910 0.500030 0.863290 -0.102333
N2    N     N_3   0.500090 0.499970 0.136710 -0.102323
O1    O     O_R   0.500010 0.313960 0.616610 -0.614787
O2    O     O_3   0.094221 0.724640 0.599249 -0.752519
O3    O     O_3   0.090263 0.305274 0.657434 -0.698767
O4    O     O_3   0.909737 0.694721 0.342567 -0.698776
O5    O     O_3   0.920427 0.533002 0.762895 -0.692776
O6    O     O_3   0.079574 0.466992 0.237105 -0.692834
O7    O     O_3   0.729876 0.902156 0.429155 -0.719431
O8    O     O_3   0.270123 0.097845 0.570848 -0.719425
O9    O     O_3   0.433661 0.916551 0.753127 -0.757880
O10   O     O_3   0.566339 0.083450 0.246875 -0.757940
O11   O     O_3   0.696161 0.371803 0.898231 -0.725119
O12   O     O_R   0.499990 0.686040 0.383390 -0.614784
O13   O     O_3   0.303837 0.628188 0.101767 -0.725171
O14   O     O_R   0.500060 0.313950 0.383350 -0.596519
O15   O     O_R   0.499940 0.686050 0.616650 -0.596527
O16   O     O_R   0.313930 0.499970 0.616610 -0.603003
O17   O     O_R   0.686070 0.500030 0.383390 -0.603000
O18   O     O_R   0.313980 0.499960 0.383350 -0.563212
O19   O     O_R   0.686020 0.500040 0.616650 -0.563209
O20   O     O_3   0.905780 0.275355 0.400750 -0.752513
Zn1   Zn    Zn3+2 0.499970 0.500010 0.655740 1.045312
Zn2   Zn    Zn3+2 0.500030 0.499990 0.344260 1.045317

loop_
_geom_bond_atom_site_label_1
_geom_bond_atom_site_label_2
_ccdc_geom_bond_type
C15   C18   S    
C29   N1    S    
C8    O2    S    
H21   O10   S    
C5    O3    S    
C6    C9    S    
C2    H25   S    
C21   H8    S    
C17   C23   S    
C2    C29   S    
C5    C11   S    
H27   O2    S    
C13   O6    S    
C22   H6    S    
C12   O15   A    
C7    C9    S    
C26   H13   S    
C4    O17   A    
H28   O3    S    
C1    O1    A    
C27   O10   S    
C19   C27   S    
H2    O6    S    
C32   H23   S    
O17   Zn2   S    
O14   Zn2   S    
C24   H19   S    
C6    O4    S    
C7    O20   S    
H3    O7    S    
C21   C22   S    
N1    Zn1   S    
C1    O14   A    
C16   O7    S    
C23   O9    S    
C3    O16   A    
C31   N2    S    
N2    Zn2   S    
C2    N2    S    
C31   O13   S    
C24   H18   S    
C1    C19   S    
C18   C23   S    
C14   C20   S    
C28   C32   S    
C24   C25   S    
H20   O9    S    
C5    C7    S    
C6    C8    S    
C25   C26   S    
O18   Zn2   S    
C22   H5    S    
H24   O13   S    
H30   O5    S    
C14   C23   S    
O16   Zn1   S    
H26   O20   S    
C15   C27   S    
C31   C32   S    
C3    O18   A    
C9    C11   S    
C25   H16   S    
C26   H15   S    
C21   H9    S    
C28   N2    S    
C8    C10   S    
C15   C24   S    
O19   Zn1   S    
C28   H1    S    
C12   O12   A    
C29   H12   S    
C14   C16   S    
O12   Zn2   S    
O15   Zn1   S    
C20   H11   S    
C15   C17   S    
C14   C19   S    
C32   N1    S    
C10   C13   S    
C20   H10   S    
C11   O5    S    
O1    Zn1   S    
C2    C30   S    
C28   C30   S    
C5    C10   S    
C29   C31   S    
C3    C10   S    
C6    C13   S    
C30   O11   S    
H29   O4    S    
C4    O19   A    
C16   C27   S    
C8    C11   S    
C22   H7    S    
C17   C19   S    
C25   H17   S    
C26   H14   S    
H22   O11   S    
C7    C13   S    
C20   C21   S    
C17   O8    S    
C16   C18   S    
C12   C18   S    
C4    C9    S    
C30   N1    S    
H4    O8    S    
