data_mof_unit_11165.cif
_audit_creation_date              2012-12-10T20:56:29-0500
_audit_creation_method            fapswitch 2.2
_symmetry_space_group_name_H-M    P1
_symmetry_Int_Tables_number       1
_space_group_crystal_system       triclinic
_cell_length_a                    12.986153
_cell_length_b                    15.078021
_cell_length_c                    15.802541
_cell_angle_alpha                 90.974638
_cell_angle_beta                  90.692994
_cell_angle_gamma                 68.928863
_cell_volume                      2886.8512041

loop_
_atom_site_label
_atom_site_type_symbol
_atom_type_description
_atom_site_fract_x
_atom_site_fract_y
_atom_site_fract_z
_atom_type_partial_charge
C1    C     C_R   0.499168 0.500983 0.661349 0.895223
C2    C     C_R   0.980459 0.464956 0.505562 -0.021071
C3    C     C_R   0.879581 0.470986 0.539944 -0.041591
C4    C     C_R   0.020801 0.538847 0.522427 0.052046
C5    C     C_R   0.972781 0.606200 0.588171 -0.061340
C6    C     C_R   0.872344 0.610573 0.625406 0.286592
C7    C     C_R   0.831846 0.537087 0.606180 0.105851
C8    C     C_R   0.111130 0.545465 0.477695 0.124645
C9    C     C_R   0.134507 0.652373 0.586477 0.122846
C10   C     C_R   0.828890 0.408177 0.509474 -0.271389
C11   C     C_R   0.551428 0.400531 0.041752 0.399303
C12   C     C_R   0.706802 0.446266 0.502884 0.952516
C13   C     C_R   0.542553 0.483831 0.087840 -0.165825
C14   C     C_R   0.540845 0.567054 0.047725 0.030563
C15   C     C_R   0.543690 0.568730 0.959354 0.400960
C16   C     C_R   0.539698 0.489410 0.913210 -0.158726
C17   C     C_R   0.545934 0.404774 0.953006 0.049632
C18   C     C_1   0.526043 0.488013 0.176419 0.103068
C19   C     C_1   0.522450 0.495858 0.824357 0.132896
C20   C     C_1   0.509457 0.499381 0.749799 -0.129779
C21   C     C_1   0.512149 0.493573 0.250681 -0.105805
C22   C     C_R   0.526244 0.039179 0.574463 0.493657
C23   C     C_R   0.499983 0.499235 0.338735 0.883353
C24   C     C_R   0.498393 0.095535 0.501012 -0.148589
C25   C     C_R   0.469301 0.056235 0.427213 -0.277052
C26   C     C_R   0.468118 0.962667 0.425256 0.435785
C27   C     C_R   0.496597 0.906120 0.498633 -0.139324
C28   C     C_R   0.524603 0.945885 0.572570 -0.256916
C29   C     C_1   0.499234 0.193162 0.500191 0.298683
C30   C     C_1   0.498381 0.807605 0.499354 0.212534
C31   C     C_R   0.294171 0.553227 0.501076 0.859849
C32   C     C_R   0.031605 0.662407 0.619189 -0.144937
C33   C     C_R   0.176151 0.590235 0.517377 -0.140957
C34   C     C_R   0.894891 0.319012 0.472996 0.289046
C35   C     C_R   0.002186 0.308108 0.445279 0.391977
C36   C     C_R   0.042653 0.380973 0.461455 -0.264754
H1    H     H_    0.545372 0.903838 0.629274 0.247857
H2    H     H_    0.447802 0.098872 0.370734 0.219851
H3    H     H_    0.005043 0.707342 0.674575 0.218143
H4    H     H_    0.127152 0.367621 0.444505 0.229314
N1    N     N_1   0.500030 0.729450 0.499980 -0.082737
N2    N     N_1   0.499970 0.270550 0.500020 -0.046747
O1    O     O_R   0.500000 0.426350 0.621980 -0.591343
O2    O     O_R   0.499950 0.573700 0.621980 -0.597536
O3    O     O_R   0.653660 0.389750 0.499980 -0.532188
O4    O     O_R   0.653610 0.537090 0.499980 -0.621256
O5    O     O_R   0.500050 0.426300 0.378020 -0.576977
O6    O     O_R   0.500000 0.573650 0.378020 -0.597851
O7    O     O_R   0.346390 0.462910 0.500020 -0.617701
O8    O     O_R   0.346340 0.610250 0.500020 -0.585237
Zn1   Zn    Zn3+2 0.500030 0.401620 0.500000 1.092933
Zn2   Zn    Zn3+2 0.499970 0.598380 0.500000 1.018696
N3    N     N_2   0.198751 0.700144 0.626920 -0.302859
H5    H     H_    0.191458 0.704041 0.691948 0.240213
C37   C     C_3   0.184117 0.791529 0.590999 -0.599466
H6    H     H_    0.098573 0.842016 0.601997 0.242968
H7    H     H_    0.200553 0.784450 0.521900 0.254043
H8    H     H_    0.242905 0.820694 0.621452 0.242762
S1    S     S_3+6 0.565932 0.292820 0.094560 0.054867
O9    O     O_2   0.621244 0.288272 0.179340 -0.237619
O10   O     O_2   0.453048 0.289001 0.106976 -0.278282
O11   O     O_3   0.642361 0.197806 0.036739 -0.545364
H9    H     H_    0.635992 0.142337 0.065810 0.405814
N4    N     N_2   0.533897 0.649616 0.096281 -0.233204
H10   H     H_    0.581243 0.636129 0.150764 0.253034
C38   C     C_3   0.422576 0.715614 0.110197 -0.517540
H11   H     H_    0.425373 0.780393 0.143063 0.286052
H12   H     H_    0.376419 0.682858 0.150153 0.197441
H13   H     H_    0.378453 0.737049 0.048934 0.256772
S2    S     S_3+6 0.550503 0.669453 0.905663 0.076614
O12   O     O_2   0.637649 0.635324 0.838851 -0.243534
O13   O     O_2   0.440891 0.720619 0.864040 -0.288257
O14   O     O_3   0.582326 0.745389 0.970749 -0.484512
H14   H     H_    0.584051 0.797272 0.933832 0.413307
S3    S     S_3+6 0.564023 0.083681 0.669456 0.046754
O15   O     O_2   0.664118 0.108759 0.653712 -0.266186
O16   O     O_2   0.470479 0.171583 0.697153 -0.311944
O17   O     O_3   0.592721 0.002205 0.746211 -0.487200
H15   H     H_    0.614055 0.032752 0.795971 0.393059
S4    S     S_3+6 0.431733 0.917498 0.330060 0.036199
O18   O     O_2   0.529918 0.835619 0.298714 -0.258439
O19   O     O_2   0.339286 0.882260 0.346329 -0.321416
O20   O     O_3   0.392235 0.001337 0.255208 -0.487419
H16   H     H_    0.317532 0.044277 0.272213 0.385127
S5    S     S_3+6 0.796608 0.708206 0.693283 0.054292
O21   O     O_2   0.836315 0.684511 0.782688 -0.215423
O22   O     O_2   0.813922 0.797617 0.668381 -0.269969
O23   O     O_3   0.660088 0.731961 0.689143 -0.485181
H17   H     H_    0.643516 0.729463 0.628136 0.320571
N5    N     N_2   0.133926 0.511252 0.392238 -0.314016
H18   H     H_    0.210854 0.503547 0.369704 0.229746
C39   C     C_3   0.047655 0.558130 0.331755 -0.670534
H19   H     H_    0.070862 0.524498 0.268315 0.256073
H20   H     H_    0.036469 0.634573 0.327867 0.240292
H21   H     H_    0.968396 0.551492 0.349734 0.251870
S6    S     S_3+6 0.847891 0.221072 0.472162 0.106747
O24   O     O_2   0.782334 0.224733 0.550789 -0.264932
O25   O     O_2   0.775784 0.227829 0.395580 -0.247388
O26   O     O_3   0.951909 0.115169 0.470772 -0.450037
H22   H     H_    0.915705 0.067566 0.466342 0.388199
S7    S     S_3+6 0.087934 0.209020 0.385171 0.082486
O27   O     O_2   0.019742 0.174010 0.325199 -0.194160
O28   O     O_2   0.168806 0.236781 0.334709 -0.314746
O29   O     O_3   0.158904 0.121871 0.451541 -0.502611
H23   H     H_    0.202720 0.068443 0.414351 0.387904
N6    N     N_2   0.758982 0.515998 0.662558 -0.309557
H24   H     H_    0.693561 0.571798 0.685518 0.308845
C40   C     C_3   0.814128 0.447627 0.726771 -0.650754
H25   H     H_    0.752151 0.430328 0.764023 0.227085
H26   H     H_    0.861623 0.477477 0.770287 0.271296
H27   H     H_    0.870710 0.380759 0.697178 0.249282
N7    N     N_2   0.538071 0.327466 0.903131 -0.279670
H28   H     H_    0.495921 0.287778 0.928065 0.294222
C41   C     C_3   0.631274 0.275854 0.849899 -0.535050
H29   H     H_    0.668101 0.200775 0.870180 0.265098
H30   H     H_    0.696430 0.307611 0.852627 0.216224
H31   H     H_    0.602465 0.276805 0.783404 0.261823

loop_
_geom_bond_atom_site_label_1
_geom_bond_atom_site_label_2
_ccdc_geom_bond_type
C38   H12   S    
C37   H6    S    
S7    O27   D    
C29   N2    T    
C18   C21   T    
O14   H14   S    
C19   C20   T    
C4    C8    A    
N7    C41   S    
C41   H29   S    
N3    H5    S    
C26   C27   A    
C6    S5    S    
C13   C18   S    
C34   S6    S    
C3    C7    A    
C5    C6    A    
C38   H13   S    
N6    H24   S    
O3    Zn1   S    
C15   C16   A    
S6    O26   S    
O4    Zn2   S    
C40   H25   S    
C34   C35   A    
C32   H3    S    
C24   C29   S    
O29   H23   S    
C9    C32   A    
C1    O1    A    
O20   H16   S    
C16   C17   A    
O7    Zn1   S    
S6    O25   D    
O8    Zn2   S    
C31   C33   S    
C30   N1    T    
S2    O12   D    
N1    Zn2   S    
N2    Zn1   S    
C5    C32   A    
O2    Zn2   S    
N3    C37   S    
C38   H11   S    
S1    O9    D    
S7    O28   D    
C22   C28   A    
C13   C14   A    
C27   C30   S    
C9    C33   A    
C22   S3    S    
C31   O7    A    
S4    O20   S    
C11   S1    S    
N7    H28   S    
S5    O22   D    
S1    O10   D    
C23   O5    A    
C36   H4    S    
C24   C25   A    
C12   O4    A    
O17   H15   S    
S4    O18   D    
O5    Zn1   S    
C35   S7    S    
C25   C26   A    
S5    O21   D    
C39   H21   S    
C26   S4    S    
C35   C36   A    
N4    C38   S    
C2    C4    A    
S3    O15   D    
O11   H9    S    
C25   H2    S    
C1    O2    A    
N5    C39   S    
O26   H22   S    
O6    Zn2   S    
C14   N4    S    
S6    O24   D    
S2    O14   S    
C39   H20   S    
C7    N6    S    
C10   C34   A    
S3    O16   D    
C10   C12   S    
S4    O19   D    
S7    O29   S    
C21   C23   S    
C22   C24   A    
C9    N3    S    
C31   O8    A    
C17   N7    S    
S5    O23   S    
C2    C36   A    
C15   S2    S    
C11   C17   A    
S1    O11   S    
C23   O6    A    
C12   O3    A    
C1    C20   S    
C41   H30   S    
C6    C7    A    
C40   H27   S    
N4    H10   S    
C37   H7    S    
C2    C3    A    
C3    C10   A    
C11   C13   A    
O1    Zn1   S    
N5    H18   S    
N6    C40   S    
C28   H1    S    
C16   C19   S    
C39   H19   S    
C40   H26   S    
C8    C33   A    
S3    O17   S    
C41   H31   S    
C4    C5    A    
C8    N5    S    
O23   H17   S    
C37   H8    S    
C27   C28   A    
C14   C15   A    
S2    O13   D    
