data_mof_unit_47726.cif
_audit_creation_date              2012-12-10T17:08:18-0500
_audit_creation_method            fapswitch 2.2
_symmetry_space_group_name_H-M    P1
_symmetry_Int_Tables_number       1
_space_group_crystal_system       monoclinic
_cell_length_a                    18.204665
_cell_length_b                    18.204656
_cell_length_c                    34.309949
_cell_angle_alpha                 90.0
_cell_angle_beta                  90.000017
_cell_angle_gamma                 90.0
_cell_volume                      11370.6486672

loop_
_atom_site_label
_atom_site_type_symbol
_atom_type_description
_atom_site_fract_x
_atom_site_fract_y
_atom_site_fract_z
_atom_type_partial_charge
C1    C     C_R   0.000000 0.500000 0.894149 0.526070
C2    C     C_R   0.054394 0.540331 0.790826 -0.024328
C3    C     C_R   0.620490 0.663708 0.929276 -0.165226
C4    C     C_R   0.688779 0.648583 0.913053 -0.163899
C5    C     C_R   0.648581 0.311223 0.913054 -0.163901
C6    C     C_R   0.311221 0.351417 0.913053 -0.163900
C7    C     C_R   0.351419 0.688777 0.913054 -0.163901
C8    C     C_R   0.836292 0.120489 0.429277 -0.165226
C9    C     C_R   0.879511 0.836293 0.429277 -0.165225
C10   C     C_R   0.163707 0.879511 0.429277 -0.165225
C11   C     C_R   0.120488 0.163707 0.429277 -0.165226
C12   C     C_R   0.188777 0.148581 0.413054 -0.163902
C13   C     C_R   0.459670 0.054394 0.790826 -0.024328
C14   C     C_R   0.148582 0.811223 0.413054 -0.163901
C15   C     C_R   0.811222 0.851418 0.413054 -0.163900
C16   C     C_R   0.851418 0.188777 0.413054 -0.163900
C17   C     C_R   0.299303 0.748143 0.970465 0.008986
C18   C     C_R   0.251857 0.299302 0.970465 0.008985
C19   C     C_R   0.700697 0.251857 0.970465 0.008986
C20   C     C_R   0.748143 0.700698 0.970465 0.008985
C21   C     C_R   0.680509 0.732082 0.981398 0.011245
C22   C     C_R   0.732082 0.319491 0.981398 0.011245
C23   C     C_R   0.319491 0.267918 0.981398 0.011245
C24   C     C_R   0.945606 0.459669 0.790826 -0.024328
C25   C     C_R   0.267918 0.680508 0.981398 0.011245
C26   C     C_R   0.799302 0.248143 0.470465 0.008984
C27   C     C_R   0.751857 0.799302 0.470465 0.008985
C28   C     C_R   0.200697 0.751857 0.470465 0.008985
C29   C     C_R   0.248143 0.200697 0.470465 0.008986
C30   C     C_R   0.180508 0.232082 0.481398 0.011245
C31   C     C_R   0.232082 0.819492 0.481398 0.011246
C32   C     C_R   0.819491 0.767918 0.481398 0.011245
C33   C     C_R   0.767918 0.180508 0.481398 0.011244
C34   C     C_R   0.210528 0.681723 0.009255 0.037364
C35   C     C_R   0.040331 0.445607 0.290826 -0.024328
C36   C     C_R   0.318277 0.210528 0.009255 0.037364
C37   C     C_R   0.789472 0.318277 0.009255 0.037364
C38   C     C_R   0.681723 0.789472 0.009255 0.037365
C39   C     C_R   0.807091 0.703581 0.997566 0.033386
C40   C     C_R   0.703581 0.192909 0.997566 0.033386
C41   C     C_R   0.192909 0.296418 0.997566 0.033386
C42   C     C_R   0.296418 0.807091 0.997566 0.033386
C43   C     C_R   0.710528 0.181723 0.509255 0.037365
C44   C     C_R   0.818277 0.710528 0.509255 0.037365
C45   C     C_R   0.289472 0.818277 0.509255 0.037364
C46   C     C_R   0.554394 0.040330 0.290826 -0.024328
C47   C     C_R   0.181723 0.289472 0.509255 0.037364
C48   C     C_R   0.307091 0.203581 0.497566 0.033386
C49   C     C_R   0.203581 0.692909 0.497566 0.033386
C50   C     C_R   0.692909 0.796419 0.497566 0.033386
C51   C     C_R   0.796419 0.307091 0.497566 0.033385
C52   C     C_R   0.208785 0.738226 0.037278 -0.003477
C53   C     C_R   0.261775 0.208786 0.037278 -0.003478
C54   C     C_R   0.791214 0.261774 0.037278 -0.003478
C55   C     C_R   0.738225 0.791214 0.037278 -0.003478
C56   C     C_R   0.804683 0.754649 0.029107 -0.014821
C57   C     C_R   0.959665 0.554391 0.290826 -0.024325
C58   C     C_R   0.754649 0.195316 0.029106 -0.014821
C59   C     C_R   0.195317 0.245351 0.029106 -0.014821
C60   C     C_R   0.245350 0.804684 0.029106 -0.014821
C61   C     C_R   0.708786 0.238226 0.537278 -0.003477
C62   C     C_R   0.761774 0.708786 0.537278 -0.003478
C63   C     C_R   0.291214 0.761774 0.537278 -0.003478
C64   C     C_R   0.238226 0.291214 0.537278 -0.003478
C65   C     C_R   0.304684 0.254649 0.529106 -0.014821
C66   C     C_R   0.254649 0.695316 0.529106 -0.014822
C67   C     C_R   0.695317 0.745351 0.529106 -0.014821
C68   C     C_R   0.445605 0.959670 0.290826 -0.024328
C69   C     C_R   0.745351 0.304683 0.529106 -0.014820
C70   C     C_R   0.460815 0.053493 0.831715 -0.125993
C71   C     C_R   0.946507 0.460815 0.831715 -0.125992
C72   C     C_R   0.539185 0.946507 0.831715 -0.125992
C73   C     C_R   0.053493 0.539185 0.831715 -0.125993
C74   C     C_R   0.960812 0.553491 0.331715 -0.125990
C75   C     C_R   0.446507 0.960816 0.331715 -0.125992
C76   C     C_R   0.039186 0.446508 0.331715 -0.125992
C77   C     C_R   0.553493 0.039184 0.331715 -0.125992
C78   C     C_3   0.179586 0.723158 0.078276 -0.243949
C79   C     C_R   0.500000 0.000000 0.770326 0.041663
C80   C     C_3   0.242463 0.709578 0.107427 -0.312538
C81   C     C_3   0.280294 0.635696 0.100771 -0.378123
C82   C     C_3   0.276844 0.179588 0.078277 -0.243950
C83   C     C_3   0.290425 0.242466 0.107427 -0.312538
C84   C     C_3   0.364307 0.280296 0.100771 -0.378122
C85   C     C_3   0.820413 0.276842 0.078277 -0.243949
C86   C     C_3   0.757536 0.290423 0.107427 -0.312538
C87   C     C_3   0.719704 0.364304 0.100771 -0.378122
C88   C     C_3   0.723156 0.820412 0.078277 -0.243951
C89   C     C_3   0.709573 0.757534 0.107427 -0.312535
C90   C     C_R   1.000000 0.500000 0.770326 0.041663
C91   C     C_3   0.635691 0.719704 0.100770 -0.378121
C92   C     C_3   0.875550 0.784707 0.046997 -0.223114
C93   C     C_3   0.895494 0.751440 0.086931 -0.277176
C94   C     C_3   0.977377 0.759835 0.095413 -0.430745
C95   C     C_3   0.784709 0.124449 0.046995 -0.223112
C96   C     C_3   0.751444 0.104502 0.086929 -0.277177
C97   C     C_3   0.759842 0.022619 0.095410 -0.430746
C98   C     C_3   0.124450 0.215292 0.046997 -0.223112
C99   C     C_3   0.104504 0.248558 0.086930 -0.277177
C100  C     C_3   0.022621 0.240162 0.095412 -0.430745
C101  C     C_R   0.999998 0.499998 0.270326 0.041661
C102  C     C_3   0.215291 0.875551 0.046995 -0.223113
C103  C     C_3   0.248555 0.895498 0.086929 -0.277178
C104  C     C_3   0.240158 0.977381 0.095410 -0.430746
C105  C     C_3   0.679587 0.223157 0.578277 -0.243950
C106  C     C_3   0.742465 0.209574 0.607427 -0.312536
C107  C     C_3   0.780299 0.135695 0.600768 -0.378117
C108  C     C_3   0.776843 0.679588 0.578277 -0.243949
C109  C     C_3   0.790425 0.742465 0.607427 -0.312536
C110  C     C_3   0.864305 0.780298 0.600769 -0.378119
C111  C     C_3   0.320413 0.776842 0.578277 -0.243949
C112  C     C_R   0.500000 0.000000 0.894149 0.526071
C113  C     C_R   0.500000 0.000000 0.270326 0.041663
C114  C     C_3   0.257536 0.790422 0.607427 -0.312538
C115  C     C_3   0.219709 0.864306 0.600773 -0.378126
C116  C     C_3   0.223158 0.320413 0.578276 -0.243948
C117  C     C_3   0.209578 0.257536 0.607427 -0.312537
C118  C     C_3   0.135694 0.219707 0.600772 -0.378123
C119  C     C_3   0.375551 0.284709 0.546995 -0.223113
C120  C     C_3   0.395497 0.251444 0.586929 -0.277178
C121  C     C_3   0.477381 0.259842 0.595411 -0.430746
C122  C     C_3   0.284708 0.624449 0.546996 -0.223112
C123  C     C_3   0.251444 0.604503 0.586930 -0.277177
C124  C     C_R   0.580029 0.890979 0.770319 0.031303
C125  C     C_3   0.259841 0.522620 0.595411 -0.430745
C126  C     C_3   0.624449 0.715291 0.546996 -0.223113
C127  C     C_3   0.604503 0.748556 0.586930 -0.277178
C128  C     C_3   0.522620 0.740160 0.595411 -0.430745
C129  C     C_3   0.715292 0.375551 0.546996 -0.223112
C130  C     C_3   0.748556 0.395497 0.586930 -0.277177
C131  C     C_3   0.740160 0.477381 0.595411 -0.430745
C132  C     C_2   0.289783 0.541175 0.981830 0.263813
C133  C     C_2   0.458825 0.289784 0.981829 0.263814
C134  C     C_2   0.710217 0.458825 0.981830 0.263814
C135  C     C_R   0.109021 0.580029 0.770319 0.031303
C136  C     C_2   0.541175 0.710216 0.981829 0.263814
C137  C     C_2   0.822984 0.662510 0.910443 0.276603
C138  C     C_2   0.662508 0.177018 0.910443 0.276603
C139  C     C_2   0.177017 0.337491 0.910443 0.276603
C140  C     C_2   0.337492 0.822982 0.910443 0.276604
C141  C     C_2   0.789783 0.041175 0.481830 0.263813
C142  C     C_2   0.958825 0.789783 0.481830 0.263813
C143  C     C_2   0.210217 0.958825 0.481830 0.263813
C144  C     C_2   0.041175 0.210216 0.481830 0.263813
C145  C     C_2   0.322982 0.162508 0.410443 0.276603
C146  C     C_R   0.419972 0.109022 0.770319 0.031303
C147  C     C_2   0.162508 0.677018 0.410443 0.276603
C148  C     C_2   0.677017 0.837491 0.410443 0.276605
C149  C     C_2   0.837491 0.322982 0.410443 0.276604
C150  C     C_2   0.618982 0.832630 0.792373 0.291969
C151  C     C_2   0.167369 0.618983 0.792373 0.291970
C152  C     C_2   0.381018 0.167370 0.792373 0.291970
C153  C     C_2   0.832631 0.381017 0.792373 0.291970
C154  C     C_2   0.118988 0.332634 0.292373 0.291969
C155  C     C_2   0.667371 0.118980 0.292373 0.291970
C156  C     C_2   0.881013 0.667366 0.292373 0.291951
C157  C     C_R   0.890979 0.419971 0.770319 0.031303
C158  C     C_2   0.332629 0.881020 0.292373 0.291971
C159  C     C_2   0.104183 0.325177 0.206404 0.210561
C160  C     C_2   0.674829 0.104173 0.206404 0.210561
C161  C     C_2   0.895804 0.674816 0.206405 0.210550
C162  C     C_2   0.325170 0.895828 0.206404 0.210562
C163  C     C_2   0.604177 0.825173 0.706404 0.210561
C164  C     C_2   0.174827 0.604176 0.706404 0.210562
C165  C     C_2   0.395825 0.174828 0.706404 0.210563
C166  C     C_2   0.825173 0.395824 0.706404 0.210562
C167  C     C_2   0.128751 0.444897 0.150276 0.182849
C168  C     C_R   0.080032 0.390981 0.270319 0.031303
C169  C     C_2   0.555110 0.128749 0.150276 0.182850
C170  C     C_2   0.871246 0.555101 0.150275 0.182851
C171  C     C_2   0.444890 0.871251 0.150276 0.182851
C172  C     C_2   0.628750 0.944891 0.650276 0.182851
C173  C     C_2   0.055109 0.628750 0.650276 0.182850
C174  C     C_2   0.371250 0.055109 0.650276 0.182848
C175  C     C_2   0.944891 0.371250 0.650276 0.182848
C176  C     C_R   0.609022 0.080027 0.270319 0.031303
C177  C     C_R   0.919964 0.609016 0.270319 0.031302
C178  C     C_R   0.390977 0.919973 0.270319 0.031304
C179  C     C_R   0.080356 0.391420 0.229033 0.010264
C180  C     C_R   0.500000 0.000000 0.394149 0.526071
C181  C     C_R   0.608584 0.080352 0.229033 0.010264
C182  C     C_R   0.919636 0.608575 0.229034 0.010263
C183  C     C_R   0.391416 0.919649 0.229033 0.010265
C184  C     C_R   0.580353 0.891418 0.729033 0.010264
C185  C     C_R   0.108582 0.580353 0.729033 0.010264
C186  C     C_R   0.419647 0.108583 0.729033 0.010264
C187  C     C_R   0.891418 0.419647 0.729033 0.010264
C188  C     C_R   0.045677 0.450317 0.208924 -0.066497
C189  C     C_R   0.549685 0.045676 0.208924 -0.066497
C190  C     C_R   0.954317 0.549680 0.208924 -0.066495
C191  C     C_R   0.000000 0.500000 0.394149 0.526070
C192  C     C_R   0.450315 0.954324 0.208924 -0.066497
C193  C     C_R   0.545677 0.950316 0.708924 -0.066497
C194  C     C_R   0.049684 0.545677 0.708924 -0.066497
C195  C     C_R   0.454323 0.049684 0.708924 -0.066497
C196  C     C_R   0.950316 0.454323 0.708924 -0.066497
C197  C     C_R   0.999997 0.499998 0.229485 0.017470
C198  C     C_R   0.500000 0.000000 0.229485 0.017473
C199  C     C_R   0.500000 0.000000 0.729485 0.017473
C200  C     C_R   0.000000 0.500000 0.729485 0.017473
C201  C     C_R   0.055866 0.462385 0.168574 -0.043126
C202  C     C_R   0.500000 0.000000 0.851794 0.024108
C203  C     C_R   0.537618 0.055865 0.168574 -0.043124
C204  C     C_R   0.944130 0.537614 0.168574 -0.043125
C205  C     C_R   0.462382 0.944135 0.168574 -0.043124
C206  C     C_R   0.555866 0.962382 0.668574 -0.043125
C207  C     C_R   0.037617 0.555866 0.668574 -0.043125
C208  C     C_R   0.444134 0.037618 0.668574 -0.043125
C209  C     C_R   0.962382 0.444134 0.668574 -0.043125
C210  C     C_R   0.999999 0.500000 0.148077 0.046697
C211  C     C_R   0.500000 0.000000 0.148077 0.046701
C212  C     C_R   0.500000 0.000000 0.648077 0.046700
C213  C     C_R   1.000000 0.500000 0.851794 0.024107
C214  C     C_R   0.000000 0.500000 0.648077 0.046700
C215  C     C_R   1.000000 0.500000 0.105731 0.639824
C216  C     C_R   0.500000 0.000000 0.105731 0.639822
C217  C     C_R   0.500000 0.000000 0.605731 0.639823
C218  C     C_R   0.000000 0.500000 0.605731 0.639823
C219  C     C_R   0.861711 0.643060 0.998540 0.571012
C220  C     C_R   0.356940 0.861711 0.998540 0.571011
C221  C     C_R   0.138289 0.356940 0.998540 0.571011
C222  C     C_R   0.643060 0.138289 0.998540 0.571011
C223  C     C_R   0.144787 0.634907 0.003427 0.547921
C224  C     C_R   1.000000 0.500000 0.351794 0.024106
C225  C     C_R   0.634907 0.855213 0.003427 0.547920
C226  C     C_R   0.855213 0.365092 0.003427 0.547921
C227  C     C_R   0.365093 0.144787 0.003427 0.547920
C228  C     C_R   0.361711 0.143060 0.498540 0.571011
C229  C     C_R   0.856940 0.361711 0.498540 0.571011
C230  C     C_R   0.638289 0.856940 0.498540 0.571010
C231  C     C_R   0.143060 0.638289 0.498540 0.571011
C232  C     C_R   0.644787 0.134907 0.503427 0.547919
C233  C     C_R   0.134907 0.355213 0.503427 0.547921
C234  C     C_R   0.355213 0.865093 0.503427 0.547921
C235  C     C_R   0.500000 0.000000 0.351794 0.024108
C236  C     C_R   0.865093 0.644787 0.503427 0.547920
C237  C     C_R   0.294938 0.615031 0.963533 0.043839
C238  C     C_R   0.384968 0.294937 0.963533 0.043838
C239  C     C_R   0.705062 0.384969 0.963533 0.043838
C240  C     C_R   0.615032 0.705063 0.963532 0.043838
C241  C     C_R   0.753253 0.667995 0.932735 0.038075
C242  C     C_R   0.667994 0.246748 0.932735 0.038076
C243  C     C_R   0.246747 0.332005 0.932735 0.038076
C244  C     C_R   0.332006 0.753252 0.932735 0.038076
C245  C     C_R   0.794937 0.115031 0.463533 0.043838
C246  C     C_R   0.540331 0.945606 0.790826 -0.024328
C247  C     C_R   0.884969 0.794938 0.463533 0.043838
C248  C     C_R   0.205062 0.884969 0.463533 0.043838
C249  C     C_R   0.115031 0.205062 0.463533 0.043839
C250  C     C_R   0.253252 0.167994 0.432735 0.038076
C251  C     C_R   0.167994 0.746748 0.432735 0.038076
C252  C     C_R   0.746748 0.832005 0.432735 0.038076
C253  C     C_R   0.832005 0.253252 0.432735 0.038076
C254  C     C_R   0.336293 0.620488 0.929278 -0.165225
C255  C     C_R   0.379510 0.336292 0.929277 -0.165226
C256  C     C_R   0.663707 0.379512 0.929277 -0.165225
H1    H     H_    0.356138 0.571563 0.914683 0.097555
H2    H     H_    0.928436 0.856137 0.414683 0.097554
H3    H     H_    0.355182 0.730750 0.588456 0.116444
H4    H     H_    0.356047 0.825841 0.579950 0.181946
H5    H     H_    0.090185 0.260336 0.601555 0.200632
H6    H     H_    0.135556 0.190881 0.572267 0.204993
H7    H     H_    0.126292 0.178405 0.624055 0.159334
H8    H     H_    0.253428 0.215442 0.605646 0.182378
H9    H     H_    0.210203 0.280560 0.637431 0.173708
H10   H     H_    0.269250 0.355182 0.588456 0.116444
H11   H     H_    0.174159 0.356048 0.579950 0.181945
H12   H     H_    0.510100 0.229993 0.573222 0.192336
H13   H     H_    0.143863 0.928436 0.414683 0.097555
H14   H     H_    0.493145 0.318789 0.595165 0.137367
H15   H     H_    0.490390 0.236499 0.624470 0.138987
H16   H     H_    0.364971 0.280084 0.610410 0.150157
H17   H     H_    0.380936 0.192306 0.588247 0.223718
H18   H     H_    0.421431 0.277560 0.525957 0.176125
H19   H     H_    0.371530 0.345374 0.550026 0.122945
H20   H     H_    0.229992 0.489900 0.573222 0.192336
H21   H     H_    0.318789 0.506856 0.595166 0.137367
H22   H     H_    0.236498 0.509610 0.624471 0.138987
H23   H     H_    0.280084 0.635030 0.610410 0.150156
H24   H     H_    0.071563 0.143862 0.414683 0.097555
H25   H     H_    0.192306 0.619064 0.588247 0.223717
H26   H     H_    0.277560 0.578569 0.525958 0.176125
H27   H     H_    0.345373 0.628470 0.550026 0.122945
H28   H     H_    0.489901 0.770008 0.573222 0.192337
H29   H     H_    0.506855 0.681212 0.595166 0.137366
H30   H     H_    0.509610 0.763502 0.624471 0.138987
H31   H     H_    0.635030 0.719916 0.610410 0.150157
H32   H     H_    0.619065 0.807694 0.588248 0.223718
H33   H     H_    0.578569 0.722440 0.525958 0.176125
H34   H     H_    0.628471 0.654627 0.550026 0.122945
H35   H     H_    0.191261 0.121562 0.384942 0.108468
H36   H     H_    0.770010 0.510099 0.573222 0.192338
H37   H     H_    0.681212 0.493146 0.595165 0.137366
H38   H     H_    0.763501 0.490390 0.624471 0.138986
H39   H     H_    0.719916 0.364971 0.610410 0.150156
H40   H     H_    0.807694 0.380935 0.588248 0.223718
H41   H     H_    0.722440 0.421431 0.525958 0.176126
H42   H     H_    0.654627 0.371529 0.550026 0.122944
H43   H     H_    0.301933 0.492448 0.964758 0.103180
H44   H     H_    0.507551 0.301933 0.964756 0.103179
H45   H     H_    0.698067 0.507552 0.964757 0.103179
H46   H     H_    0.121563 0.808738 0.384942 0.108468
H47   H     H_    0.492449 0.698067 0.964755 0.103179
H48   H     H_    0.826474 0.626273 0.885372 0.104718
H49   H     H_    0.626271 0.173528 0.885372 0.104718
H50   H     H_    0.173527 0.373728 0.885372 0.104719
H51   H     H_    0.373729 0.826471 0.885372 0.104718
H52   H     H_    0.801933 0.992448 0.464757 0.103180
H53   H     H_    0.007551 0.801933 0.464757 0.103179
H54   H     H_    0.198067 0.007551 0.464757 0.103180
H55   H     H_    0.992448 0.198066 0.464757 0.103179
H56   H     H_    0.326472 0.126271 0.385372 0.104718
H57   H     H_    0.808738 0.878437 0.384942 0.108467
H58   H     H_    0.126271 0.673528 0.385372 0.104718
H59   H     H_    0.673527 0.873728 0.385372 0.104718
H60   H     H_    0.873728 0.326472 0.385372 0.104719
H61   H     H_    0.588555 0.796879 0.811871 0.078961
H62   H     H_    0.203119 0.588556 0.811871 0.078962
H63   H     H_    0.411445 0.203120 0.811871 0.078962
H64   H     H_    0.796880 0.411444 0.811871 0.078963
H65   H     H_    0.088562 0.296882 0.311871 0.078961
H66   H     H_    0.703121 0.088553 0.311871 0.078960
H67   H     H_    0.911443 0.703121 0.311867 0.078956
H68   H     H_    0.878437 0.191262 0.384942 0.108469
H69   H     H_    0.296879 0.911447 0.311872 0.078961
H70   H     H_    0.080032 0.314508 0.178083 0.092399
H71   H     H_    0.685495 0.080022 0.178083 0.092397
H72   H     H_    0.919964 0.685495 0.178087 0.092398
H73   H     H_    0.314505 0.919978 0.178083 0.092397
H74   H     H_    0.580025 0.814505 0.678083 0.092397
H75   H     H_    0.185494 0.580025 0.678083 0.092398
H76   H     H_    0.419976 0.185494 0.678083 0.092398
H77   H     H_    0.814506 0.419974 0.678083 0.092398
H78   H     H_    0.174144 0.426938 0.168386 0.141387
H79   H     H_    0.430340 0.093478 0.848563 0.125058
H80   H     H_    0.573075 0.174141 0.168386 0.141385
H81   H     H_    0.825851 0.573054 0.168385 0.141401
H82   H     H_    0.426925 0.825859 0.168386 0.141384
H83   H     H_    0.674142 0.926929 0.668386 0.141386
H84   H     H_    0.073071 0.674142 0.668386 0.141385
H85   H     H_    0.325858 0.073072 0.668386 0.141385
H86   H     H_    0.926929 0.325858 0.668386 0.141384
H87   H     H_    0.906522 0.430339 0.848563 0.125058
H88   H     H_    0.569660 0.906522 0.848563 0.125059
H89   H     H_    0.428435 0.356137 0.914682 0.097555
H90   H     H_    0.093478 0.569661 0.848563 0.125059
H91   H     H_    0.930336 0.593475 0.348563 0.125066
H92   H     H_    0.406521 0.930341 0.348563 0.125058
H93   H     H_    0.069663 0.406524 0.348563 0.125059
H94   H     H_    0.593479 0.069659 0.348563 0.125059
H95   H     H_    0.239666 0.590186 0.101552 0.200636
H96   H     H_    0.309122 0.635561 0.072267 0.204990
H97   H     H_    0.321595 0.626292 0.124054 0.159333
H98   H     H_    0.284557 0.753429 0.105647 0.182377
H99   H     H_    0.219440 0.710201 0.137431 0.173707
H100  H     H_    0.643862 0.428437 0.914683 0.097556
H101  H     H_    0.144818 0.769251 0.088456 0.116444
H102  H     H_    0.143952 0.674160 0.079949 0.181945
H103  H     H_    0.409817 0.239667 0.101551 0.200635
H104  H     H_    0.364442 0.309122 0.072266 0.204990
H105  H     H_    0.373711 0.321597 0.124053 0.159334
H106  H     H_    0.246574 0.284559 0.105646 0.182378
H107  H     H_    0.289803 0.219442 0.137431 0.173710
H108  H     H_    0.230751 0.144820 0.088457 0.116445
H109  H     H_    0.325842 0.143953 0.079950 0.181945
H110  H     H_    0.760333 0.409815 0.101550 0.200634
H111  H     H_    0.571565 0.643864 0.914682 0.097555
H112  H     H_    0.690877 0.364438 0.072266 0.204989
H113  H     H_    0.678404 0.373709 0.124054 0.159333
H114  H     H_    0.715443 0.246571 0.105647 0.182377
H115  H     H_    0.780560 0.289801 0.137431 0.173707
H116  H     H_    0.855181 0.230750 0.088456 0.116445
H117  H     H_    0.856047 0.325841 0.079949 0.181944
H118  H     H_    0.590182 0.760333 0.101550 0.200635
H119  H     H_    0.635557 0.690877 0.072265 0.204990
H120  H     H_    0.626286 0.678403 0.124053 0.159337
H121  H     H_    0.753424 0.715440 0.105647 0.182381
H122  H     H_    0.691264 0.621564 0.884941 0.108470
H123  H     H_    0.710195 0.780557 0.137431 0.173713
H124  H     H_    0.769248 0.855179 0.088457 0.116444
H125  H     H_    0.674157 0.856046 0.079950 0.181945
H126  H     H_    0.010097 0.729987 0.073224 0.192339
H127  H     H_    0.993142 0.818782 0.095169 0.137364
H128  H     H_    0.990385 0.736491 0.124473 0.138985
H129  H     H_    0.864967 0.780079 0.110412 0.150153
H130  H     H_    0.880931 0.692302 0.088248 0.223723
H131  H     H_    0.921431 0.777559 0.025960 0.176126
H132  H     H_    0.871528 0.845372 0.050029 0.122943
H133  H     H_    0.621562 0.308739 0.884942 0.108469
H134  H     H_    0.729993 0.989900 0.073221 0.192337
H135  H     H_    0.818790 0.006855 0.095165 0.137365
H136  H     H_    0.736499 0.009609 0.124470 0.138986
H137  H     H_    0.780085 0.135029 0.110410 0.150156
H138  H     H_    0.692306 0.119064 0.088247 0.223717
H139  H     H_    0.777560 0.078569 0.025957 0.176125
H140  H     H_    0.845374 0.128470 0.050026 0.122945
H141  H     H_    0.989902 0.270010 0.073223 0.192337
H142  H     H_    0.006857 0.181214 0.095167 0.137365
H143  H     H_    0.009612 0.263505 0.124472 0.138987
H144  H     H_    0.308737 0.378436 0.884942 0.108470
H145  H     H_    0.135032 0.219918 0.110411 0.150156
H146  H     H_    0.119066 0.307696 0.088248 0.223717
H147  H     H_    0.078569 0.222440 0.025959 0.176125
H148  H     H_    0.128471 0.154627 0.050028 0.122944
H149  H     H_    0.270007 0.010100 0.073221 0.192337
H150  H     H_    0.181210 0.993146 0.095164 0.137366
H151  H     H_    0.263500 0.990391 0.124470 0.138987
H152  H     H_    0.219915 0.864971 0.110410 0.150157
H153  H     H_    0.307693 0.880937 0.088247 0.223717
H154  H     H_    0.222439 0.921431 0.025957 0.176125
H155  H     H_    0.378438 0.691261 0.884942 0.108469
H156  H     H_    0.154626 0.871530 0.050026 0.122945
H157  H     H_    0.739673 0.090184 0.601542 0.200643
H158  H     H_    0.809132 0.135569 0.572265 0.204981
H159  H     H_    0.821596 0.126286 0.624052 0.159332
H160  H     H_    0.784556 0.253428 0.605649 0.182375
H161  H     H_    0.719440 0.210191 0.637431 0.173708
H162  H     H_    0.644820 0.269249 0.588457 0.116445
H163  H     H_    0.643953 0.174159 0.579949 0.181943
H164  H     H_    0.909816 0.739670 0.601547 0.200639
H165  H     H_    0.864436 0.809127 0.572265 0.204986
H166  H     H_    0.856137 0.071564 0.414683 0.097555
H167  H     H_    0.873711 0.821597 0.624053 0.159333
H168  H     H_    0.746572 0.784557 0.605648 0.182376
H169  H     H_    0.789805 0.719441 0.637431 0.173708
H170  H     H_    0.730751 0.644820 0.588457 0.116445
H171  H     H_    0.825842 0.643953 0.579949 0.181944
H172  H     H_    0.260339 0.909815 0.601557 0.200630
H173  H     H_    0.190885 0.864447 0.572268 0.204995
H174  H     H_    0.178406 0.873708 0.624055 0.159334
H175  H     H_    0.215441 0.746572 0.605645 0.182378
H176  H     H_    0.280559 0.789795 0.637431 0.173709
O1    O     O_3   0.000000 0.500000 0.999990 -0.440821
O2    O     O_R   0.000000 0.560750 0.412560 -0.550796
O3    O     O_R   0.439250 0.000000 0.412560 -0.550796
O4    O     O_R   0.000000 0.439250 0.412560 -0.550795
O5    O     O_R   0.000000 0.560690 0.087420 -0.524844
O6    O     O_R   0.439310 0.000000 0.087420 -0.524846
O7    O     O_R   0.000000 0.439310 0.087420 -0.524848
O8    O     O_R   0.560690 0.000000 0.087420 -0.524846
O9    O     O_R   0.500000 0.060690 0.587420 -0.524846
O10   O     O_R   0.939310 0.500000 0.587420 -0.524846
O11   O     O_R   0.500000 0.939310 0.587420 -0.524847
O12   O     O_3   0.500000 0.000000 0.999990 -0.440822
O13   O     O_R   0.060690 0.500000 0.587420 -0.524846
O14   O     O_R   0.853830 0.585440 0.977070 -0.526934
O15   O     O_R   0.414560 0.853830 0.977070 -0.526933
O16   O     O_R   0.146170 0.414560 0.977070 -0.526934
O17   O     O_R   0.585440 0.146170 0.977070 -0.526933
O18   O     O_R   0.146170 0.585440 0.977070 -0.524116
O19   O     O_R   0.585440 0.853830 0.977070 -0.524115
O20   O     O_R   0.853830 0.414560 0.977070 -0.524115
O21   O     O_R   0.414560 0.146170 0.977070 -0.524115
O22   O     O_R   0.353830 0.085440 0.477070 -0.526933
O23   O     O_3   0.500000 0.000000 0.499990 -0.440821
O24   O     O_R   0.914560 0.353830 0.477070 -0.526934
O25   O     O_R   0.646170 0.914560 0.477070 -0.526934
O26   O     O_R   0.085440 0.646170 0.477070 -0.526933
O27   O     O_R   0.646170 0.085440 0.477070 -0.524115
O28   O     O_R   0.085440 0.353830 0.477070 -0.524115
O29   O     O_R   0.353830 0.914560 0.477070 -0.524115
O30   O     O_R   0.914560 0.646170 0.477070 -0.524115
O31   O     O_R   0.085460 0.353830 0.022910 -0.548712
O32   O     O_R   0.646170 0.085460 0.022910 -0.548711
O33   O     O_R   0.914540 0.646170 0.022910 -0.548711
O34   O     O_3   1.000000 0.500000 0.499990 -0.440821
O35   O     O_R   0.353830 0.914540 0.022910 -0.548712
O36   O     O_R   0.914540 0.353830 0.022910 -0.578397
O37   O     O_R   0.353830 0.085460 0.022910 -0.578397
O38   O     O_R   0.085460 0.646170 0.022910 -0.578397
O39   O     O_R   0.646170 0.914540 0.022910 -0.578397
O40   O     O_R   0.585460 0.853830 0.522910 -0.548711
O41   O     O_R   0.146170 0.585460 0.522910 -0.548712
O42   O     O_R   0.414540 0.146170 0.522910 -0.548711
O43   O     O_R   0.853830 0.414540 0.522910 -0.548711
O44   O     O_R   0.414540 0.853830 0.522910 -0.578397
O45   O     O_R   0.060750 0.500000 0.912560 -0.550796
O46   O     O_R   0.853830 0.585460 0.522910 -0.578398
O47   O     O_R   0.585460 0.146170 0.522910 -0.578397
O48   O     O_R   0.146170 0.414540 0.522910 -0.578397
O49   O     O_2   0.274563 0.533881 0.016268 -0.518026
O50   O     O_2   0.466119 0.274564 0.016267 -0.518027
O51   O     O_2   0.725437 0.466119 0.016268 -0.518027
O52   O     O_2   0.533881 0.725436 0.016266 -0.518028
O53   O     O_2   0.876082 0.700392 0.918749 -0.499853
O54   O     O_2   0.700390 0.123919 0.918749 -0.499852
O55   O     O_2   0.123918 0.299609 0.918749 -0.499853
O56   O     O_R   0.500000 0.060750 0.912560 -0.550796
O57   O     O_2   0.299610 0.876080 0.918749 -0.499852
O58   O     O_2   0.774563 0.033881 0.516267 -0.518029
O59   O     O_2   0.966119 0.774563 0.516267 -0.518027
O60   O     O_2   0.225437 0.966119 0.516267 -0.518026
O61   O     O_2   0.033881 0.225437 0.516267 -0.518027
O62   O     O_2   0.376081 0.200390 0.418749 -0.499852
O63   O     O_2   0.200390 0.623919 0.418749 -0.499852
O64   O     O_2   0.623919 0.799609 0.418749 -0.499852
O65   O     O_2   0.799609 0.376081 0.418749 -0.499851
O66   O     O_2   0.685668 0.826755 0.790279 -0.422042
O67   O     O_R   0.939250 0.500000 0.912560 -0.550796
O68   O     O_2   0.173244 0.685669 0.790278 -0.422043
O69   O     O_2   0.314333 0.173245 0.790278 -0.422044
O70   O     O_2   0.826756 0.314331 0.790278 -0.422044
O71   O     O_2   0.185673 0.326763 0.290279 -0.422041
O72   O     O_2   0.673247 0.185666 0.290278 -0.422043
O73   O     O_2   0.814326 0.673236 0.290283 -0.422031
O74   O     O_2   0.326753 0.814334 0.290278 -0.422044
O75   O     O_2   0.150862 0.282654 0.218284 -0.460398
O76   O     O_2   0.717356 0.150848 0.218285 -0.460400
O77   O     O_2   0.849105 0.717322 0.218281 -0.460391
O78   O     O_R   0.500000 0.939250 0.912560 -0.550796
O79   O     O_2   0.282642 0.849154 0.218285 -0.460401
O80   O     O_2   0.650854 0.782649 0.718284 -0.460398
O81   O     O_2   0.217353 0.650852 0.718285 -0.460399
O82   O     O_2   0.349150 0.217355 0.718285 -0.460399
O83   O     O_2   0.782646 0.349149 0.718285 -0.460399
O84   O     O_2   0.140740 0.453271 0.115565 -0.525154
O85   O     O_2   0.546733 0.140740 0.115565 -0.525153
O86   O     O_2   0.859260 0.546732 0.115563 -0.525156
O87   O     O_2   0.453267 0.859260 0.115565 -0.525154
O88   O     O_2   0.640740 0.953268 0.615565 -0.525153
O89   O     O_R   0.560750 0.000000 0.412560 -0.550796
O90   O     O_2   0.046732 0.640740 0.615565 -0.525153
O91   O     O_2   0.359260 0.046732 0.615565 -0.525154
O92   O     O_2   0.953268 0.359260 0.615565 -0.525153
Zn1   Zn    Zn3+2 0.000000 0.586740 0.032740 0.966430
Zn2   Zn    Zn3+2 0.500000 0.913250 0.967240 0.986366
Zn3   Zn    Zn3+2 0.086750 0.500000 0.967240 0.986366
Zn4   Zn    Zn3+2 0.500000 0.086750 0.967240 0.986366
Zn5   Zn    Zn3+2 0.413250 0.000000 0.467240 0.986367
Zn6   Zn    Zn3+2 1.000000 0.413250 0.467240 0.986366
Zn7   Zn    Zn3+2 0.586750 0.000000 0.467240 0.986365
Zn8   Zn    Zn3+2 0.000000 0.586750 0.467240 0.986366
Zn9   Zn    Zn3+2 0.413260 0.000000 0.032740 0.966428
Zn10  Zn    Zn3+2 0.000000 0.413260 0.032740 0.966428
Zn11  Zn    Zn3+2 0.586740 0.000000 0.032740 0.966428
Zn12  Zn    Zn3+2 0.500000 0.086740 0.532740 0.966428
Zn13  Zn    Zn3+2 0.913260 0.500000 0.532740 0.966428
Zn14  Zn    Zn3+2 0.500000 0.913260 0.532740 0.966428
Zn15  Zn    Zn3+2 0.086740 0.500000 0.532740 0.966428
Zn16  Zn    Zn3+2 0.913250 0.500000 0.967240 0.986366

loop_
_geom_bond_atom_site_label_1
_geom_bond_atom_site_label_2
_ccdc_geom_bond_type
C143  O60   D    
C18   C243  A    
C13   C79   A    
C172  O88   D    
C126  C127  S    
C132  H43   S    
C76   H93   S    
C111  H4    S    
C112  O78   A    
C112  C202  S    
C256  H100  S    
C116  H11   S    
C145  O62   D    
C114  C115  S    
C144  H55   S    
C155  H66   S    
C189  C203  A    
C68   C75   A    
C88   H125  S    
C98   H148  S    
C5    C256  A    
C142  O59   D    
C42   C220  S    
C44   C236  S    
C80   H99   S    
C91   H119  S    
O48   Zn15  S    
C62   C108  S    
C13   C70   A    
C97   H135  S    
C6    H144  S    
C184  C193  A    
C130  H40   S    
C77   C235  A    
C108  C109  S    
C131  H37   S    
C72   C246  A    
C55   C88   S    
C2    C90   A    
C171  H82   S    
C221  O16   A    
C36   C53   A    
C138  H49   S    
C38   C55   A    
C158  O74   D    
C100  H143  S    
C66   C122  S    
C94   H128  S    
C48   C65   A    
C61   C105  S    
C122  H27   S    
C170  C204  S    
O45   Zn3   S    
C27   C50   A    
C25   C34   A    
C172  H83   S    
C137  C241  S    
C27   C32   A    
C226  O20   A    
C8    C16   A    
O39   Zn11  S    
C9    H2    S    
C174  C208  S    
O1    Zn3   S    
C20   C241  A    
C148  C252  S    
C40   C58   A    
C79   C246  A    
C127  H31   S    
C237  C254  A    
C45   C234  S    
C123  H25   S    
C47   C64   A    
C43   C232  S    
C179  C188  A    
C193  C199  A    
C159  H70   S    
C76   C224  A    
C53   C82   S    
C140  C244  S    
O40   Zn14  S    
C126  H33   S    
C16   C253  A    
C186  C195  A    
O1    Zn16  S    
C39   C56   A    
C25   C237  A    
C208  C212  A    
C231  O26   A    
C14   H46   S    
C11   C249  A    
C155  O72   D    
O21   Zn4   S    
C95   H140  S    
C150  H61   S    
C37   C226  S    
C8    C245  A    
C160  H71   S    
C136  C240  S    
C10   C14   A    
C143  H54   S    
C11   H24   S    
C165  O82   D    
C43   C61   A    
O7    Zn10  S    
C22   C239  A    
C23   C238  A    
C103  H153  S    
C141  O58   D    
O20   Zn16  S    
C24   C90   A    
C46   C77   A    
C105  H163  S    
C16   H68   S    
C164  H75   S    
C222  O17   A    
C120  H16   S    
C219  O33   A    
C17   C25   A    
C130  C131  S    
C9    C15   A    
C28   C251  A    
C162  C183  S    
C164  O81   D    
C190  C204  A    
C12   H35   S    
C129  H41   S    
C6    C255  A    
C152  H63   S    
C123  H23   S    
C151  H62   S    
C124  C246  A    
C206  C212  A    
C92   H131  S    
C88   C89   S    
C137  O53   D    
C23   C36   A    
C106  C107  S    
C175  H86   S    
C81   H96   S    
C205  C211  A    
C182  C190  A    
C177  C182  A    
C190  C197  A    
C47   C233  S    
C74   H91   S    
C70   C202  A    
C144  C249  S    
C192  C205  A    
C232  O47   A    
C136  H47   S    
C222  O32   A    
O22   Zn5   S    
C85   C86   S    
C194  C207  A    
C8    H166  S    
C75   H92   S    
C71   H87   S    
O34   Zn15  S    
C39   C219  S    
C114  H175  S    
C124  C184  A    
C116  H10   S    
C48   C228  S    
C101  C197  A    
O41   Zn15  S    
C169  C203  S    
C167  O84   D    
C162  H73   S    
C149  C253  S    
C210  C215  S    
O29   Zn5   S    
C161  C182  S    
C107  H158  S    
C143  C248  S    
C255  H89   S    
C137  H48   S    
C233  O28   A    
C52   C60   A    
C80   H98   S    
C117  H8    S    
C226  O36   A    
C194  C200  A    
C195  C208  A    
O23   Zn12  S    
C162  O79   D    
C10   H13   S    
C175  O92   D    
C141  C245  S    
C163  H74   S    
O16   Zn3   S    
C89   C91   S    
C139  C243  S    
C50   C67   A    
C216  O6    A    
C112  O56   A    
C83   H106  S    
C3    C240  A    
C86   H114  S    
C94   H126  S    
C211  C216  S    
C100  H142  S    
C132  O49   D    
C63   C111  S    
C203  C211  A    
C158  C178  S    
C89   H121  S    
C231  O41   A    
O46   Zn13  S    
C60   C102  S    
C144  O61   D    
C195  C199  A    
C163  O80   D    
C35   C76   A    
C49   C66   A    
C221  O31   A    
C150  O66   D    
C7    H155  S    
C149  O65   D    
C214  C218  S    
C84   H103  S    
C24   C157  A    
C21   C38   A    
C254  H1    S    
O78   Zn2   S    
C207  C214  A    
C58   C95   S    
C29   C30   A    
C233  O48   A    
C28   C49   A    
C26   C33   A    
C83   C84   S    
C174  H85   S    
C225  O19   A    
C161  O77   D    
C35   C168  A    
C20   C21   A    
C2    C73   A    
C170  H81   S    
O25   Zn7   S    
O31   Zn10  S    
C104  H151  S    
C69   C129  S    
C98   C99   S    
C36   C227  S    
C192  C198  A    
C7    C254  A    
C31   C45   A    
O2    Zn8   S    
C31   C248  A    
C128  H28   S    
C3    C4    A    
C167  H78   S    
C160  C181  S    
C239  C256  A    
C120  C121  S    
C105  H162  S    
C149  H60   S    
C1    O45   A    
C129  C130  S    
O26   Zn8   S    
C121  H15   S    
C220  O35   A    
C1    O67   A    
C46   C113  A    
O12   Zn2   S    
C151  O68   D    
O34   Zn13  S    
C157  C187  A    
C153  H64   S    
C141  H52   S    
C57   C101  A    
C165  C186  S    
C30   C249  A    
C238  C255  A    
C229  O24   A    
C117  C118  S    
C78   H101  S    
C57   C177  A    
C15   H57   S    
C145  H56   S    
C118  H5    S    
C97   H134  S    
O24   Zn6   S    
O13   Zn15  S    
C72   H88   S    
C165  H76   S    
C50   C230  S    
C175  C209  S    
C215  O7    A    
C102  C103  S    
C6    C243  A    
C216  O8    A    
C19   C40   A    
C115  H173  S    
C142  C247  S    
C133  C238  S    
C96   H137  S    
C59   C98   S    
C110  H164  S    
C156  O73   D    
O44   Zn14  S    
C89   H123  S    
O19   Zn2   S    
C135  C185  A    
C117  H9    S    
O27   Zn7   S    
C155  C176  S    
O23   Zn7   S    
C55   C56   A    
C64   C116  S    
C166  H77   S    
C187  C196  A    
C51   C229  S    
C134  C239  S    
C201  C210  A    
C185  C194  A    
C73   C213  A    
C183  C192  A    
C84   H105  S    
C139  H50   S    
C34   C223  S    
O8    Zn11  S    
C85   H117  S    
C147  C251  S    
C103  H152  S    
C72   C202  A    
C99   H146  S    
C128  H29   S    
C225  O39   A    
C140  O57   D    
C219  O14   A    
C123  C125  S    
C212  C217  S    
C93   H130  S    
C74   C224  A    
C142  H53   S    
C12   C250  A    
C17   C42   A    
O4    Zn6   S    
C70   H79   S    
C126  H34   S    
C181  C189  A    
O89   Zn7   S    
C85   H116  S    
C191  O4    A    
C7    C244  A    
C107  H159  S    
C113  C198  A    
O56   Zn4   S    
C33   C245  A    
C134  H45   S    
C5    C242  A    
C171  C205  S    
C236  O46   A    
C229  O43   A    
C95   H139  S    
C178  C183  A    
C68   C113  A    
C170  O86   D    
C227  O21   A    
C169  H80   S    
O33   Zn1   S    
C63   C66   A    
O12   Zn4   S    
C154  C168  S    
C81   H97   S    
C52   C78   S    
C111  H3    S    
C83   H107  S    
O6    Zn9   S    
O5    Zn1   S    
C176  C181  A    
C79   C199  A    
C32   C247  A    
C4    H122  S    
C166  C187  S    
C164  C185  S    
C67   C126  S    
C20   C39   A    
C91   H120  S    
C139  O55   D    
O47   Zn12  S    
C97   H136  S    
C71   C213  A    
C22   C37   A    
C217  O9    A    
C130  H39   S    
C26   C253  A    
O38   Zn1   S    
C40   C222  S    
C174  O91   D    
C215  O5    A    
C27   C252  A    
C156  C177  S    
C160  O76   D    
C180  O89   A    
C65   C119  S    
C148  O64   D    
C94   H127  S    
C154  O71   D    
C122  H26   S    
C38   C225  S    
C196  C209  A    
C62   C67   A    
C92   H132  S    
C115  H174  S    
C1    C213  S    
C81   H95   S    
C108  H171  S    
C127  C128  S    
C77   H94   S    
C156  H67   S    
C104  H150  S    
C124  C150  S    
C163  C184  S    
C86   C87   S    
C127  H32   S    
C146  C186  A    
C28   C31   A    
C2    C135  A    
C159  C179  S    
C35   C101  A    
C218  O13   A    
C228  O22   A    
C234  O44   A    
C119  C120  S    
C14   C251  A    
C168  C179  A    
C105  C106  S    
C34   C52   A    
C209  C214  A    
C64   C65   A    
C172  C206  S    
C136  O52   D    
C109  C110  S    
O23   Zn14  S    
C191  O2    A    
C125  H21   S    
C188  C197  A    
C135  C151  S    
C68   C178  A    
C92   C93   S    
C107  H157  S    
C230  O25   A    
C109  H169  S    
C111  C114  S    
C78   C80   S    
C167  C201  S    
C153  C157  S    
C9    C247  A    
C173  H84   S    
C119  H19   S    
C138  O54   D    
C131  H38   S    
C82   C83   S    
C125  H22   S    
C103  C104  S    
C87   H112  S    
O35   Zn9   S    
C26   C51   A    
C191  C224  S    
C41   C221  S    
C86   H115  S    
C119  H18   S    
C125  H20   S    
C189  C198  A    
O32   Zn11  S    
C93   C94   S    
C109  H168  S    
C110  H167  S    
C129  H42   S    
C95   C96   S    
C220  O15   A    
C196  C200  A    
C153  O70   D    
C169  O85   D    
C53   C59   A    
C91   H118  S    
C228  O42   A    
C120  H17   S    
C171  O87   D    
C217  O11   A    
C152  O69   D    
C131  H36   S    
C17   C244  A    
C84   H104  S    
C90   C200  A    
O3    Zn5   S    
C232  O27   A    
C102  H156  S    
C188  C201  A    
C116  C117  S    
C236  O30   A    
C218  O10   A    
C19   C242  A    
O34   Zn6   S    
C133  H44   S    
C180  C235  S    
C115  H172  S    
C75   C235  A    
C147  O63   D    
C106  H160  S    
C227  O37   A    
C114  H176  S    
C138  C242  S    
C51   C69   A    
C166  O83   D    
C159  O75   D    
C13   C146  A    
C121  H12   S    
C230  O40   A    
O11   Zn14  S    
C223  O18   A    
O12   Zn9   S    
O37   Zn9   S    
C87   H113  S    
C118  H7    S    
C29   C48   A    
C18   C23   A    
C33   C43   A    
C30   C47   A    
C19   C22   A    
C41   C59   A    
C18   C41   A    
C42   C60   A    
C161  H72   S    
C44   C62   A    
C45   C63   A    
C57   C74   A    
C49   C231  S    
C132  C237  S    
C82   H109  S    
O10   Zn13  S    
C108  H170  S    
O67   Zn16  S    
C78   H102  S    
C21   C240  A    
O34   Zn8   S    
C99   C100  S    
C118  H6    S    
C88   H124  S    
C96   C97   S    
C140  H51   S    
C32   C44   A    
C180  O3    A    
C173  C207  S    
C87   H110  S    
C5    H133  S    
O1    Zn10  S    
C146  C152  S    
C37   C54   A    
O42   Zn12  S    
C73   H90   S    
O43   Zn13  S    
C100  H141  S    
C147  H58   S    
C96   H138  S    
C110  H165  S    
C46   C176  A    
C145  C250  S    
C10   C248  A    
C98   H147  S    
O9    Zn12  S    
C4    C241  A    
C54   C58   A    
C106  H161  S    
C61   C69   A    
O17   Zn4   S    
C223  O38   A    
C193  C206  A    
O23   Zn5   S    
C3    H111  S    
C80   C81   S    
O1    Zn1   S    
C54   C85   S    
C11   C12   A    
C82   H108  S    
C102  H154  S    
O30   Zn8   S    
C29   C250  A    
C234  O29   A    
C99   H145  S    
C128  H30   S    
C134  O51   D    
C148  H59   S    
C93   H129  S    
C173  O90   D    
O15   Zn2   S    
O14   Zn16  S    
C15   C252  A    
O28   Zn6   S    
C104  H149  S    
C56   C92   S    
C158  H69   S    
C133  O50   D    
C204  C210  A    
O18   Zn3   S    
C122  C123  S    
C154  H65   S    
C121  H14   S    
C24   C71   A    
O12   Zn11  S    
O36   Zn10  S    
