data_mof_unit_20525.cif
_audit_creation_date              2012-12-10T17:11:04-0500
_audit_creation_method            fapswitch 2.2
_symmetry_space_group_name_H-M    P1
_symmetry_Int_Tables_number       1
_space_group_crystal_system       triclinic
_cell_length_a                    11.659772
_cell_length_b                    12.988918
_cell_length_c                    13.421676
_cell_angle_alpha                 92.103864
_cell_angle_beta                  75.946913
_cell_angle_gamma                 99.860665
_cell_volume                      1942.69263541

loop_
_atom_site_label
_atom_site_type_symbol
_atom_type_description
_atom_site_fract_x
_atom_site_fract_y
_atom_site_fract_z
_atom_type_partial_charge
C1    C     C_R   0.522198 0.700717 0.497580 0.815953
C2    C     C_R   0.444471 0.482399 0.976436 0.085810
C3    C     C_R   0.468158 0.457672 0.870385 0.085145
C4    C     C_R   0.530138 0.469041 0.032794 0.015903
C5    C     C_R   0.630149 0.421157 0.985368 0.002614
C6    C     C_R   0.643055 0.385736 0.884511 -0.172184
C7    C     C_R   0.562845 0.402582 0.828362 -0.212398
C8    C     C_R   0.520137 0.503019 0.134462 -0.307210
C9    C     C_R   0.700114 0.435820 0.143328 0.060716
C10   C     C_R   0.395310 0.487135 0.809330 -0.156290
C11   C     C_R   0.470657 0.186837 0.488307 -0.042001
C12   C     C_R   0.435283 0.491561 0.696269 0.801403
C13   C     C_R   0.535222 0.814253 0.494857 -0.055457
C14   C     C_R   0.612825 0.979258 0.562885 -0.211677
C15   C     C_R   0.607769 0.872239 0.553437 -0.240586
C16   C     C_R   0.470839 0.864776 0.440071 0.102185
C17   C     C_R   0.467800 0.972150 0.457297 0.162711
C18   C     C_R   0.541647 0.029256 0.517282 0.135512
C19   C     C_R   0.543832 0.136186 0.530894 -0.253454
C20   C     C_R   0.393403 0.130501 0.433061 -0.197301
C21   C     C_R   0.392408 0.024203 0.416953 -0.203955
C22   C     C_R   0.945959 0.600340 0.592589 -0.331408
C23   C     C_R   0.479587 0.299391 0.497276 0.796334
C24   C     C_R   0.826899 0.590373 0.583877 0.102339
C25   C     C_R   0.856789 0.455382 0.461464 0.015587
C26   C     C_R   0.977459 0.463189 0.466939 0.069835
C27   C     C_R   0.022445 0.536573 0.533635 0.065862
C28   C     C_R   0.142980 0.543913 0.539546 0.031470
C29   C     C_R   0.173197 0.410004 0.415780 0.093035
C30   C     C_R   0.053963 0.399687 0.407602 -0.338815
C31   C     C_R   0.564031 0.499610 0.303620 0.833049
C32   C     C_R   0.715146 0.406929 0.039698 0.589854
C33   C     C_R   0.599753 0.482995 0.191582 -0.141455
C34   C     C_R   0.288520 0.522968 0.856899 -0.173690
C35   C     C_R   0.256541 0.535267 0.963239 0.219495
C36   C     C_R   0.335124 0.517523 0.022117 -0.200550
Cu1   Cu    Cu3+1 0.386470 0.492430 0.492410 0.937386
Cu2   Cu    Cu3+1 0.613530 0.507570 0.507590 0.930669
H1    H     H_    0.336076 0.169226 0.399886 0.149818
H2    H     H_    0.669413 0.022445 0.608806 0.148546
H3    H     H_    0.331337 0.983663 0.373780 0.152172
H4    H     H_    0.658659 0.834184 0.594243 0.160185
H5    H     H_    0.178664 0.599567 0.590984 0.120623
H6    H     H_    0.231730 0.360752 0.369947 0.124720
H7    H     H_    0.977874 0.657540 0.644711 0.140852
H8    H     H_    0.022001 0.342632 0.355371 0.143004
H9    H     H_    0.768514 0.640010 0.629246 0.127195
H10   H     H_    0.715788 0.344827 0.848120 0.201184
H11   H     H_    0.820789 0.398439 0.411511 0.122042
H12   H     H_    0.449659 0.545073 0.172062 0.169147
H13   H     H_    0.231108 0.543550 0.810903 0.155785
H14   H     H_    0.306249 0.528742 0.103799 0.138688
H15   H     H_    0.574706 0.369252 0.752321 0.167830
H16   H     H_    0.602209 0.180100 0.575042 0.145350
N1    N     N_R   0.215880 0.481050 0.481000 -0.180427
N2    N     N_R   0.784100 0.518950 0.519000 -0.182411
O1    O     O_R   0.419710 0.645650 0.494620 -0.578327
O2    O     O_R   0.611450 0.658430 0.507430 -0.588637
O3    O     O_R   0.357340 0.490460 0.641450 -0.576537
O4    O     O_R   0.549080 0.503250 0.654260 -0.585520
O5    O     O_R   0.388550 0.341570 0.492570 -0.585773
O6    O     O_R   0.580290 0.354350 0.505380 -0.596874
O7    O     O_R   0.450920 0.496750 0.345740 -0.593735
O8    O     O_R   0.642660 0.509540 0.358550 -0.576059
C37   C     C_3   0.788066 0.411206 0.201352 -0.777916
H17   H     H_    0.740063 0.356819 0.265640 0.217222
H18   H     H_    0.860101 0.372881 0.152896 0.268046
H19   H     H_    0.832472 0.484390 0.230876 0.230722
C38   C     C_3   0.411793 0.807112 0.360169 -0.858161
H20   H     H_    0.447728 0.734633 0.333282 0.240521
H21   H     H_    0.313323 0.788072 0.391657 0.237459
H22   H     H_    0.431252 0.855836 0.289880 0.221557
F1    F     F_    0.811010 0.361768 0.992107 -0.688104
C39   C     C_3   0.140237 0.570380 0.014680 -0.835197
H23   H     H_    0.087438 0.581685 0.958480 0.240118
H24   H     H_    0.085377 0.510717 0.071826 0.242325
H25   H     H_    0.158565 0.645549 0.054681 0.224125

loop_
_geom_bond_atom_site_label_1
_geom_bond_atom_site_label_2
_ccdc_geom_bond_type
C35   C39   S    
C14   C18   A    
C35   C36   A    
C25   N2    A    
C4    C8    A    
C11   C19   A    
C26   C27   A    
C29   C30   A    
C6    H10   S    
C18   C19   A    
C3    C7    A    
C5    C6    A    
C34   C35   A    
C38   H21   S    
C9    C32   A    
Cu2   O2    S    
C12   O3    A    
C23   O6    A    
C16   C17   A    
C37   H18   S    
C39   H25   S    
C31   C33   S    
C36   H14   S    
C5    C32   A    
C9    C33   A    
Cu1   O7    S    
C28   N1    A    
Cu2   O8    S    
C11   C20   A    
C39   H23   S    
C31   O7    A    
C21   H3    S    
C32   F1    S    
C20   H1    S    
C29   N1    A    
C25   C26   A    
C17   C21   A    
Cu1   N1    S    
C38   H22   S    
C2    C4    A    
Cu1   Cu2   S    
C1    O1    A    
C37   H19   S    
C9    C37   S    
C17   C18   A    
C34   H13   S    
C10   C34   A    
Cu1   O3    S    
C10   C12   S    
Cu2   O4    S    
C19   H16   S    
C26   C30   A    
C22   C27   A    
C13   C15   A    
C29   H6    S    
C22   C24   A    
C1    C13   S    
C39   H24   S    
C8    H12   S    
C2    C36   A    
C24   H9    S    
C31   O8    A    
C30   H8    S    
C16   C38   S    
C15   H4    S    
C4    C5    A    
Cu1   O5    S    
C6    C7    A    
C24   N2    A    
C28   H5    S    
C2    C3    A    
C3    C10   A    
C1    O2    A    
C11   C23   S    
C8    C33   A    
C38   H20   S    
C25   H11   S    
C14   H2    S    
C12   O4    A    
C23   O5    A    
C22   H7    S    
Cu2   N2    S    
C20   C21   A    
C37   H17   S    
C13   C16   A    
C27   C28   A    
C7    H15   S    
C14   C15   A    
Cu1   O1    S    
Cu2   O6    S    
