data_mof_unit_64487.cif
_audit_creation_date              2012-12-10T19:20:36-0500
_audit_creation_method            fapswitch 2.2
_symmetry_space_group_name_H-M    P1
_symmetry_Int_Tables_number       1
_space_group_crystal_system       triclinic
_cell_length_a                    16.000525
_cell_length_b                    14.760595
_cell_length_c                    17.734562
_cell_angle_alpha                 90.000645
_cell_angle_beta                  89.99654
_cell_angle_gamma                 90.001121
_cell_volume                      4188.50041691

loop_
_atom_site_label
_atom_site_type_symbol
_atom_type_description
_atom_site_fract_x
_atom_site_fract_y
_atom_site_fract_z
_atom_type_partial_charge
Br1   Br    Br    0.104653 0.507185 0.337178 -0.422016
Br2   Br    Br    0.895358 0.491486 0.662785 -0.426687
Br3   Br    Br    0.895383 0.508539 0.337213 -0.426245
Br4   Br    Br    0.104629 0.492805 0.662833 -0.422503
Br5   Br    Br    0.500971 0.113547 0.662654 -0.391854
Br6   Br    Br    0.500198 0.886453 0.337340 -0.391754
Br7   Br    Br    0.499030 0.113540 0.337344 -0.392382
Br8   Br    Br    0.499804 0.886462 0.662655 -0.392627
C1    C     C_R   0.340908 0.500000 0.500014 0.783920
C2    C     C_R   0.500258 0.048155 0.568505 0.226075
C3    C     C_R   0.500001 0.902880 0.499998 -0.206036
C4    C     C_R   0.500001 0.097120 0.499999 -0.206044
C5    C     C_1   0.500000 0.802631 0.499999 0.356507
C6    C     C_1   0.500000 0.197369 0.499999 0.356470
C7    C     C_R   0.499997 0.500000 0.355260 0.891202
C8    C     C_R   0.499995 0.499999 0.644732 0.891465
C9    C     C_R   0.462800 0.572105 0.846522 0.363028
C10   C     C_R   0.463242 0.427643 0.153446 0.362955
C11   C     C_R   0.536676 0.572387 0.153439 0.362937
C12   C     C_R   0.659093 0.500000 0.499989 0.783500
C13   C     C_R   0.537106 0.427891 0.846530 0.362994
C14   C     C_R   0.459249 0.570071 0.767511 0.330154
C15   C     C_R   0.459670 0.429644 0.232459 0.330128
C16   C     C_R   0.540277 0.570375 0.232450 0.329627
C17   C     C_R   0.540675 0.429911 0.767519 0.329518
C18   C     C_R   0.499977 0.499995 0.727614 -0.371596
C19   C     C_R   0.499986 0.500004 0.272365 -0.371835
C20   C     C_R   0.499953 0.500004 0.885601 -0.226628
C21   C     C_R   0.499954 0.500016 0.114369 -0.226658
C22   C     C_1   0.499948 0.500012 0.966231 0.147773
C23   C     C_1   0.823011 0.500003 0.499995 0.130947
C24   C     C_1   0.499949 0.500016 0.033739 0.147765
C25   C     C_R   0.956147 0.503457 0.431149 0.228251
C26   C     C_R   0.043857 0.496770 0.568863 0.228302
C27   C     C_R   0.043869 0.503232 0.431148 0.228209
C28   C     C_R   0.956137 0.496553 0.568850 0.228299
C29   C     C_R   0.912667 0.500004 0.499997 -0.115319
C30   C     C_R   0.087336 0.500001 0.500009 -0.116263
C31   C     C_3   0.481692 0.713403 0.893207 -0.190999
C32   C     C_3   0.483043 0.286493 0.106741 -0.190931
C33   C     C_3   0.516843 0.713535 0.106750 -0.190353
C34   C     C_1   0.176991 0.500000 0.500015 0.130306
C35   C     C_3   0.518165 0.286608 0.893230 -0.190408
C36   C     C_3   0.334447 0.613323 0.719062 -0.110018
C37   C     C_3   0.335102 0.385438 0.280842 -0.109584
C38   C     C_3   0.664835 0.614612 0.280814 -0.106726
C39   C     C_3   0.665464 0.386560 0.719076 -0.106767
C40   C     C_1   0.251963 0.500000 0.500017 -0.116744
C41   C     C_1   0.748039 0.500001 0.499991 -0.116862
C42   C     C_R   0.500071 0.951849 0.568505 0.225836
C43   C     C_R   0.499744 0.048151 0.431492 0.225732
C44   C     C_R   0.499930 0.951845 0.431491 0.226008
Cu1   Cu    Cu3+1 0.500000 0.589220 0.500000 1.055874
Cu2   Cu    Cu3+1 0.500000 0.410780 0.500000 1.055834
H1    H     H_    0.499548 0.741648 0.837292 0.216105
H2    H     H_    0.500340 0.258336 0.837313 0.216230
H3    H     H_    0.461419 0.308154 0.924861 0.149648
H4    H     H_    0.548280 0.231487 0.925920 0.184775
H5    H     H_    0.301852 0.604211 0.773992 0.188783
H6    H     H_    0.329358 0.550550 0.684548 0.121890
H7    H     H_    0.301851 0.668136 0.687986 0.197355
H8    H     H_    0.302489 0.394256 0.225893 0.188502
H9    H     H_    0.329570 0.448194 0.315320 0.121948
H10   H     H_    0.302848 0.330389 0.311924 0.197257
H11   H     H_    0.697449 0.605770 0.225862 0.188990
H12   H     H_    0.538417 0.691888 0.924872 0.149591
H13   H     H_    0.670372 0.551873 0.315311 0.121512
H14   H     H_    0.697086 0.669676 0.311877 0.198901
H15   H     H_    0.698057 0.395658 0.774003 0.189251
H16   H     H_    0.670596 0.449320 0.684556 0.121383
H17   H     H_    0.698034 0.331715 0.688005 0.199123
H18   H     H_    0.451539 0.768536 0.925865 0.184922
H19   H     H_    0.501060 0.258356 0.162655 0.216001
H20   H     H_    0.539647 0.308450 0.075101 0.149533
H21   H     H_    0.453267 0.231145 0.074061 0.184896
H22   H     H_    0.498825 0.741660 0.162671 0.216153
H23   H     H_    0.460240 0.691570 0.075118 0.149641
H24   H     H_    0.546607 0.768892 0.074072 0.184776
N1    N     N_1   0.500000 0.276710 0.500000 -0.131947
N2    N     N_1   0.500000 0.723290 0.500000 -0.131937
O1    O     O_R   0.380310 0.575320 0.500010 -0.570310
O2    O     O_3   0.425135 0.357905 0.114316 -0.552698
O3    O     O_3   0.574765 0.642134 0.114303 -0.552813
O4    O     O_3   0.575633 0.358438 0.885669 -0.552810
O5    O     O_3   0.418521 0.639044 0.729597 -0.529896
O6    O     O_3   0.419355 0.360369 0.270359 -0.529562
O7    O     O_3   0.580580 0.639665 0.270339 -0.530129
O8    O     O_3   0.581372 0.360902 0.729613 -0.530376
O9    O     O_R   0.619690 0.424680 0.499990 -0.570489
O10   O     O_R   0.619690 0.575320 0.499990 -0.570724
O11   O     O_R   0.380310 0.424680 0.500010 -0.570574
O12   O     O_R   0.500000 0.575370 0.391250 -0.535770
O13   O     O_R   0.500000 0.424630 0.608750 -0.535893
O14   O     O_R   0.500000 0.575370 0.608750 -0.536187
O15   O     O_R   0.500000 0.424630 0.391250 -0.536105
O16   O     O_3   0.424245 0.641554 0.885651 -0.552719

loop_
_geom_bond_atom_site_label_1
_geom_bond_atom_site_label_2
_ccdc_geom_bond_type
C16   C19   A    
C1    O11   A    
Cu1   Cu2   S    
C8    O13   A    
C28   C29   A    
C30   C34   S    
C21   C24   S    
C7    O15   A    
C33   H23   S    
Br3   C25   S    
C36   H5    S    
C33   O3    S    
C37   H8    S    
C32   H19   S    
Cu1   O1    S    
C14   O5    S    
C39   H15   S    
Cu2   O13   S    
C3    C44   A    
C35   H4    S    
C10   O2    S    
C7    O12   A    
C31   H1    S    
C15   O6    S    
C31   H18   S    
C15   C19   A    
C5    N2    T    
Cu2   O11   S    
C35   O4    S    
C23   C41   T    
C11   O3    S    
C8    C18   S    
Br4   C26   S    
C10   C15   A    
C32   O2    S    
Cu1   N2    S    
Cu2   O9    S    
C33   H24   S    
C9    O16   S    
C35   H3    S    
C17   C18   A    
C12   O10   A    
C37   H9    S    
C17   O8    S    
C25   C29   A    
C43   C44   A    
C39   H16   S    
C38   H14   S    
C12   C41   S    
C7    C19   S    
C13   O4    S    
C27   C30   A    
Cu1   O12   S    
C10   C21   A    
C34   C40   T    
C6    N1    T    
C39   H17   S    
Cu2   O15   S    
C2    C4    A    
C38   H11   S    
C13   C20   A    
C4    C6    S    
C31   H12   S    
C36   O5    S    
C11   C21   A    
Br8   C42   S    
C4    C43   A    
Br1   C27   S    
C38   O7    S    
Br2   C28   S    
C13   C17   A    
Cu1   O14   S    
C26   C30   A    
C9    C20   A    
C36   H7    S    
C12   O9    A    
C37   H10   S    
C8    O14   A    
C9    C14   A    
C32   H21   S    
C39   O8    S    
C20   C22   S    
C37   O6    S    
Br7   C43   S    
Br5   C2    S    
C3    C42   A    
C33   H22   S    
C22   C24   T    
C3    C5    S    
C36   H6    S    
C25   C27   A    
C32   H20   S    
C11   C16   A    
C26   C28   A    
C16   O7    S    
C31   O16   S    
Cu2   N1    S    
C23   C29   S    
C35   H2    S    
C38   H13   S    
C1    C40   S    
C14   C18   A    
Cu1   O10   S    
Br6   C44   S    
C1    O1    A    
C2    C42   A    
