data_mof_unit_5862.cif
_audit_creation_date              2012-12-11T16:38:01-0500
_audit_creation_method            fapswitch 2.2
_symmetry_space_group_name_H-M    P1
_symmetry_Int_Tables_number       1
_space_group_crystal_system       triclinic
_cell_length_a                    8.289063
_cell_length_b                    17.423167
_cell_length_c                    19.094746
_cell_angle_alpha                 99.417602
_cell_angle_beta                  91.946055
_cell_angle_gamma                 96.354655
_cell_volume                      2699.99688215

loop_
_atom_site_label
_atom_site_type_symbol
_atom_type_description
_atom_site_fract_x
_atom_site_fract_y
_atom_site_fract_z
_atom_type_partial_charge
Ba1   Ba    Ba6+2 0.849990 0.533510 0.465310 1.741114
Ba2   Ba    Ba6+2 0.339840 0.466550 0.534700 1.754881
C1    C     C_3   0.624638 0.775272 0.213774 -0.191621
C2    C     C_R   0.013360 0.525577 0.724946 0.011394
C3    C     C_R   0.855938 0.431359 0.812287 -0.216209
C4    C     C_3   0.172465 0.746680 0.279275 0.662228
C5    C     C_R   0.790089 0.431615 0.743950 0.003484
C6    C     C_R   0.336094 0.566865 0.188988 -0.143377
C7    C     C_R   0.403995 0.557360 0.254605 -0.027495
C8    C     C_R   0.127129 0.462086 0.198756 -0.089493
C9    C     C_R   0.169334 0.472176 0.272729 0.054650
C10   C     C_R   0.976893 0.491819 0.845187 0.005590
C11   C     C_R   0.882329 0.469674 0.697790 0.152376
C12   C     C_3   0.638015 0.728569 0.274391 0.711853
C13   C     C_R   0.203431 0.514043 0.154915 0.038301
C14   C     C_R   0.313232 0.516616 0.298594 -0.246320
C15   C     C_R   0.759669 0.451377 0.961974 -0.149603
C16   C     C_3   0.105711 0.751686 0.203893 0.704877
C17   C     C_R   0.664827 0.419245 0.011248 0.448196
C18   C     C_R   0.712527 0.440073 0.082556 -0.105231
C19   C     C_R   0.860802 0.485211 0.101952 -0.169729
C20   C     C_R   0.980068 0.492806 0.052146 0.008777
C21   C     C_R   0.925614 0.481191 0.978442 -0.009360
C22   C     C_R   0.147000 0.513157 0.075704 0.028997
C23   C     C_3   0.471862 0.343360 0.317309 0.308977
C24   C     C_R   0.257151 0.530046 0.022022 0.091278
C25   C     C_R   0.201596 0.523770 0.948496 0.039522
C26   C     C_R   0.034538 0.499430 0.924806 0.023137
C27   C     C_R   0.426226 0.550507 0.038304 -0.008675
C28   C     C_3   0.244889 0.714130 0.634507 0.630861
C29   C     C_R   0.529552 0.579376 0.990656 -0.081673
C30   C     C_R   0.477778 0.571036 0.920332 -0.028402
C31   C     C_R   0.320852 0.537311 0.899113 -0.009240
C32   C     C_R   0.416775 0.718526 0.465889 -0.246142
C33   C     C_R   0.556499 0.746100 0.509255 0.054299
C34   C     C_3   0.490908 0.327796 0.237100 0.257643
C35   C     C_R   0.610208 0.826323 0.523540 -0.096183
C36   C     C_R   0.518059 0.879378 0.497869 -0.022454
C37   C     C_R   0.366719 0.852000 0.461577 -0.089625
C38   C     C_R   0.315547 0.771077 0.446052 0.017697
C39   C     C_R   0.584059 0.159161 0.483171 0.362854
C40   C     C_3   0.266826 0.802808 0.660185 0.378384
C41   C     C_R   0.638406 0.240333 0.487680 -0.022869
C42   C     C_R   0.882751 0.225495 0.556043 0.042837
C43   C     C_R   0.828464 0.146328 0.554555 -0.122544
C44   C     C_R   0.679123 0.113209 0.519260 -0.066922
C45   C     C_3   0.082539 0.300825 0.727997 0.290857
C46   C     C_1   0.628342 0.030366 0.515953 0.116579
C47   C     C_1   0.578813 0.961540 0.509243 0.101676
C48   C     C_R   0.784879 0.272117 0.525160 -0.289426
C49   C     C_3   0.961196 0.287338 0.370623 0.350936
C50   C     C_3   0.904630 0.201585 0.339859 0.131320
C51   C     C_3   0.711464 0.641067 0.679183 0.359964
C52   C     C_3   0.712171 0.662170 0.759923 0.308416
C53   C     C_3   0.107997 0.275604 0.799811 -0.229805
C54   C     C_3   0.588297 0.253296 0.711098 0.665712
C55   C     C_3   0.491472 0.174008 0.682492 -0.243824
C56   C     C_R   0.041560 0.544285 0.799789 -0.214472
H1    H     H_    0.328266 0.832698 0.619576 -0.071572
H2    H     H_    0.738446 0.610982 0.784560 -0.126796
H3    H     H_    0.589787 0.676506 0.775471 0.115738
H4    H     H_    0.511609 0.712343 0.289569 -0.062976
H5    H     H_    0.576497 0.831531 0.232533 0.168415
H6    H     H_    0.342898 0.348397 0.328189 0.004627
H7    H     H_    0.546369 0.400000 0.338270 -0.020145
H8    H     H_    0.459434 0.379114 0.214136 -0.016108
H9    H     H_    0.619532 0.319986 0.226418 0.013454
H10   H     H_    0.542046 0.741283 0.169942 0.096154
H11   H     H_    0.150159 0.360012 0.729850 0.072052
H12   H     H_    0.145436 0.823680 0.666879 0.066553
H13   H     H_    0.950698 0.302811 0.718092 0.000476
H14   H     H_    0.071374 0.320177 0.842847 0.095886
H15   H     H_    0.033714 0.218728 0.800743 0.151510
H16   H     H_    0.237917 0.268915 0.809837 0.182315
H17   H     H_    0.669265 0.267464 0.668524 -0.068368
H18   H     H_    0.574976 0.128241 0.672333 0.084004
H19   H     H_    0.424603 0.176743 0.631801 0.112088
H20   H     H_    0.210020 0.687209 0.277403 -0.097335
H21   H     H_    0.402922 0.157518 0.721398 0.144166
H22   H     H_    0.122181 0.596613 0.821257 0.098334
H23   H     H_    0.856592 0.315960 0.392292 -0.044985
H24   H     H_    0.809809 0.383997 0.838690 0.135249
H25   H     H_    0.392639 0.613871 0.164805 0.093652
H26   H     H_    0.032055 0.415902 0.177202 0.103022
H27   H     H_    0.360008 0.515573 0.351997 0.053906
H28   H     H_    0.696029 0.455551 0.913348 0.111444
H29   H     H_    0.632068 0.424734 0.122747 0.136810
H30   H     H_    0.885091 0.511974 0.156342 0.142323
H31   H     H_    0.486754 0.539431 0.085265 0.059151
H32   H     H_    0.655845 0.599395 0.006577 0.081361
H33   H     H_    0.563375 0.584415 0.881293 0.081191
H34   H     H_    0.057162 0.291013 0.413431 0.051601
H35   H     H_    0.298543 0.519264 0.843306 0.117608
H36   H     H_    0.289221 0.893131 0.446013 0.132502
H37   H     H_    0.904299 0.110172 0.579008 0.107443
H38   H     H_    0.721432 0.847347 0.555712 0.104505
H39   H     H_    0.378891 0.656162 0.453324 0.036552
H40   H     H_    0.829190 0.332952 0.525871 0.113448
H41   H     H_    0.984461 0.716070 0.194720 -0.041761
H42   H     H_    0.366499 0.693388 0.630341 -0.073825
H43   H     H_    0.654488 0.812694 0.355644 0.291662
H44   H     H_    0.410857 0.785750 0.840728 0.376085
H45   H     H_    0.788431 0.197786 0.307822 0.115179
H46   H     H_    0.845008 0.102938 0.370672 0.345680
H47   H     H_    0.934508 0.707504 0.785353 0.323440
H48   H     H_    0.532365 0.213007 0.113129 0.349293
H49   H     H_    0.009709 0.952277 0.260163 0.383791
H50   H     H_    0.609841 0.241633 0.810479 0.350785
H51   H     H_    0.797740 0.496957 0.612491 0.301059
H52   H     H_    0.246942 0.336275 0.026452 0.385208
H53   H     H_    0.269781 0.853369 0.317612 0.349892
H54   H     H_    0.199634 0.166604 0.405554 0.367676
H55   H     H_    0.148323 0.709066 0.106904 0.310079
H56   H     H_    0.997502 0.177536 0.304399 0.157178
H57   H     H_    0.197571 0.653982 0.540256 0.283260
H58   H     H_    0.832951 0.626772 0.663850 -0.057150
H59   H     H_    0.619487 0.589330 0.662612 -0.022273
H60   H     H_    0.745122 0.787829 0.192519 0.165135
O1    O     O_2   0.880230 0.446130 0.326290 -0.460508
O2    O     O_2   0.214866 0.232058 0.544329 -0.441494
O3    O     O_3   0.140632 0.246577 0.675232 -0.590812
O4    O     O_3   0.127880 0.453050 0.414940 -0.503483
O5    O     O_3   0.568990 0.594210 0.536150 -0.520586
O6    O     O_2   0.359830 0.311600 0.465710 -0.448320
O7    O     O_3   0.524683 0.281751 0.347720 -0.579198
O8    O     O_2   0.468723 0.461192 0.759151 -0.508231
O9    O     O_3   0.479553 0.309462 0.728603 -0.582821
O10   O     O_3   0.652660 0.587690 0.369690 -0.454189
O11   O     O_2   0.707717 0.510442 0.246688 -0.516988
O12   O     O_3   0.674331 0.705098 0.648536 -0.578393
O13   O     O_3   0.024605 0.322332 0.315197 -0.628127
O14   O     O_3   0.720459 0.663117 0.250795 -0.599733
O15   O     O_2   0.829870 0.688430 0.534340 -0.399007
O16   O     O_3   0.069940 0.629350 0.405460 -0.479048
O17   O     O_2   0.986961 0.769046 0.459985 -0.406700
O18   O     O_3   0.726952 0.775303 0.332886 -0.644179
O19   O     O_2   0.561689 0.834185 0.729038 -0.253779
O20   O     O_2   0.348140 0.911174 0.776312 -0.228740
O21   O     O_3   0.336066 0.767498 0.798272 -0.522370
O22   O     O_3   0.883102 0.157326 0.394252 -0.778575
O23   O     O_3   0.049088 0.757301 0.327755 -0.557475
O24   O     O_3   0.826646 0.727161 0.784970 -0.624439
O25   O     O_2   0.377317 0.174437 0.230872 -0.182211
O26   O     O_2   0.188714 0.260366 0.192866 -0.259906
O27   O     O_3   0.415654 0.220208 0.109213 -0.394131
O28   O     O_2   0.247324 0.894577 0.188024 -0.203640
O29   O     O_2   0.982400 0.849154 0.125383 -0.261981
O30   O     O_3   0.989041 0.895556 0.262305 -0.509535
O31   O     O_3   0.684336 0.247387 0.771529 -0.761751
O32   O     O_3   0.842604 0.450985 0.626308 -0.723288
O33   O     O_2   0.410183 0.376777 0.916951 -0.343794
O34   O     O_2   0.309470 0.553890 0.673760 -0.494477
O35   O     O_2   0.522566 0.274091 0.969620 -0.231320
O36   O     O_3   0.350165 0.365862 0.048485 -0.514887
O37   O     O_3   0.308955 0.802434 0.299332 -0.786357
O38   O     O_2   0.462399 0.045925 0.376545 -0.247187
O39   O     O_2   0.294435 0.073071 0.477754 -0.326797
O40   O     O_3   0.307686 0.166700 0.385238 -0.446525
O41   O     O_3   0.210797 0.720692 0.153500 -0.770892
O42   O     O_3   0.157925 0.700089 0.568778 -0.749480
O43   O     O_3   0.061830 0.547010 0.585070 -0.454155
O44   O     O_3   0.537040 0.412370 0.630320 -0.441132
O45   O     O_3   0.155136 0.678219 0.683564 -0.608233
O46   O     O_3   0.620720 0.405850 0.463860 -0.486326
O47   O     O_3   0.119760 0.370720 0.594550 -0.458468
P1    P     P_3+3 0.050120 0.424430 0.337400 0.997292
P2    P     P_3+3 0.655220 0.678730 0.555760 1.025040
P3    P     P_3+3 0.108548 0.731698 0.409170 1.071892
P4    P     P_3+3 0.139590 0.575630 0.662610 1.025713
P5    P     P_3+3 0.087702 0.268903 0.592080 1.012263
P6    P     P_3+3 0.620901 0.580602 0.278783 0.954914
P7    P     P_3+3 0.537685 0.307737 0.440528 1.045034
P8    P     P_3+3 0.571772 0.401943 0.718268 1.008773
S1    S     S_3+6 0.383932 0.831111 0.742679 -0.030441
S2    S     S_3+6 0.362213 0.243038 0.193514 0.019004
S3    S     S_3+6 0.082447 0.850504 0.192851 -0.010205
S4    S     S_3+6 0.483277 0.357166 0.983944 -0.081526
S5    S     S_3+6 0.408896 0.110165 0.430035 -0.032711

loop_
_geom_bond_atom_site_label_1
_geom_bond_atom_site_label_2
_ccdc_geom_bond_type
O9    P8    S    
C50   H45   S    
O4    P1    S    
C6    H25   S    
C55   H21   S    
C1    H10   S    
Ba1   O10   S    
O25   S2    D    
Ba2   O44   S    
C27   H31   S    
C34   H9    S    
O5    P2    S    
C36   C47   S    
C52   H2    S    
C43   C44   A    
C25   C31   A    
C28   O42   S    
C24   C25   A    
O30   S3    S    
H48   O27   S    
H54   O40   S    
C10   C26   S    
C32   C38   A    
C55   H18   S    
C33   C35   A    
C7    C14   A    
C22   C24   A    
C11   O32   S    
Ba1   Ba2   S    
C8    C13   A    
O15   P2    D    
C36   C37   A    
C51   H59   S    
C45   O3    S    
C30   H33   S    
Ba1   P2    S    
C12   H4    S    
C18   H29   S    
C28   H42   S    
C40   H12   S    
C32   H39   S    
C54   C55   S    
C4    H20   S    
C32   C33   A    
Ba1   O1    S    
C54   O9    S    
C2    C11   A    
O7    P7    S    
C23   O7    S    
Ba1   O4    S    
C45   H11   S    
C16   O41   S    
C15   C17   A    
C53   H16   S    
O38   S5    D    
O12   P2    S    
O27   S2    S    
O13   P1    S    
C6    C7    A    
O28   S3    D    
O20   S1    D    
C9    P1    S    
C33   P2    S    
O17   P3    D    
O14   P6    S    
C17   S4    S    
C53   H14   S    
C51   H58   S    
C56   H22   S    
H44   O21   S    
C10   C56   A    
C20   C22   A    
O3    P5    S    
C19   H30   S    
Ba1   O43   S    
C54   H17   S    
C19   C20   A    
C39   C41   A    
Ba2   O47   S    
C28   O45   S    
Ba1   O15   S    
Ba2   O43   S    
O35   S4    D    
Ba2   O4    S    
Ba2   O34   S    
C4    C16   S    
C44   C46   S    
C48   H40   S    
C2    P4    S    
C15   H28   S    
C55   H19   S    
C39   S5    S    
C23   H7    S    
Ba1   O46   S    
C3    C10   A    
C40   S1    S    
Ba2   O46   S    
H47   O24   S    
C3    C5    A    
C49   O13   S    
O29   S3    D    
C12   O14   S    
O34   P4    D    
Ba2   P4    S    
C51   C52   S    
C49   C50   S    
C35   H38   S    
C23   H6    S    
Ba1   O5    S    
C37   H36   S    
C35   C36   A    
H52   O36   S    
C1    H60   S    
C49   H34   S    
C9    C14   A    
C29   C30   A    
O6    P7    D    
C39   C44   A    
C29   H32   S    
O44   P8    S    
C15   C21   A    
C21   C26   A    
H55   O41   S    
C4    O23   S    
O8    P8    D    
O1    P1    D    
C45   H13   S    
C1    C12   S    
C34   S2    S    
C46   C47   T    
C52   O24   S    
C6    C13   A    
C50   H56   S    
C14   H27   S    
O16   P3    S    
C7    P6    S    
C16   H41   S    
Ba1   O16   S    
C43   H37   S    
C37   C38   A    
C42   C43   A    
C45   C53   S    
H43   O18   S    
C42   C48   A    
O47   P5    S    
O46   P7    S    
C49   H23   S    
C13   C22   S    
O23   P3    S    
Ba2   O6    S    
O11   P6    D    
C4    O37   S    
H49   O30   S    
C31   H35   S    
C40   H1    S    
C41   P7    S    
C41   C48   A    
C52   H3    S    
C1    H5    S    
H57   O42   S    
C30   C31   A    
C17   C18   A    
H51   O32   S    
O40   S5    S    
O43   P4    S    
O19   S1    D    
C27   C29   A    
O10   P6    S    
C3    H24   S    
O2    P5    D    
C12   O18   S    
Ba1   P1    S    
C5    P8    S    
O26   S2    D    
C8    H26   S    
C50   O22   S    
C34   H8    S    
O39   S5    D    
O45   P4    S    
C42   P5    S    
C38   P3    S    
O33   S4    D    
C8    C9    A    
C23   C34   S    
H50   O31   S    
C53   H15   S    
H46   O22   S    
C5    C11   A    
C18   C19   A    
C24   C27   A    
O36   S4    S    
C2    C56   A    
C25   C26   A    
C20   C21   A    
C28   C40   S    
O21   S1    S    
C51   O12   S    
C54   O31   S    
H53   O37   S    
Ba2   O5    S    
C16   S3    S    
