data_mof_unit_54883.cif
_audit_creation_date              2012-12-11T14:34:15-0500
_audit_creation_method            fapswitch 2.2
_symmetry_space_group_name_H-M    P1
_symmetry_Int_Tables_number       1
_space_group_crystal_system       triclinic
_cell_length_a                    14.038309
_cell_length_b                    14.071746
_cell_length_c                    27.306041
_cell_angle_alpha                 90.027262
_cell_angle_beta                  90.061523
_cell_angle_gamma                 119.855862
_cell_volume                      4678.21913828

loop_
_atom_site_label
_atom_site_type_symbol
_atom_type_description
_atom_site_fract_x
_atom_site_fract_y
_atom_site_fract_z
_atom_type_partial_charge
C1    C     C_R   0.235268 0.786137 0.569358 0.541279
C2    C     C_1   0.689196 0.847968 0.863636 -0.001923
C3    C     C_1   0.148976 0.839628 0.863246 0.022162
C4    C     C_1   0.133458 0.268546 0.857180 0.030657
C5    C     C_1   0.613502 0.806947 0.661406 -0.072539
C6    C     C_1   0.187860 0.803392 0.660908 -0.071162
C7    C     C_1   0.190840 0.379158 0.659425 -0.070182
C8    C     C_1   0.591838 0.791885 0.618418 -0.006659
C9    C     C_1   0.205674 0.798852 0.618074 -0.008004
C10   C     C_1   0.199226 0.404797 0.617107 -0.006292
C11   C     C_R   0.108053 0.223896 0.086946 0.615817
C12   C     C_R   0.213644 0.448793 0.569063 0.543088
C13   C     C_R   0.776587 0.884497 0.087130 0.602247
C14   C     C_R   0.115941 0.892216 0.086998 0.602808
C15   C     C_R   0.076002 0.171204 0.942792 0.550528
C16   C     C_R   0.778498 0.885999 0.951505 0.582237
C17   C     C_R   0.113874 0.892728 0.951346 0.578769
C18   C     C_R   0.641979 0.892429 0.361150 -0.146242
C19   C     C_R   0.107318 0.748268 0.360741 -0.146348
C20   C     C_R   0.251566 0.358675 0.360934 -0.146244
C21   C     C_R   0.662125 0.909859 0.310901 0.007138
C22   C     C_R   0.090146 0.750945 0.310443 0.007195
C23   C     C_R   0.550595 0.764312 0.569462 0.541856
C24   C     C_R   0.248911 0.338755 0.310648 0.007242
C25   C     C_R   0.709849 0.942204 0.210777 -0.000586
C26   C     C_R   0.058257 0.766742 0.210278 -0.000809
C27   C     C_R   0.233485 0.291282 0.210461 -0.000767
C28   C     C_R   0.236759 0.785350 0.429950 0.541221
C29   C     C_R   0.214461 0.451169 0.429967 0.541632
C30   C     C_R   0.548670 0.763100 0.429978 0.541582
C31   C     C_R   0.749356 0.032218 0.242666 -0.118178
C32   C     C_R   0.967805 0.715451 0.241884 -0.118295
C33   C     C_R   0.284999 0.252312 0.242197 -0.118150
C34   C     C_3   0.626315 0.712951 0.792907 0.165350
C35   C     C_R   0.724969 0.016154 0.292443 -0.135717
C36   C     C_R   0.983654 0.706950 0.291690 -0.136039
C37   C     C_R   0.293337 0.276573 0.292010 -0.135755
C38   C     C_R   0.744834 0.957124 0.162559 -0.171959
C39   C     C_R   0.043428 0.787136 0.162091 -0.172523
C40   C     C_R   0.213353 0.256294 0.162224 -0.173441
C41   C     C_R   0.712171 0.866827 0.131470 -0.021100
C42   C     C_R   0.134074 0.845673 0.131304 -0.020808
C43   C     C_R   0.154663 0.288329 0.131302 -0.023375
C44   C     C_R   0.539450 0.695875 0.346762 -0.124429
C45   C     C_3   0.284072 0.904195 0.792563 0.160151
C46   C     C_R   0.304489 0.843306 0.346886 -0.124179
C47   C     C_R   0.155640 0.460081 0.346853 -0.124371
C48   C     C_R   0.556142 0.711984 0.296754 0.004701
C49   C     C_R   0.288672 0.843962 0.296845 0.004668
C50   C     C_R   0.155080 0.443601 0.296822 0.004535
C51   C     C_R   0.619133 0.819057 0.278559 0.060338
C52   C     C_R   0.181409 0.799391 0.278359 0.060824
C53   C     C_R   0.200134 0.381269 0.278451 0.060359
C54   C     C_R   0.511495 0.622340 0.264887 -0.144653
C55   C     C_R   0.378800 0.889647 0.265242 -0.144979
C56   C     C_3   0.072226 0.348142 0.789187 0.164585
C57   C     C_R   0.109129 0.487798 0.265107 -0.144931
C58   C     C_R   0.532505 0.637939 0.214964 -0.072785
C59   C     C_R   0.363462 0.895368 0.215292 -0.072650
C60   C     C_R   0.103689 0.466931 0.215154 -0.072742
C61   C     C_R   0.598974 0.743960 0.195805 0.022215
C62   C     C_R   0.257220 0.855430 0.195853 0.022260
C63   C     C_R   0.144139 0.401029 0.195821 0.021945
C64   C     C_3   0.561708 0.861853 0.739508 -0.185364
C65   C     C_3   0.125513 0.695006 0.738821 -0.214438
C66   C     C_3   0.290332 0.416318 0.739223 -0.212951
C67   C     C_3   0.597364 0.703200 0.737114 -0.186395
C68   C     C_R   0.641488 0.835103 0.228224 0.018248
C69   C     C_R   0.165613 0.805969 0.228003 0.018542
C70   C     C_R   0.193788 0.359041 0.228088 0.018194
C71   C     C_R   0.629566 0.761316 0.145921 0.238718
C72   C     C_R   0.240024 0.869107 0.145971 0.239986
C73   C     C_R   0.130792 0.370436 0.145915 0.236559
C74   C     C_R   0.582662 0.785429 0.379074 0.001954
C75   C     C_R   0.214482 0.796553 0.378957 0.002122
C76   C     C_R   0.202906 0.417310 0.379026 0.002014
C77   C     C_3   0.753125 0.897115 0.726278 -0.222471
C78   C     C_3   0.291555 0.884369 0.736808 -0.180278
C79   C     C_3   0.101322 0.857963 0.725716 -0.219027
C80   C     C_3   0.133387 0.229792 0.718693 -0.220046
C81   C     C_3   0.770536 0.911576 0.782245 -0.199112
C82   C     C_3   0.088164 0.862513 0.781704 -0.203438
C83   C     C_3   0.122599 0.202059 0.773635 -0.215806
C84   C     C_1   0.724049 0.865814 0.905014 0.045469
C85   C     C_1   0.133056 0.858036 0.904719 0.052560
C86   C     C_1   0.111524 0.227242 0.897112 0.065170
C87   C     C_3   0.631299 0.817397 0.714728 -0.001981
C88   C     C_3   0.176129 0.809669 0.714206 0.004791
C89   C     C_3   0.097234 0.385891 0.734627 -0.187848
C90   C     C_3   0.178671 0.353566 0.711736 0.009784
C91   C     C_3   0.566150 0.852227 0.796263 -0.003881
C92   C     C_3   0.135124 0.708824 0.795705 -0.005148
C93   C     C_3   0.269485 0.401906 0.795500 -0.002791
C94   C     C_3   0.663817 0.832559 0.810748 0.050262
C95   C     C_3   0.162664 0.828278 0.810284 0.058251
C96   C     C_3   0.149976 0.303918 0.805796 0.063939
C97   C     C_3   0.651460 0.048392 0.823982 -0.178915
C98   C     C_3   0.937245 0.607191 0.822857 -0.182241
C99   C     C_3   0.378888 0.312636 0.820755 -0.176057
Cr1   Cr    Cr6+3 0.164410 0.584450 0.499910 1.022456
Cr2   Cr    Cr6+3 0.415550 0.579960 0.499910 1.022338
Cr3   Cr    Cr6+3 0.420040 0.835590 0.499910 1.022441
Cr4   Cr    Cr6+3 0.155170 0.075460 0.019960 1.118368
Cr5   Cr    Cr6+3 0.924540 0.079710 0.019960 1.108714
Cr6   Cr    Cr6+3 0.920290 0.844830 0.019960 1.111289
H1    H     H_    0.475611 0.811464 0.726916 0.094641
H2    H     H_    0.672322 0.961276 0.386204 0.116698
H3    H     H_    0.038159 0.709417 0.385610 0.116678
H4    H     H_    0.290781 0.328697 0.385885 0.116581
H5    H     H_    0.801627 0.114846 0.229301 0.128382
H6    H     H_    0.884981 0.684701 0.228286 0.128688
H7    H     H_    0.316105 0.200517 0.228687 0.128744
H8    H     H_    0.757692 0.086519 0.316653 0.116106
H9    H     H_    0.912951 0.668795 0.315697 0.116113
H10   H     H_    0.331736 0.244240 0.316108 0.116071
H11   H     H_    0.500459 0.565433 0.192384 0.195023
H12   H     H_    0.170725 0.653202 0.726502 0.094686
H13   H     H_    0.436282 0.936397 0.192929 0.196173
H14   H     H_    0.062493 0.498592 0.192691 0.195657
H15   H     H_    0.462325 0.539638 0.278728 0.124986
H16   H     H_    0.461658 0.923567 0.279322 0.124928
H17   H     H_    0.074851 0.536467 0.279093 0.124920
H18   H     H_    0.590863 0.947623 0.727871 0.154440
H19   H     H_    0.038740 0.643218 0.727038 0.146361
H20   H     H_    0.346061 0.386225 0.727020 0.145978
H21   H     H_    0.489112 0.613019 0.360409 0.138535
H22   H     H_    0.387536 0.876254 0.360750 0.138949
H23   H     H_    0.330670 0.504819 0.729937 0.092731
H24   H     H_    0.122357 0.509927 0.360625 0.138714
H25   H     H_    0.805162 0.865576 0.710612 0.164039
H26   H     H_    0.136613 0.941540 0.709864 0.161519
H27   H     H_    0.051770 0.182542 0.700608 0.162628
H28   H     H_    0.779555 0.977879 0.708891 0.153480
H29   H     H_    0.019176 0.806835 0.708594 0.139326
H30   H     H_    0.189017 0.204555 0.701241 0.132076
H31   H     H_    0.798887 0.997293 0.792333 0.193756
H32   H     H_    0.001355 0.809965 0.791676 0.180544
H33   H     H_    0.176190 0.168648 0.783108 0.174844
H34   H     H_    0.488526 0.775825 0.805814 0.103687
H35   H     H_    0.839123 0.897686 0.792861 0.181005
H36   H     H_    0.107370 0.946466 0.792330 0.177381
H37   H     H_    0.037855 0.134358 0.781147 0.173863
H38   H     H_    0.507401 0.649157 0.732662 0.067313
H39   H     H_    0.340572 0.843304 0.732258 0.074996
H40   H     H_    0.134538 0.476292 0.733222 0.065578
H41   H     H_    0.635571 0.663297 0.716081 0.165894
H42   H     H_    0.335657 0.962206 0.715921 0.165966
H43   H     H_    0.021294 0.352301 0.712119 0.171982
H44   H     H_    0.551158 0.656309 0.813527 0.088419
H45   H     H_    0.208549 0.702243 0.805997 0.112633
H46   H     H_    0.338505 0.881521 0.812944 0.120094
H47   H     H_    0.091289 0.420102 0.812384 0.092843
H48   H     H_    0.521072 0.913864 0.856480 0.263253
H49   H     H_    0.625632 0.104872 0.839415 0.224158
H50   H     H_    0.683585 0.076845 0.786690 0.204324
H51   H     H_    0.715061 0.051395 0.848806 0.188212
H52   H     H_    0.041879 0.545056 0.816094 0.272008
H53   H     H_    0.878998 0.529039 0.841154 0.210161
H54   H     H_    0.907378 0.604636 0.785158 0.186545
H55   H     H_    0.938538 0.673715 0.844846 0.209273
H56   H     H_    0.270216 0.477855 0.807836 0.115485
H57   H     H_    0.430599 0.477756 0.821613 0.272633
H58   H     H_    0.452968 0.331633 0.842693 0.210625
H59   H     H_    0.394177 0.298100 0.782508 0.182310
H60   H     H_    0.309402 0.239714 0.837352 0.217193
H61   H     H_    0.791564 0.648414 0.735731 0.343856
H62   H     H_    0.353551 0.134354 0.735610 0.346380
H63   H     H_    0.836419 0.199151 0.729129 0.350145
H64   H     H_    0.397983 0.517262 0.092951 0.378623
H65   H     H_    0.484083 0.881546 0.091958 0.377519
H66   H     H_    0.116134 0.600857 0.092666 0.376972
H67   H     H_    0.804908 0.038742 0.150351 0.149237
H68   H     H_    0.961476 0.765080 0.149699 0.150092
H69   H     H_    0.235700 0.196671 0.149883 0.149536
N1    N     N_2   0.559011 0.938573 0.822839 -0.536190
N2    N     N_2   0.045095 0.618696 0.822073 -0.538225
N3    N     N_2   0.359080 0.403448 0.823277 -0.538051
O1    O     O_R   0.137150 0.468200 0.553200 -0.506790
O2    O     O_R   0.140110 0.470540 0.446010 -0.518741
O3    O     O_R   0.529460 0.669570 0.446010 -0.518500
O4    O     O_R   0.330430 0.859890 0.446010 -0.518292
O5    O     O_R   0.176710 0.690910 0.450560 -0.505646
O6    O     O_R   0.309090 0.485800 0.450560 -0.505656
O7    O     O_R   0.514200 0.823290 0.450560 -0.505293
O8    O     O_3   0.333333 0.666667 0.499990 -0.280934
O9    O     O_R   0.176750 0.985260 0.074180 -0.462315
O10   O     O_R   0.014740 0.191490 0.074180 -0.459668
O11   O     O_R   0.808510 0.823250 0.074180 -0.461142
O12   O     O_R   0.531800 0.668950 0.553200 -0.506338
O13   O     O_R   0.146100 0.172630 0.068980 -0.508704
O14   O     O_R   0.827370 0.973470 0.068980 -0.516354
O15   O     O_R   0.026530 0.853900 0.068980 -0.515139
O16   O     O_3   1.000000 0.000000 0.020040 -0.288888
O17   O     O_R   0.148270 0.170520 0.969620 -0.485158
O18   O     O_R   0.829480 0.977750 0.969620 -0.521316
O19   O     O_R   0.022250 0.851730 0.969620 -0.504286
O20   O     O_2   0.778622 0.705715 0.852439 -0.282585
O21   O     O_2   0.660745 0.542317 0.804259 -0.306409
O22   O     O_3   0.815974 0.710544 0.758847 -0.619990
O23   O     O_R   0.331050 0.862850 0.553200 -0.505922
O24   O     O_2   0.307485 0.067676 0.853302 -0.288059
O25   O     O_2   0.462637 0.104770 0.800733 -0.297011
O26   O     O_3   0.293595 0.099643 0.759949 -0.625824
O27   O     O_2   0.906867 0.190106 0.843113 -0.313662
O28   O     O_2   0.870500 0.322207 0.801459 -0.303750
O29   O     O_3   0.877714 0.172151 0.748566 -0.619819
O30   O     O_2   0.580759 0.699557 0.050616 -0.244088
O31   O     O_2   0.607931 0.577647 0.105876 -0.289227
O32   O     O_3   0.426832 0.585158 0.112696 -0.481626
O33   O     O_2   0.302781 0.883593 0.050814 -0.246370
O34   O     O_R   0.179100 0.982980 0.967000 -0.468148
O35   O     O_2   0.423703 0.031958 0.106536 -0.289385
O36   O     O_3   0.418067 0.844686 0.113016 -0.484072
O37   O     O_2   0.116223 0.418613 0.050715 -0.227603
O38   O     O_2   0.967293 0.391026 0.106224 -0.290796
O39   O     O_3   0.154745 0.572170 0.112963 -0.485030
O40   O     O_R   0.017020 0.196120 0.967000 -0.448798
O41   O     O_R   0.803880 0.820900 0.967000 -0.456360
O42   O     O_R   0.173970 0.688730 0.549930 -0.498053
O43   O     O_R   0.311270 0.485240 0.549930 -0.499066
O44   O     O_R   0.514760 0.826030 0.549930 -0.497733
S1    S     S_3+6 0.722042 0.665530 0.803940 -0.070310
S2    S     S_3+6 0.339593 0.048049 0.803495 -0.066453
S3    S     S_3+6 0.927692 0.256246 0.797254 -0.078402
S4    S     S_3+6 0.562904 0.654426 0.101769 0.033076
S5    S     S_3+6 0.347633 0.910481 0.102087 0.030919
S6    S     S_3+6 0.089121 0.436409 0.101947 0.034437

loop_
_geom_bond_atom_site_label_1
_geom_bond_atom_site_label_2
_ccdc_geom_bond_type
C25   C31   A    
C81   H35   S    
C12   O1    A    
C55   H16   S    
C26   C32   A    
C80   H27   S    
C32   H6    S    
C55   C59   A    
Cr6   O19   S    
C18   C21   A    
C71   S4    S    
C65   C92   S    
C2    C84   T    
Cr2   O43   S    
C21   C51   A    
C39   H68   S    
C67   H38   S    
C6    C9    T    
C13   C41   S    
C79   C82   S    
C66   C90   S    
C29   C76   S    
C27   C33   A    
Cr6   O16   S    
C25   C68   A    
C46   C49   A    
C44   H21   S    
C80   H30   S    
O32   S4    S    
C38   H67   S    
C47   H24   S    
C60   C63   A    
C17   C85   S    
C32   C36   A    
Cr6   O11   S    
C22   C52   A    
O21   S1    D    
C54   H15   S    
C99   N3    S    
C82   H32   S    
Cr2   O12   S    
C82   H36   S    
C30   C74   S    
C26   C39   A    
C65   H19   S    
Cr5   O18   S    
C4    C86   T    
C78   C88   S    
Cr3   O7    S    
C16   C84   S    
C8    C23   S    
C6    C88   S    
C20   C76   A    
C60   H14   S    
C97   H51   S    
Cr5   O10   S    
C39   C42   A    
C28   O5    A    
H61   O22   S    
C79   C88   S    
H57   N3    S    
O36   S5    S    
C57   H17   S    
C4    C96   S    
C15   O17   A    
C43   C73   A    
O30   S4    D    
C40   C43   A    
C98   H53   S    
Cr1   O42   S    
O29   S3    S    
Cr5   O16   S    
C25   C38   A    
C16   O41   A    
C45   C78   S    
C52   C69   A    
Cr4   O17   S    
H62   O26   S    
C15   O40   A    
Cr1   O5    S    
C64   C87   S    
O38   S6    D    
Cr2   O6    S    
C41   C71   A    
C14   O15   A    
C19   H3    S    
C61   C71   A    
C58   C61   A    
C89   H40   S    
Cr1   O1    S    
C18   C74   A    
C13   O11   A    
C72   S5    S    
O27   S3    D    
C58   H11   S    
O33   S5    D    
Cr6   O15   S    
Cr4   O9    S    
C77   H28   S    
C80   C83   S    
Cr2   O8    S    
C53   C70   A    
C46   C75   A    
C34   H44   S    
C47   C50   A    
C48   C51   A    
H65   O36   S    
O39   S6    S    
C62   C72   A    
C50   C53   A    
C23   O44   A    
C46   H22   S    
C2    C94   S    
C19   C22   A    
C1    C9    S    
C38   C41   A    
Cr3   O4    S    
O20   S1    D    
Cr1   O2    S    
Cr4   O34   S    
C97   N1    S    
C56   S3    S    
C93   N3    S    
C57   C60   A    
C77   H25   S    
C63   C73   A    
C24   C53   A    
C49   C55   A    
Cr5   O14   S    
C29   O6    A    
C92   C95   S    
C33   C37   A    
C99   H59   S    
C62   C69   A    
C45   H46   S    
C45   S2    S    
C37   H10   S    
C48   C54   A    
C28   O4    A    
C78   H39   S    
O31   S4    D    
C83   H37   S    
C98   N2    S    
C63   C70   A    
C77   C81   S    
C27   C40   A    
C91   N1    S    
C49   C52   A    
H64   O32   S    
C67   H41   S    
C42   C72   A    
C24   C37   A    
O26   S2    S    
C1    O42   A    
Cr4   O13   S    
C97   H49   S    
C18   H2    S    
C11   C43   S    
O37   S6    D    
C27   C70   A    
C10   C12   S    
C78   H42   S    
C15   C86   S    
C99   H58   S    
H66   O39   S    
C56   C89   S    
C98   H55   S    
C93   H56   S    
C93   C96   S    
C66   C93   S    
C92   H45   S    
C91   H34   S    
C3    C85   T    
C1    O23   A    
C56   H47   S    
O24   S2    D    
C45   C95   S    
C23   O12   A    
C81   H31   S    
C73   S6    S    
C54   C58   A    
C33   H7    S    
C56   C96   S    
C79   H29   S    
C59   C62   A    
C30   O3    A    
C82   C95   S    
C79   H26   S    
C50   C57   A    
C30   O7    A    
O25   S2    D    
C92   N2    S    
Cr3   O23   S    
C34   C94   S    
C44   C74   A    
C17   O34   A    
C34   C67   S    
C47   C76   A    
C5    C8    T    
C64   H1    S    
C21   C35   A    
C59   H13   S    
C64   H18   S    
C22   C36   A    
Cr3   O8    S    
H48   N1    S    
O28   S3    D    
C67   C87   S    
C13   O14   A    
C66   H20   S    
C14   C42   S    
C11   O13   A    
C89   H43   S    
C7    C10   T    
C19   C75   A    
Cr1   O8    S    
O35   S5    D    
Cr2   O3    S    
C91   C94   S    
C40   H69   S    
C81   C94   S    
C7    C90   S    
C61   C68   A    
C12   O43   A    
C11   O10   A    
C65   C88   S    
C14   O9    A    
C83   C96   S    
C31   C35   A    
C31   H5    S    
C66   H23   S    
C36   H9    S    
C35   H8    S    
H63   O29   S    
C51   C68   A    
C97   H50   S    
C80   C90   S    
Cr5   O40   S    
H52   N2    S    
O22   S1    S    
C20   H4    S    
C5    C87   S    
C34   S1    S    
C98   H54   S    
C77   C87   S    
Cr6   O41   S    
C29   O2    A    
C16   O18   A    
C26   C69   A    
C65   H12   S    
C17   O19   A    
C3    C95   S    
Cr4   O16   S    
C64   C91   S    
C89   C90   S    
C28   C75   S    
C20   C24   A    
C83   H33   S    
C44   C48   A    
Cr3   O44   S    
C99   H60   S    
