data_mof_unit_35661.cif
_audit_creation_date              2012-12-10T20:49:27-0500
_audit_creation_method            fapswitch 2.2
_symmetry_space_group_name_H-M    P1
_symmetry_Int_Tables_number       1
_space_group_crystal_system       triclinic
_cell_length_a                    15.752243
_cell_length_b                    9.016996
_cell_length_c                    8.10649
_cell_angle_alpha                 90.014966
_cell_angle_beta                  90.673018
_cell_angle_gamma                 90.408807
_cell_volume                      1151.32010432

loop_
_atom_site_label
_atom_site_type_symbol
_atom_type_description
_atom_site_fract_x
_atom_site_fract_y
_atom_site_fract_z
_atom_type_partial_charge
C1    C     C_1   0.500023 0.065008 0.499984 -0.191261
C2    C     C_3   0.976604 0.621499 0.544136 0.176703
C3    C     C_1   0.248751 0.490630 0.496207 -0.180549
C4    C     C_1   0.751297 0.500361 0.504010 -0.189585
C5    C     C_3   0.033019 0.518142 0.650266 -0.291851
C6    C     C_3   0.966964 0.450244 0.351279 -0.219414
C7    C     C_3   0.082876 0.480356 0.494185 0.027950
C8    C     C_3   0.916993 0.490209 0.508073 0.063046
C9    C     C_1   0.173670 0.483976 0.494081 -0.069839
C10   C     C_1   0.826404 0.497184 0.507021 -0.050847
C11   C     C_3   0.058985 0.198396 0.403902 -0.402436
C12   C     C_1   0.500046 0.934996 0.500022 -0.191233
C13   C     C_3   0.000540 0.120513 0.280062 -0.890092
C14   C     C_3   0.950561 0.775143 0.603371 -0.391589
C15   C     C_3   0.027224 0.860931 0.671143 -0.887664
C16   C     C_3   0.943956 0.285143 0.753575 -0.419031
C17   C     C_3   0.873778 0.176633 0.702268 -0.854509
C18   C     C_3   0.060362 0.684468 0.253014 -0.401023
C19   C     C_3   0.988986 0.734907 0.137288 -0.909287
C20   C     C_R   0.499985 0.217829 0.499987 0.928393
C21   C     C_R   0.500054 0.782172 0.500015 0.928198
C22   C     C_R   0.337439 0.498553 0.498959 0.900930
C23   C     C_R   0.662557 0.501326 0.501054 0.900978
C24   C     C_3   0.972585 0.386236 0.612629 0.169353
C25   C     C_3   0.027061 0.582455 0.388706 0.184996
C26   C     C_3   0.024155 0.348002 0.457629 0.179616
H1    H     H_    0.937007 0.422657 0.230396 0.152656
H2    H     H_    0.006984 0.970186 0.717365 0.258082
H3    H     H_    0.920927 0.837394 0.499940 0.207473
H4    H     H_    0.903175 0.762606 0.702901 0.209902
H5    H     H_    0.814093 0.236109 0.673585 0.266472
H6    H     H_    0.892718 0.111312 0.593509 0.265346
H7    H     H_    0.861272 0.098802 0.805435 0.249854
H8    H     H_    0.999767 0.222952 0.800566 0.194836
H9    H     H_    0.920430 0.355104 0.855992 0.205989
H10   H     H_    0.964590 0.640229 0.062571 0.257043
H11   H     H_    0.935971 0.783089 0.208064 0.266009
H12   H     H_    0.062029 0.541984 0.773034 0.159231
H13   H     H_    0.013599 0.820338 0.051646 0.255696
H14   H     H_    0.092827 0.781567 0.309615 0.206200
H15   H     H_    0.107819 0.623373 0.179443 0.210803
H16   H     H_    0.935316 0.108217 0.328034 0.263328
H17   H     H_    0.998293 0.183021 0.162084 0.253573
H18   H     H_    0.026427 0.009705 0.254799 0.267422
H19   H     H_    0.121629 0.215052 0.344925 0.209791
H20   H     H_    0.068902 0.128828 0.514499 0.210748
H21   H     H_    0.057178 0.801236 0.775780 0.258223
H22   H     H_    0.075356 0.876709 0.574070 0.259065
N1    N     N_1   0.500010 0.500000 0.073640 -0.033028
N2    N     N_1   0.499990 0.500000 0.926360 -0.032950
O1    O     O_R   0.500000 0.285340 0.636850 -0.615694
O2    O     O_R   0.500000 0.714660 0.363150 -0.615929
O3    O     O_R   0.500000 0.285340 0.363150 -0.615571
O4    O     O_R   0.500000 0.714660 0.636850 -0.615658
O5    O     O_R   0.376770 0.500000 0.636850 -0.614559
O6    O     O_R   0.623230 0.500000 0.363150 -0.614029
O7    O     O_R   0.376780 0.500000 0.363100 -0.618497
O8    O     O_R   0.623220 0.500000 0.636900 -0.616879
Zn1   Zn    Zn3+2 0.499990 0.500000 0.682780 0.992765
Zn2   Zn    Zn3+2 0.500010 0.500000 0.317220 0.992338

loop_
_geom_bond_atom_site_label_1
_geom_bond_atom_site_label_2
_ccdc_geom_bond_type
C23   O8    A    
C22   O5    A    
C3    C9    T    
O5    Zn1   S    
C20   O1    A    
C19   H11   S    
C6    H1    S    
C7    C25   S    
C15   H21   S    
C19   H10   S    
C22   O7    A    
C5    C24   S    
O7    Zn2   S    
N1    Zn2   S    
C23   O6    A    
C16   C24   S    
C5    H12   S    
C11   C13   S    
C15   H2    S    
C6    C26   S    
C18   C25   S    
C17   H7    S    
C15   H22   S    
C14   H4    S    
C2    C14   S    
N2    Zn1   S    
C19   H13   S    
C1    C20   S    
C13   H16   S    
C8    C24   S    
O3    Zn2   S    
C24   C26   S    
N1    N2    T    
C2    C25   S    
C5    C7    S    
O4    Zn1   S    
C13   H18   S    
C16   H9    S    
C21   O4    A    
C17   H5    S    
O8    Zn1   S    
C11   H19   S    
C2    C5    S    
O1    Zn1   S    
C14   H3    S    
C4    C10   T    
C6    C25   S    
C13   H17   S    
C8    C10   S    
C18   C19   S    
C18   H15   S    
C2    C8    S    
C7    C9    S    
C17   H6    S    
C18   H14   S    
C14   C15   S    
C16   C17   S    
C3    C22   S    
C6    C8    S    
O2    Zn2   S    
C11   C26   S    
C16   H8    S    
C4    C23   S    
C7    C26   S    
C12   C21   S    
C21   O2    A    
C1    C12   T    
O6    Zn2   S    
C20   O3    A    
C11   H20   S    
