data_mof_unit_48712.cif
_audit_creation_date              2012-12-10T17:07:49-0500
_audit_creation_method            fapswitch 2.2
_symmetry_space_group_name_H-M    P1
_symmetry_Int_Tables_number       1
_space_group_crystal_system       triclinic
_cell_length_a                    10.66031
_cell_length_b                    10.610295
_cell_length_c                    10.077891
_cell_angle_alpha                 93.397426
_cell_angle_beta                  91.185382
_cell_angle_gamma                 91.17759
_cell_volume                      1137.38274631

loop_
_atom_site_label
_atom_site_type_symbol
_atom_type_description
_atom_site_fract_x
_atom_site_fract_y
_atom_site_fract_z
_atom_type_partial_charge
C1    C     C_R   0.494561 0.262451 0.495359 0.915100
C2    C     C_3   0.879539 0.506676 0.502506 -0.040699
C3    C     C_3   0.933900 0.610595 0.605642 0.339273
C4    C     C_3   0.925869 0.540065 0.361940 -0.658145
C5    C     C_2   0.595288 0.934278 0.421487 0.359833
C6    C     C_2   0.550387 0.871418 0.523988 0.149612
C7    C     C_2   0.594755 0.072729 0.433502 -0.209221
C8    C     C_2   0.493167 0.129261 0.480159 -0.211671
C9    C     C_2   0.581132 0.562789 0.930824 -0.114984
C10   C     C_2   0.590011 0.547818 0.078190 0.040903
C11   C     C_R   0.258497 0.504869 0.499015 0.930988
C12   C     C_R   0.513028 0.738374 0.505320 0.900209
C13   C     C_R   0.742320 0.504127 0.501209 0.895343
C14   C     C_3   0.073373 0.373664 0.522136 -0.635935
C15   C     C_3   0.927845 0.372818 0.530653 0.387289
C16   C     C_3   0.078219 0.602361 0.609736 -0.415534
C17   C     C_3   0.069653 0.550185 0.360777 0.342090
C18   C     C_3   0.122586 0.509136 0.497100 -0.065242
H1    H     H_    0.122374 0.337430 0.609489 0.185198
H2    H     H_    0.881480 0.627864 0.331841 0.261797
H3    H     H_    0.120152 0.698144 0.602020 0.204086
H4    H     H_    0.906535 0.704095 0.569723 0.112165
H5    H     H_    0.675878 0.128004 0.405030 0.128125
H6    H     H_    0.408504 0.077509 0.503903 0.162229
H7    H     H_    0.649415 0.624098 0.888031 0.183898
H8    H     H_    0.456429 0.424350 0.887053 0.218721
H9    H     H_    0.677081 0.577829 0.128970 0.095482
H10   H     H_    0.100166 0.308293 0.437260 0.149878
H11   H     H_    0.893760 0.308918 0.445132 0.085801
H12   H     H_    0.111135 0.570872 0.707422 0.201258
H13   H     H_    0.101066 0.481219 0.281534 0.101507
H14   H     H_    0.894342 0.465189 0.285542 0.167746
N1    N     N_2   0.501360 0.501330 0.852150 -0.167282
N2    N     N_2   0.501390 0.501360 0.147810 0.067358
O1    O     O_R   0.499980 0.319060 0.613040 -0.567078
O2    O     O_R   0.500020 0.319100 0.386900 -0.671295
O3    O     O_R   0.314770 0.499960 0.613070 -0.637108
O4    O     O_R   0.314820 0.500000 0.386930 -0.596774
O5    O     O_R   0.499980 0.680900 0.613100 -0.579798
O6    O     O_R   0.500020 0.680940 0.386960 -0.521558
O7    O     O_R   0.685180 0.500000 0.613070 -0.529741
O8    O     O_R   0.685230 0.500040 0.386930 -0.672679
Zn1   Zn    Zn3+2 0.499970 0.499970 0.650990 1.018170
Zn2   Zn    Zn3+2 0.500030 0.500030 0.349010 1.018873
O9    O     O_3   0.626061 0.867533 0.303363 -0.600184
C19   C     C_3   0.703576 0.938965 0.222693 0.127846
H15   H     H_    0.788153 0.977240 0.279530 0.144819
H16   H     H_    0.650113 0.016850 0.180498 0.160075
C20   C     C_3   0.748376 0.853936 0.108493 -0.789664
H17   H     H_    0.666635 0.814506 0.049251 0.270922
H18   H     H_    0.809682 0.908583 0.043969 0.215911
H19   H     H_    0.801634 0.775478 0.148586 0.257632
S1    S     S_3+6 0.551918 0.941422 0.691975 -0.000402
O10   O     O_2   0.642714 0.051811 0.708673 -0.277391
O11   O     O_2   0.422421 0.985540 0.725048 -0.329074
O12   O     O_3   0.594759 0.836255 0.801483 -0.588535
H20   H     H_    0.520122 0.823058 0.856369 0.385976
O13   O     O_3   0.386064 0.494080 0.090052 -0.491187
C21   C     C_3   0.339420 0.369788 0.101889 0.224554
H21   H     H_    0.320289 0.350737 0.206186 0.170085
H22   H     H_    0.407504 0.298907 0.063416 0.108830
C22   C     C_3   0.217500 0.350897 0.020928 -0.924168
H23   H     H_    0.234703 0.362616 0.914005 0.250794
H24   H     H_    0.178326 0.254432 0.032178 0.218633
H25   H     H_    0.147726 0.420925 0.055705 0.266398
O14   O     O_3   0.869237 0.322166 0.643237 -0.569746
C23   C     C_3   0.944224 0.317132 0.759922 0.217907
H26   H     H_    0.003404 0.403174 0.780547 0.168238
H27   H     H_    0.004058 0.232547 0.752129 0.128875
C24   C     C_3   0.859198 0.304762 0.878043 -0.766962
H28   H     H_    0.801590 0.216376 0.864939 0.281762
H29   H     H_    0.916809 0.302334 0.970908 0.175810
H30   H     H_    0.795986 0.386553 0.887078 0.269074
O15   O     O_3   0.885428 0.595979 0.733819 -0.589560
C25   C     C_3   0.911285 0.704037 0.820113 0.041566
H31   H     H_    0.823343 0.756001 0.836108 0.213450
H32   H     H_    0.981430 0.772022 0.782616 0.147511
C26   C     C_3   0.960541 0.661534 0.952301 -0.784797
H33   H     H_    0.046759 0.606098 0.937253 0.270980
H34   H     H_    0.983964 0.745617 0.019427 0.259311
H35   H     H_    0.888836 0.602012 0.998775 0.231301
S2    S     S_3+6 0.125059 0.705310 0.314850 0.001267
O16   O     O_2   0.233299 0.754664 0.402027 -0.310271
O17   O     O_2   0.169019 0.692488 0.174152 -0.279506
O18   O     O_3   0.010751 0.812305 0.325224 -0.611087
H36   H     H_    0.041777 0.884042 0.275544 0.374817

loop_
_geom_bond_atom_site_label_1
_geom_bond_atom_site_label_2
_ccdc_geom_bond_type
C10   H9    S    
C11   C18   S    
C12   O6    A    
C16   H3    S    
C1    C8    S    
C14   C18   S    
C13   O7    A    
C9    H7    S    
C7    C8    D    
S1    O10   D    
C19   C20   S    
C2    C13   S    
C6    C12   S    
C5    C6    D    
C26   H34   S    
C16   H12   S    
O12   H20   S    
C17   S2    S    
C11   O3    A    
C3    O15   S    
C22   H24   S    
C20   H18   S    
C24   H28   S    
O1    Zn1   S    
C9    C10   S    
O14   C23   S    
C21   H21   S    
C9    N1    D    
O7    Zn1   S    
O8    Zn2   S    
C13   O8    A    
C15   H11   S    
S1    O11   D    
C19   H16   S    
C21   H22   S    
O15   C25   S    
C23   H26   S    
N1    Zn1   S    
N2    Zn2   S    
C5    C7    S    
C26   H33   S    
O5    Zn1   S    
O13   C21   S    
O9    C19   S    
C15   O14   S    
C5    O9    S    
C23   H27   S    
O3    Zn1   S    
C11   O4    A    
C2    C4    S    
C25   H31   S    
O4    Zn2   S    
C22   H23   S    
H8    N1    S    
C20   H19   S    
C24   H30   S    
C17   C18   S    
C10   N2    D    
C2    C15   S    
C25   H32   S    
O18   H36   S    
C4    H14   S    
C4    C17   S    
S2    O16   D    
S2    O17   D    
C17   H13   S    
O2    Zn2   S    
C6    S1    S    
C1    O1    A    
S1    O12   S    
C19   H15   S    
C21   C22   S    
C22   H25   S    
C14   H1    S    
S2    O18   S    
C23   C24   S    
C12   O5    A    
C2    C3    S    
C26   H35   S    
C7    H5    S    
C8    H6    S    
C25   C26   S    
C4    H2    S    
O6    Zn2   S    
C16   C18   S    
C20   H17   S    
N2    O13   S    
C14   C15   S    
C3    H4    S    
C24   H29   S    
C14   H10   S    
C3    C16   S    
C1    O2    A    
