data_mof_unit_45799.cif
_audit_creation_date              2012-12-10T17:50:11-0500
_audit_creation_method            fapswitch 2.2
_symmetry_space_group_name_H-M    P1
_symmetry_Int_Tables_number       1
_space_group_crystal_system       triclinic
_cell_length_a                    10.60951
_cell_length_b                    14.707944
_cell_length_c                    14.779403
_cell_angle_alpha                 64.922823
_cell_angle_beta                  103.482162
_cell_angle_gamma                 102.656627
_cell_volume                      2012.24986216

loop_
_atom_site_label
_atom_site_type_symbol
_atom_type_description
_atom_site_fract_x
_atom_site_fract_y
_atom_site_fract_z
_atom_type_partial_charge
C1    C     C_R   0.476592 0.119777 0.312426 0.795350
C2    C     C_R   0.520564 0.880252 0.687566 0.796655
C3    C     C_R   0.474480 0.292239 0.179082 -0.218354
C4    C     C_R   0.498724 0.707928 0.820749 -0.230935
C5    C     C_R   0.448760 0.360643 0.078204 0.079203
C6    C     C_R   0.487263 0.639597 0.920386 0.079466
C7    C     C_R   0.410192 0.321093 0.002004 0.157991
C8    C     C_R   0.510616 0.679221 0.996019 0.164006
C9    C     C_R   0.464278 0.467146 0.050991 0.063764
C10   C     C_R   0.456284 0.533152 0.947042 0.061785
C11   C     C_R   0.415033 0.490644 0.873262 -0.204046
C12   C     C_R   0.485086 0.509724 0.124013 -0.208501
C13   C     C_R   0.391221 0.386570 0.900619 -0.213721
C14   C     C_R   0.506635 0.613830 0.096575 -0.219551
C15   C     C_R   0.744642 0.298479 0.642680 -0.211710
C16   C     C_R   0.255664 0.701900 0.356733 -0.213693
C17   C     C_R   0.695183 0.208897 0.628541 -0.062298
C18   C     C_R   0.304915 0.791274 0.371318 -0.062957
C19   C     C_R   0.514396 0.283555 0.512628 0.835884
C20   C     C_R   0.485773 0.716534 0.487029 0.836283
C21   C     C_R   0.551650 0.372672 0.533586 -0.131050
C22   C     C_R   0.448659 0.627629 0.465685 -0.132006
C23   C     C_R   0.259603 0.000482 0.500050 0.794260
C24   C     C_R   0.740404 0.999515 0.499955 0.795603
C25   C     C_R   0.678203 0.383987 0.589410 -0.027305
C26   C     C_R   0.322177 0.616416 0.409739 -0.030353
C27   C     C_R   0.472043 0.452369 0.497016 -0.112113
C28   C     C_R   0.528322 0.548006 0.502030 -0.109920
C29   C     C_R   0.663937 0.562539 0.537904 0.587260
C30   C     C_R   0.336464 0.437918 0.460968 0.582824
C31   C     C_R   0.736658 0.481056 0.586810 -0.097131
C32   C     C_R   0.263834 0.519445 0.412001 -0.100639
C33   C     C_3   0.016181 0.012175 0.407871 -0.189680
C34   C     C_3   0.983851 0.987821 0.592145 -0.190188
C35   C     C_3   0.961883 0.088186 0.430797 -0.152510
C36   C     C_3   0.038151 0.911809 0.569220 -0.152539
C37   C     C_3   0.877105 0.998898 0.499712 0.000098
C38   C     C_3   0.122919 0.001097 0.500303 0.000927
C39   C     C_3   0.929089 0.922840 0.476771 -0.091609
C40   C     C_3   0.070943 0.077155 0.523245 -0.091573
C41   C     C_R   0.455346 0.187614 0.205061 -0.056136
C42   C     C_R   0.523095 0.812582 0.794696 -0.056691
C43   C     C_R   0.391464 0.216123 0.028037 -0.192921
C44   C     C_R   0.537709 0.784202 0.970199 -0.191829
C45   C     C_R   0.412901 0.149668 0.129081 -0.200392
C46   C     C_R   0.542761 0.850609 0.869931 -0.198736
Cu1   Cu    Cu3+1 0.465750 0.918270 0.475680 0.998302
Cu2   Cu    Cu3+1 0.534250 0.081730 0.524320 0.998498
H1    H     H_    0.927412 0.160236 0.374144 0.146354
H2    H     H_    0.072651 0.839769 0.625875 0.146583
H3    H     H_    0.251541 0.855710 0.332766 0.155898
H4    H     H_    0.748533 0.144456 0.667247 0.156090
H5    H     H_    0.834931 0.299918 0.694500 0.192299
H6    H     H_    0.165461 0.700591 0.304798 0.193250
H7    H     H_    0.032790 0.022266 0.332537 0.140220
H8    H     H_    0.967269 0.977738 0.667482 0.139628
H9    H     H_    0.868370 0.859676 0.457712 0.209899
H10   H     H_    0.131669 0.140320 0.542300 0.209181
H11   H     H_    0.359634 0.357185 0.841736 0.158104
H12   H     H_    0.521883 0.643287 0.154839 0.152136
H13   H     H_    0.491452 0.681333 0.761968 0.182551
H14   H     H_    0.512968 0.318885 0.238901 0.177334
H15   H     H_    0.561522 0.931421 0.851349 0.156840
H16   H     H_    0.397010 0.068895 0.147582 0.155596
H17   H     H_    0.360525 0.185471 0.970124 0.137633
H18   H     H_    0.554329 0.814928 0.027583 0.137087
H19   H     H_    0.396068 0.535760 0.793290 0.158406
H20   H     H_    0.481180 0.464638 0.203100 0.166473
N1    N     N_R   0.585750 0.204560 0.560800 -0.239575
N2    N     N_R   0.414250 0.795440 0.439200 -0.239787
O1    O     O_R   0.454850 0.022100 0.338110 -0.603802
O2    O     O_R   0.545150 0.977900 0.661890 -0.603835
O3    O     O_R   0.512700 0.160150 0.379180 -0.536817
O4    O     O_R   0.487300 0.839850 0.620820 -0.536848
O5    O     O_R   0.287930 0.931000 0.479440 -0.595555
O6    O     O_R   0.712070 0.069000 0.520560 -0.594911
O7    O     O_R   0.345780 0.069050 0.520520 -0.532152
O8    O     O_R   0.654220 0.930950 0.479480 -0.531500
F1    F     F_    0.582310 0.720146 0.564176 -0.629301
F2    F     F_    0.417995 0.279824 0.435443 -0.631498
F3    F     F_    0.731127 0.657423 0.514993 -0.660499
F4    F     F_    0.269139 0.343085 0.483819 -0.660337
C47   C     C_2   0.877328 0.504235 0.625380 0.441552
H21   H     H_    0.907981 0.563652 0.654268 0.104129
O9    O     O_2   0.960911 0.462282 0.619826 -0.523895
C48   C     C_2   0.123282 0.496356 0.373120 0.442969
H22   H     H_    0.092871 0.437209 0.343858 0.103562
O10   O     O_2   0.039526 0.538045 0.378840 -0.520538

loop_
_geom_bond_atom_site_label_1
_geom_bond_atom_site_label_2
_ccdc_geom_bond_type
C18   N2    A    
C38   C40   S    
C33   H7    S    
C34   C37   S    
Cu2   O6    S    
C44   H18   S    
Cu2   N1    S    
C17   N1    A    
C12   H20   S    
C5    C9    A    
C33   C39   S    
C34   C40   S    
C15   H5    S    
C28   C29   A    
C35   C37   S    
C48   O10   D    
C15   C25   A    
C39   H9    S    
C31   C47   S    
C42   C46   A    
C47   H21   S    
C44   C46   A    
C35   H1    S    
C7    C43   A    
C9    C10   A    
C2    O4    A    
C34   H8    S    
C21   C27   A    
C22   C28   A    
C27   C30   A    
C20   N2    A    
Cu2   O2    S    
C2    O2    A    
C17   H4    S    
C11   H19   S    
C18   H3    S    
C16   C26   A    
C40   H10   S    
C4    C6    A    
C23   O5    A    
C5    C7    A    
C48   H22   S    
C24   O6    A    
C6    C8    A    
C4    H13   S    
Cu2   O7    S    
C30   F4    S    
Cu1   N2    S    
C29   F3    S    
Cu1   Cu2   S    
C43   H17   S    
C32   C48   S    
C24   C37   S    
C16   C18   A    
C1    O1    A    
C23   O7    A    
C43   C45   A    
Cu1   O1    S    
C1    C41   S    
C47   O9    D    
C12   C14   A    
C19   N1    A    
C36   H2    S    
C25   C31   A    
C3    H14   S    
C24   O8    A    
C15   C17   A    
C21   C25   A    
C3    C41   A    
C8    C14   A    
C20   F1    S    
C19   C21   A    
Cu2   O3    S    
C36   C39   S    
C8    C44   A    
Cu1   O4    S    
C20   C22   A    
C3    C5    A    
C6    C10   A    
C13   H11   S    
C23   C38   S    
C14   H12   S    
C45   H16   S    
C33   C38   S    
C46   H15   S    
C1    O3    A    
C36   C38   S    
C35   C40   S    
Cu1   O5    S    
C37   C39   S    
C30   C32   A    
C11   C13   A    
C4    C42   A    
C2    C42   S    
C33   C35   S    
C34   C36   S    
C19   F2    S    
C9    C12   A    
C16   H6    S    
C10   C11   A    
C7    C13   A    
C29   C31   A    
C22   C26   A    
C27   C28   A    
C41   C45   A    
Cu1   O8    S    
C26   C32   A    
