data_mof_unit_39796.cif
_audit_creation_date              2012-12-11T14:30:01-0500
_audit_creation_method            fapswitch 2.2
_symmetry_space_group_name_H-M    P1
_symmetry_Int_Tables_number       1
_space_group_crystal_system       monoclinic
_cell_length_a                    12.614859
_cell_length_b                    12.614858
_cell_length_c                    26.99164
_cell_angle_alpha                 90.0
_cell_angle_beta                  90.0
_cell_angle_gamma                 120.00022
_cell_volume                      3719.83527651

loop_
_atom_site_label
_atom_site_type_symbol
_atom_type_description
_atom_site_fract_x
_atom_site_fract_y
_atom_site_fract_z
_atom_type_partial_charge
C1    C     C_R   0.557485 0.457004 0.822080 0.544953
C2    C     C_R   0.899520 0.442515 0.677920 0.544952
C3    C     C_R   0.542995 0.100481 0.822080 0.544952
C4    C     C_R   0.557485 0.457004 0.677920 0.544953
C5    C     C_R   0.899520 0.442515 0.822080 0.544952
C6    C     C_R   0.542995 0.100481 0.677920 0.544953
C7    C     C_R   0.457004 0.557485 0.322080 0.544953
C8    C     C_R   0.442515 0.899519 0.177920 0.544952
C9    C     C_R   0.100480 0.542995 0.322080 0.544952
C10   C     C_R   0.457004 0.557485 0.177920 0.544953
C11   C     C_R   0.442515 0.899519 0.322080 0.544952
C12   C     C_R   0.100480 0.542996 0.177920 0.544952
C13   C     C_R   0.995488 0.499805 0.974015 0.021744
C14   C     C_R   0.504317 0.004513 0.525985 0.021744
C15   C     C_R   0.500195 0.495683 0.974015 0.021744
C16   C     C_R   0.995488 0.499804 0.525985 0.021744
C17   C     C_R   0.504317 0.004512 0.974015 0.021744
C18   C     C_R   0.500196 0.495683 0.525985 0.021744
C19   C     C_R   0.499804 0.995488 0.474015 0.021744
C20   C     C_R   0.004513 0.504317 0.025985 0.021744
C21   C     C_R   0.495683 0.500196 0.474015 0.021744
C22   C     C_R   0.499804 0.995487 0.025985 0.021744
C23   C     C_R   0.004513 0.504317 0.474015 0.021744
C24   C     C_R   0.495683 0.500196 0.025985 0.021744
C25   C     C_R   0.991095 0.690332 0.974298 -0.118062
C26   C     C_R   0.699236 0.008904 0.525702 -0.118062
C27   C     C_R   0.309667 0.300762 0.974298 -0.118062
C28   C     C_R   0.991095 0.690332 0.525701 -0.118062
C29   C     C_R   0.699237 0.008904 0.974298 -0.118063
C30   C     C_R   0.309667 0.300762 0.525702 -0.118063
C31   C     C_R   0.690332 0.991095 0.474299 -0.118062
C32   C     C_R   0.008903 0.699236 0.025702 -0.118062
C33   C     C_R   0.300763 0.309667 0.474298 -0.118062
C34   C     C_R   0.690332 0.991096 0.025701 -0.118062
C35   C     C_R   0.008904 0.699236 0.474298 -0.118063
C36   C     C_R   0.300763 0.309667 0.025702 -0.118063
C37   C     C_R   0.962115 0.577948 0.896942 -0.197435
C38   C     C_R   0.615832 0.037884 0.603058 -0.197435
C39   C     C_R   0.422052 0.384167 0.896942 -0.197435
C40   C     C_R   0.962115 0.577948 0.603057 -0.197435
C41   C     C_R   0.615832 0.037884 0.896942 -0.197435
C42   C     C_R   0.422052 0.384167 0.603057 -0.197435
C43   C     C_R   0.577947 0.962115 0.396943 -0.197435
C44   C     C_R   0.037884 0.615832 0.103057 -0.197434
C45   C     C_R   0.384167 0.422052 0.396942 -0.197435
C46   C     C_R   0.577947 0.962115 0.103057 -0.197435
C47   C     C_R   0.037884 0.615832 0.396942 -0.197435
C48   C     C_R   0.384167 0.422052 0.103057 -0.197435
C49   C     C_R   0.041610 0.520586 0.128727 -0.015472
C50   C     C_R   0.478976 0.958390 0.371273 -0.015472
C51   C     C_R   0.479414 0.521024 0.128727 -0.015472
C52   C     C_R   0.041610 0.520586 0.371273 -0.015472
C53   C     C_R   0.478976 0.958390 0.128727 -0.015472
C54   C     C_R   0.479414 0.521024 0.371273 -0.015472
C55   C     C_R   0.520586 0.041610 0.628727 -0.015472
C56   C     C_R   0.958390 0.478976 0.871273 -0.015472
C57   C     C_R   0.521024 0.479414 0.628727 -0.015472
C58   C     C_R   0.520586 0.041610 0.871273 -0.015472
C59   C     C_R   0.958390 0.478976 0.628727 -0.015472
C60   C     C_R   0.521024 0.479414 0.871273 -0.015472
C61   C     C_R   0.984829 0.591137 0.948102 0.001592
C62   C     C_R   0.606307 0.015170 0.551898 0.001593
C63   C     C_R   0.408862 0.393692 0.948102 0.001593
C64   C     C_R   0.984829 0.591137 0.551898 0.001593
C65   C     C_R   0.606307 0.015170 0.948102 0.001592
C66   C     C_R   0.408862 0.393692 0.551898 0.001593
C67   C     C_R   0.591137 0.984829 0.448102 0.001592
C68   C     C_R   0.015170 0.606307 0.051898 0.001593
C69   C     C_R   0.393692 0.408862 0.448102 0.001593
C70   C     C_R   0.591137 0.984829 0.051898 0.001592
C71   C     C_R   0.015170 0.606307 0.448102 0.001593
C72   C     C_R   0.393692 0.408862 0.051898 0.001593
C73   C     C_R   0.990196 0.400177 0.896411 0.265582
C74   C     C_R   0.409981 0.009805 0.603588 0.265582
C75   C     C_R   0.599823 0.590019 0.896411 0.265582
C76   C     C_R   0.990196 0.400177 0.603589 0.265582
C77   C     C_R   0.409981 0.009805 0.896411 0.265583
C78   C     C_R   0.599824 0.590019 0.603589 0.265582
C79   C     C_R   0.400177 0.990196 0.396411 0.265583
C80   C     C_R   0.009806 0.409981 0.103588 0.265583
C81   C     C_R   0.590019 0.599824 0.396411 0.265582
C82   C     C_R   0.400177 0.990195 0.103589 0.265583
C83   C     C_R   0.009805 0.409981 0.396411 0.265583
C84   C     C_R   0.590019 0.599824 0.103589 0.265583
C85   C     C_R   0.996706 0.403391 0.948099 0.028288
C86   C     C_R   0.406686 0.003295 0.551901 0.028288
C87   C     C_R   0.596609 0.593315 0.948099 0.028288
C88   C     C_R   0.996706 0.403391 0.551901 0.028288
C89   C     C_R   0.406685 0.003295 0.948099 0.028288
C90   C     C_R   0.596610 0.593315 0.551901 0.028288
C91   C     C_R   0.403391 0.996705 0.448099 0.028288
C92   C     C_R   0.003296 0.406686 0.051900 0.028288
C93   C     C_R   0.593315 0.596610 0.448099 0.028288
C94   C     C_R   0.403390 0.996705 0.051901 0.028288
C95   C     C_R   0.003296 0.406685 0.448099 0.028288
C96   C     C_R   0.593314 0.596610 0.051900 0.028288
C97   C     C_R   0.999774 0.308953 0.025683 -0.133544
C98   C     C_R   0.309181 0.000229 0.474317 -0.133544
C99   C     C_R   0.691048 0.690820 0.025683 -0.133544
C100  C     C_R   0.999773 0.308953 0.474317 -0.133544
C101  C     C_R   0.309181 0.000228 0.025683 -0.133544
C102  C     C_R   0.691048 0.690820 0.474317 -0.133545
C103  C     C_R   0.308953 0.999772 0.525683 -0.133544
C104  C     C_R   0.000230 0.309182 0.974317 -0.133544
C105  C     C_R   0.690820 0.691048 0.525683 -0.133544
C106  C     C_R   0.308952 0.999772 0.974317 -0.133544
C107  C     C_R   0.000229 0.309181 0.525683 -0.133544
C108  C     C_R   0.690819 0.691049 0.974317 -0.133544
Cr1   Cr    Cr6+3 0.487630 0.241180 0.750000 1.043549
Cr2   Cr    Cr6+3 0.753550 0.512370 0.750000 1.043549
Cr3   Cr    Cr6+3 0.758820 0.246450 0.750000 1.043548
Cr4   Cr    Cr6+3 0.241180 0.487630 0.250000 1.043549
Cr5   Cr    Cr6+3 0.512370 0.753550 0.250000 1.043549
Cr6   Cr    Cr6+3 0.246450 0.758820 0.250000 1.043549
H1    H     H_    0.057997 0.699264 0.122319 0.150285
H2    H     H_    0.641267 0.942002 0.377681 0.150285
H3    H     H_    0.300735 0.358732 0.122319 0.150285
H4    H     H_    0.057997 0.699264 0.377681 0.150285
H5    H     H_    0.641267 0.942002 0.122319 0.150285
H6    H     H_    0.300734 0.358732 0.377681 0.150285
H7    H     H_    0.699264 0.057997 0.622319 0.150285
H8    H     H_    0.942002 0.641267 0.877681 0.150285
H9    H     H_    0.358732 0.300734 0.622319 0.150285
H10   H     H_    0.699265 0.057997 0.877681 0.150285
H11   H     H_    0.942002 0.641267 0.622319 0.150285
H12   H     H_    0.358732 0.300734 0.877681 0.150285
H13   H     H_    0.016475 0.778033 0.045016 0.108498
H14   H     H_    0.761557 0.983523 0.454984 0.108498
H15   H     H_    0.221966 0.238441 0.045016 0.108498
H16   H     H_    0.016475 0.778033 0.454984 0.108498
H17   H     H_    0.761557 0.983524 0.045016 0.108498
H18   H     H_    0.221965 0.238442 0.454984 0.108498
H19   H     H_    0.778033 0.016476 0.545016 0.108498
H20   H     H_    0.983522 0.761557 0.954984 0.108498
H21   H     H_    0.238442 0.221965 0.545016 0.108498
H22   H     H_    0.778033 0.016476 0.954984 0.108498
H23   H     H_    0.983523 0.761557 0.545016 0.108498
H24   H     H_    0.238442 0.221965 0.954984 0.108498
H25   H     H_    0.000245 0.233559 0.044686 0.149314
H26   H     H_    0.233316 0.999759 0.455313 0.149314
H27   H     H_    0.766442 0.766686 0.044686 0.149313
H28   H     H_    0.000243 0.233558 0.455314 0.149314
H29   H     H_    0.233316 0.999758 0.044686 0.149314
H30   H     H_    0.766443 0.766685 0.455313 0.149314
H31   H     H_    0.233558 0.000243 0.544686 0.149314
H32   H     H_    0.999760 0.233317 0.955313 0.149314
H33   H     H_    0.766685 0.766443 0.544686 0.149314
H34   H     H_    0.233558 0.000242 0.955314 0.149314
H35   H     H_    0.999759 0.233317 0.544687 0.149314
H36   H     H_    0.766684 0.766443 0.955313 0.149314
O1    O     O_R   0.460870 0.120930 0.805240 -0.453137
O2    O     O_R   0.660060 0.539130 0.694760 -0.453137
O3    O     O_R   0.879070 0.339940 0.805240 -0.453136
O4    O     O_R   0.460870 0.120930 0.694760 -0.453136
O5    O     O_R   0.660060 0.539130 0.805240 -0.453136
O6    O     O_R   0.879070 0.339940 0.694760 -0.453136
O7    O     O_R   0.120930 0.460870 0.305240 -0.453137
O8    O     O_R   0.539130 0.660060 0.194760 -0.453137
O9    O     O_R   0.339940 0.879070 0.305240 -0.453136
O10   O     O_R   0.120930 0.460870 0.194760 -0.453136
O11   O     O_R   0.539130 0.660060 0.305240 -0.453137
O12   O     O_R   0.339940 0.879070 0.194760 -0.453136
O13   O     O_R   0.498910 0.350470 0.801870 -0.511946
O14   O     O_R   0.851560 0.501090 0.698130 -0.511946
O15   O     O_R   0.649530 0.148440 0.801870 -0.511946
O16   O     O_R   0.498910 0.350470 0.698130 -0.511946
O17   O     O_R   0.851560 0.501090 0.801870 -0.511946
O18   O     O_R   0.649530 0.148440 0.698130 -0.511946
O19   O     O_R   0.350470 0.498910 0.301870 -0.511946
O20   O     O_R   0.501090 0.851560 0.198130 -0.511946
O21   O     O_R   0.148440 0.649530 0.301870 -0.511946
O22   O     O_R   0.350470 0.498910 0.198130 -0.511946
O23   O     O_R   0.501090 0.851560 0.301870 -0.511946
O24   O     O_R   0.148440 0.649530 0.198130 -0.511946
O25   O     O_3   0.666667 0.333333 0.750000 -0.251608
O26   O     O_3   0.333333 0.666667 0.250000 -0.251609
O27   O     O_3   0.998278 0.309117 0.128769 -0.555705
C109  C     C_3   0.875492 0.237628 0.144139 -0.127296
H37   H     H_    0.864556 0.155003 0.163347 0.142145
H38   H     H_    0.811794 0.206113 0.111925 0.113565
H39   H     H_    0.850133 0.288572 0.170818 0.106791
O28   O     O_3   0.310842 0.001725 0.371230 -0.555705
C110  C     C_3   0.362140 0.124510 0.355860 -0.127295
H40   H     H_    0.438444 0.149868 0.329181 0.106791
H41   H     H_    0.394324 0.188208 0.388074 0.113565
H42   H     H_    0.290453 0.135448 0.336652 0.142144
O29   O     O_3   0.690883 0.689160 0.128769 -0.555705
C111  C     C_3   0.762371 0.637863 0.144139 -0.127296
H43   H     H_    0.844996 0.709551 0.163347 0.142145
H44   H     H_    0.793886 0.605681 0.111925 0.113565
H45   H     H_    0.711426 0.561560 0.170819 0.106791
O30   O     O_3   0.998277 0.309117 0.371231 -0.555705
C112  C     C_3   0.875491 0.237628 0.355861 -0.127295
H46   H     H_    0.850133 0.288573 0.329181 0.106791
H47   H     H_    0.811794 0.206113 0.388075 0.113565
H48   H     H_    0.864555 0.155003 0.336653 0.142145
O31   O     O_3   0.310841 0.001724 0.128770 -0.555705
C113  C     C_3   0.362140 0.124510 0.144139 -0.127295
H49   H     H_    0.290452 0.135447 0.163347 0.142145
H50   H     H_    0.394323 0.188207 0.111925 0.113565
H51   H     H_    0.438443 0.149868 0.170819 0.106790
O32   O     O_3   0.690884 0.689160 0.371231 -0.555705
C114  C     C_3   0.762371 0.637862 0.355861 -0.127295
H52   H     H_    0.711426 0.561559 0.329181 0.106791
H53   H     H_    0.793886 0.605679 0.388074 0.113564
H54   H     H_    0.844996 0.709550 0.336653 0.142145
O33   O     O_3   0.309116 0.998277 0.628769 -0.555705
C115  C     C_3   0.237628 0.875491 0.644139 -0.127295
H55   H     H_    0.288573 0.850133 0.670819 0.106791
H56   H     H_    0.206113 0.811793 0.611926 0.113565
H57   H     H_    0.155003 0.864554 0.663347 0.142145
O34   O     O_3   0.001726 0.310843 0.871230 -0.555705
C116  C     C_3   0.124511 0.362142 0.855860 -0.127295
H58   H     H_    0.135449 0.290454 0.836652 0.142145
H59   H     H_    0.188210 0.394327 0.888073 0.113564
H60   H     H_    0.149867 0.438444 0.829180 0.106791
O35   O     O_3   0.689160 0.690884 0.628769 -0.555705
C117  C     C_3   0.637862 0.762371 0.644139 -0.127296
H61   H     H_    0.561559 0.711425 0.670819 0.106791
H62   H     H_    0.605679 0.793886 0.611926 0.113565
H63   H     H_    0.709550 0.844996 0.663347 0.142145
O36   O     O_3   0.309116 0.998276 0.871231 -0.555705
C118  C     C_3   0.237628 0.875490 0.855861 -0.127296
H64   H     H_    0.155003 0.864554 0.836653 0.142145
H65   H     H_    0.206113 0.811793 0.888074 0.113565
H66   H     H_    0.288573 0.850133 0.829181 0.106791
O37   O     O_3   0.001725 0.310842 0.628770 -0.555705
C119  C     C_3   0.124511 0.362140 0.644140 -0.127296
H67   H     H_    0.149868 0.438444 0.670819 0.106790
H68   H     H_    0.188208 0.394324 0.611926 0.113565
H69   H     H_    0.135448 0.290453 0.663348 0.142145
O38   O     O_3   0.689159 0.690884 0.871230 -0.555705
C120  C     C_3   0.637862 0.762371 0.855860 -0.127295
H70   H     H_    0.709549 0.844996 0.836652 0.142145
H71   H     H_    0.605678 0.793886 0.888074 0.113564
H72   H     H_    0.561558 0.711425 0.829181 0.106790

loop_
_geom_bond_atom_site_label_1
_geom_bond_atom_site_label_2
_ccdc_geom_bond_type
C44   C49   A    
C114  H52   S    
C103  H31   S    
C82   C94   A    
C18   C21   A    
C101  H29   S    
C73   O34   S    
C118  H64   S    
C6    C55   S    
C50   C79   A    
C119  H68   S    
C12   C49   S    
C118  H66   S    
C11   O9    A    
C9    C52   S    
Cr2   O25   S    
C78   C90   A    
C31   C67   A    
C99   C108  A    
C114  H53   S    
C77   C89   A    
C30   H21   S    
C111  H45   S    
Cr3   O25   S    
C32   H13   S    
C12   O24   A    
Cr1   O1    S    
C41   C58   A    
Cr2   O2    S    
C110  H41   S    
C78   O35   S    
C21   C69   A    
C109  H38   S    
Cr6   O12   S    
C10   C51   S    
C10   O22   A    
C98   C103  A    
C105  H33   S    
C96   C99   A    
C41   H10   S    
C106  H34   S    
C102  C105  A    
C111  H44   S    
C84   C96   A    
C1    O5    A    
O28   C110  S    
Cr2   O5    S    
C5    C56   S    
C58   C77   A    
C37   C56   A    
C48   C51   A    
C38   C55   A    
O37   C119  S    
C94   C101  A    
C23   C95   A    
C115  H55   S    
C112  H47   S    
C89   C106  A    
C42   H9    S    
C120  H71   S    
C19   C67   A    
C113  H49   S    
Cr3   O15   S    
Cr5   O8    S    
C120  H70   S    
C34   C70   A    
C79   C91   A    
C30   C33   A    
C33   C69   A    
C32   C68   A    
C25   C32   A    
Cr6   O26   S    
C35   C71   A    
C26   C31   A    
C40   C59   A    
C76   O37   S    
C22   C94   A    
C79   O28   S    
O31   C113  S    
C7    O11   A    
C102  H30   S    
C31   H14   S    
C48   C72   A    
C86   C103  A    
C14   C19   A    
C42   C57   A    
C119  H67   S    
C30   C66   A    
C8    O20   A    
C92   C97   A    
C109  H37   S    
C81   O32   S    
C74   O33   S    
C44   H1    S    
C24   C72   A    
Cr6   O21   S    
C4    O2    A    
C114  H54   S    
C6    O18   A    
C11   O23   A    
C27   H24   S    
O32   C114  S    
C87   C108  A    
C45   C69   A    
O33   C115  S    
C18   C90   A    
C104  H32   S    
C83   O30   S    
C17   C89   A    
C14   C86   A    
C82   O31   S    
Cr4   O7    S    
C1    C60   S    
C2    O14   A    
C88   C107  A    
Cr2   O14   S    
C2    C59   S    
C41   C65   A    
O35   C117  S    
C116  H58   S    
C29   C34   A    
C12   O10   A    
C76   C88   A    
C98   H26   S    
C53   C82   A    
C47   H4    S    
C80   C92   A    
C52   C83   A    
C110  H40   S    
C43   C67   A    
C109  H39   S    
C25   H20   S    
C23   C71   A    
C43   H2    S    
C81   C93   A    
Cr2   O17   S    
O29   C111  S    
C117  H62   S    
Cr4   O19   S    
C9    O7    A    
C112  H48   S    
C83   C95   A    
C113  H51   S    
C118  H65   S    
C25   C61   A    
C74   C86   A    
Cr1   O4    S    
Cr3   O3    S    
C35   H16   S    
C47   C71   A    
C47   C52   A    
C85   C104  A    
C27   C63   A    
Cr5   O26   S    
C29   C65   A    
C39   C60   A    
C28   C64   A    
C45   H6    S    
C75   C87   A    
C15   C24   A    
Cr4   O26   S    
C34   H17   S    
C112  H46   S    
C20   C92   A    
C11   C50   S    
C7    O19   A    
Cr1   O13   S    
C108  H36   S    
C44   C68   A    
C18   C66   A    
C22   C70   A    
C3    O15   A    
C117  H63   S    
Cr5   O23   S    
Cr3   O6    S    
C116  H60   S    
C101  C106  A    
C28   C35   A    
C10   O8    A    
C33   H18   S    
C54   C81   A    
C100  C107  A    
C2    O6    A    
C56   C73   A    
Cr4   O10   S    
C13   C20   A    
C95   C100  A    
C93   C102  A    
C3    O1    A    
C57   C78   A    
C20   C68   A    
C19   C91   A    
C42   C66   A    
C28   H23   S    
C90   C105  A    
C8    C53   S    
C45   C54   A    
Cr5   O20   S    
C37   C61   A    
Cr1   O25   S    
C43   C50   A    
C99   H27   S    
C48   H3    S    
Cr3   O18   S    
C27   C36   A    
C16   C23   A    
C39   C63   A    
C60   C75   A    
C17   C65   A    
C17   C22   A    
C40   C64   A    
C49   C80   A    
C97   C104  A    
C110  H42   S    
O30   C112  S    
C24   C96   A    
C26   C62   A    
C116  H59   S    
C73   C85   A    
C55   C74   A    
C26   H19   S    
C100  H28   S    
C36   H15   S    
C80   O27   S    
C6    O4    A    
C117  H61   S    
Cr4   O22   S    
C21   C93   A    
C115  H57   S    
C5    O3    A    
C40   H11   S    
C59   C76   A    
C46   C53   A    
O38   C120  S    
C4    O16   A    
C46   H5    S    
C5    O17   A    
C91   C98   A    
C75   O38   S    
O36   C118  S    
C120  H72   S    
Cr6   O9    S    
C46   C70   A    
C38   H7    S    
C9    O21   A    
Cr1   O16   S    
Cr5   O11   S    
C37   H8    S    
C107  H35   S    
C3    C58   S    
C77   O36   S    
Cr6   O24   S    
C29   H22   S    
C13   C61   A    
O34   C116  S    
C1    O13   A    
C115  H56   S    
O27   C109  S    
C15   C87   A    
C13   C85   A    
C39   H12   S    
C15   C63   A    
C111  H43   S    
C84   O29   S    
C113  H50   S    
C8    O12   A    
C16   C64   A    
C7    C54   S    
C51   C84   A    
C97   H25   S    
C119  H69   S    
C16   C88   A    
C36   C72   A    
C4    C57   S    
C38   C62   A    
C14   C62   A    
