data_mof_unit_27956.cif
_audit_creation_date              2012-12-10T17:49:37-0500
_audit_creation_method            fapswitch 2.2
_symmetry_space_group_name_H-M    P1
_symmetry_Int_Tables_number       1
_space_group_crystal_system       triclinic
_cell_length_a                    14.705179
_cell_length_b                    14.683949
_cell_length_c                    15.875238
_cell_angle_alpha                 77.009714
_cell_angle_beta                  102.866297
_cell_angle_gamma                 114.954947
_cell_volume                      2996.49710039

loop_
_atom_site_label
_atom_site_type_symbol
_atom_type_description
_atom_site_fract_x
_atom_site_fract_y
_atom_site_fract_z
_atom_type_partial_charge
C1    C     C_R   0.880193 0.312100 0.515166 0.793815
C2    C     C_3   0.098037 0.485075 0.071281 -0.140154
C3    C     C_3   0.003430 0.501416 0.083275 0.226289
C4    C     C_3   0.001249 0.602288 0.027853 -0.355804
C5    C     C_3   0.002928 0.603083 0.930491 -0.360174
C6    C     C_1   0.002105 0.500804 0.175400 -0.088736
C7    C     C_1   0.000708 0.501186 0.824882 -0.094097
C8    C     C_1   0.999897 0.500813 0.749226 -0.169262
C9    C     C_R   0.812612 0.204111 0.528922 -0.052324
C10   C     C_R   0.187586 0.795534 0.486513 -0.086513
C11   C     C_R   0.785121 0.026468 0.564912 -0.132059
C12   C     C_R   0.999865 0.500174 0.659667 0.827838
C13   C     C_R   0.850703 0.128017 0.550857 -0.202859
C14   C     C_R   0.708373 0.177535 0.520965 -0.234908
C15   C     C_R   0.640571 0.075911 0.538035 0.074898
C16   C     C_R   0.679919 0.998694 0.560140 0.084330
C17   C     C_R   0.534462 0.049575 0.530250 0.074968
C18   C     C_R   0.467407 0.946245 0.532151 0.059553
C19   C     C_R   0.508469 0.871097 0.557668 -0.266729
C20   C     C_R   0.612957 0.895887 0.574438 -0.024769
C21   C     C_R   0.493271 0.123115 0.521938 -0.227451
C22   C     C_R   0.389420 0.096937 0.509509 -0.202338
C23   C     C_R   0.119825 0.687899 0.486555 0.810680
C24   C     C_R   0.321850 0.996750 0.502843 0.142005
C25   C     C_R   0.360857 0.920879 0.512249 0.062200
C26   C     C_R   0.215874 0.970990 0.486993 0.161625
C27   C     C_R   0.149641 0.870039 0.479781 -0.226363
C28   C     C_R   0.292142 0.822098 0.499625 -0.237605
C29   C     C_R   0.719477 0.672806 0.358299 -0.270838
C30   C     C_R   0.798667 0.639982 0.379501 0.075147
C31   C     C_R   0.714041 0.509455 0.487137 0.026281
C32   C     C_R   0.629612 0.538106 0.468059 -0.021399
C33   C     C_R   0.635276 0.624610 0.403883 0.089298
C34   C     C_R   0.000300 0.500038 0.340350 0.831831
C35   C     C_R   0.541233 0.484659 0.510819 0.097792
C36   C     C_R   0.459742 0.518764 0.488974 0.084242
C37   C     C_R   0.470081 0.606458 0.426787 -0.222512
C38   C     C_R   0.556365 0.660114 0.385681 0.012413
C39   C     C_R   0.531344 0.397821 0.574521 -0.229325
C40   C     C_R   0.446241 0.347323 0.616526 -0.201698
C41   C     C_R   0.366758 0.380110 0.596391 0.166958
C42   C     C_R   0.371259 0.465283 0.531751 -0.003272
C43   C     C_R   0.282088 0.327587 0.640222 -0.315515
C44   C     C_R   0.201636 0.358755 0.619414 0.083063
C45   C     C_3   0.098133 0.488140 0.972538 -0.421102
C46   C     C_R   0.285733 0.492010 0.512696 0.026878
C47   C     C_3   0.906967 0.413171 0.950476 -0.375638
C48   C     C_3   0.907327 0.413534 0.048087 -0.400646
C49   C     C_1   0.001223 0.500372 0.250841 -0.144156
C50   C     C_3   0.002087 0.501320 0.917305 0.291855
Cu1   Cu    Cu3+1 0.081750 0.475690 0.522550 0.951728
Cu2   Cu    Cu3+1 0.918250 0.524310 0.477450 0.943227
H1    H     H_    0.090219 0.407408 0.104936 0.135412
H2    H     H_    0.166909 0.550953 0.948950 0.190601
H3    H     H_    0.931265 0.610657 0.033910 0.164522
H4    H     H_    0.318486 0.764308 0.498196 0.159599
H5    H     H_    0.068505 0.849530 0.470005 0.157392
H6    H     H_    0.362589 0.156628 0.503972 0.179452
H7    H     H_    0.817858 0.970411 0.577542 0.174187
H8    H     H_    0.931121 0.146769 0.555965 0.154886
H9    H     H_    0.681369 0.237728 0.498637 0.150274
H10   H     H_    0.100090 0.416219 0.962902 0.158681
H11   H     H_    0.460418 0.791706 0.570958 0.166480
H12   H     H_    0.539445 0.201639 0.528057 0.139495
H13   H     H_    0.280228 0.552787 0.462267 0.129584
H14   H     H_    0.135752 0.317701 0.652536 0.126880
H15   H     H_    0.442503 0.281382 0.665234 0.144135
H16   H     H_    0.724897 0.735228 0.305712 0.174012
H17   H     H_    0.863897 0.678714 0.345344 0.130242
H18   H     H_    0.718292 0.447966 0.537241 0.119094
H19   H     H_    0.837061 0.420876 0.911210 0.172292
H20   H     H_    0.413343 0.638195 0.411129 0.146284
H21   H     H_    0.588242 0.366300 0.593943 0.125380
H22   H     H_    0.277865 0.262393 0.689910 0.139703
H23   H     H_    0.905287 0.339140 0.942254 0.170031
H24   H     H_    0.904698 0.339257 0.086536 0.171599
H25   H     H_    0.837875 0.422029 0.055459 0.179987
H26   H     H_    0.071861 0.667378 0.908816 0.185348
H27   H     H_    0.935890 0.615730 0.889905 0.166154
H28   H     H_    0.066050 0.668900 0.052158 0.206681
N1    N     N_R   0.795410 0.560790 0.443550 -0.179057
N2    N     N_R   0.204590 0.439170 0.556520 -0.180921
O1    O     O_R   0.977910 0.338120 0.529720 -0.589124
O2    O     O_R   0.839850 0.379180 0.491640 -0.591561
O3    O     O_R   0.069060 0.479460 0.639610 -0.575661
O4    O     O_R   0.931000 0.520530 0.601530 -0.576793
O5    O     O_R   0.160150 0.620820 0.508360 -0.589487
O6    O     O_R   0.022090 0.661880 0.470280 -0.588867
O7    O     O_R   0.069000 0.479470 0.398470 -0.566595
O8    O     O_R   0.930940 0.520540 0.360390 -0.580959
C51   C     C_2   0.197806 0.557914 0.113139 0.856745
O9    O     O_2   0.230864 0.648307 0.083558 -0.585083
O10   O     O_R   0.252429 0.520662 0.185996 -0.760217
H29   H     H_    0.317571 0.575919 0.208737 0.357021
C52   C     C_2   0.648698 0.811904 0.609090 0.838843
O11   O     O_2   0.604230 0.731002 0.580762 -0.599702
O12   O     O_R   0.729936 0.823343 0.676981 -0.777101
H30   H     H_    0.746049 0.760407 0.695369 0.333989
N3    N     N_3   0.175912 0.047101 0.479286 -0.594454
H31   H     H_    0.097449 0.017562 0.459923 0.222928
H32   H     H_    0.187990 0.066297 0.541566 0.208990
C53   C     C_2   0.563087 0.756671 0.327444 0.828331
O13   O     O_2   0.489521 0.760490 0.274974 -0.591378
O14   O     O_R   0.651656 0.844376 0.335537 -0.766599
H33   H     H_    0.646117 0.905541 0.293426 0.337663

loop_
_geom_bond_atom_site_label_1
_geom_bond_atom_site_label_2
_ccdc_geom_bond_type
C10   C27   A    
O10   H29   S    
C41   C42   A    
C45   H10   S    
Cu2   O8    S    
C52   O11   D    
C9    C14   A    
C3    C6    S    
Cu1   O3    S    
O12   H30   S    
C28   H4    S    
C7    C8    T    
C13   H8    S    
C25   C28   A    
C26   C27   A    
C37   C38   A    
C12   O3    A    
C36   C37   A    
C24   C26   A    
C4    H28   S    
C44   N2    A    
C15   C16   A    
C29   C33   A    
C3    C48   S    
C18   C19   A    
C42   C46   A    
Cu2   O2    S    
C9    C13   A    
C21   H12   S    
C46   N2    A    
C44   H14   S    
C31   H18   S    
N3    H31   S    
C19   H11   S    
C40   H15   S    
C5    H27   S    
C16   C20   A    
C26   N3    S    
C43   H22   S    
C23   O5    A    
C21   C22   A    
C41   C43   A    
C53   O13   D    
C18   C25   A    
C11   H7    S    
O14   H33   S    
C47   C50   S    
C2    C45   S    
Cu1   Cu2   S    
C32   C35   A    
Cu2   O6    S    
C1    C9    S    
C24   C25   A    
C46   H13   S    
C27   H5    S    
Cu1   O5    S    
C51   O9    D    
C14   H9    S    
C17   C21   A    
C1    O2    A    
C35   C36   A    
C48   H25   S    
C35   C39   A    
C43   C44   A    
C34   O8    A    
C29   C30   A    
C51   O10   S    
C29   H16   S    
C11   C16   A    
C47   C48   S    
C8    C12   S    
C17   C18   A    
C53   O14   S    
Cu1   N2    S    
C47   H19   S    
C40   C41   A    
N3    H32   S    
C20   C52   S    
C45   H2    S    
C23   O6    A    
C4    H3    S    
C22   C24   A    
C5    C50   S    
C3    C4    S    
Cu1   O1    S    
C39   C40   A    
C30   H17   S    
C10   C28   A    
C15   C17   A    
C34   C49   S    
C31   C32   A    
C7    C50   S    
C4    C5    S    
C2    H1    S    
C36   C42   A    
C22   H6    S    
C52   O12   S    
C10   C23   S    
C1    O1    A    
C33   C38   A    
C31   N1    A    
Cu2   N1    S    
C12   O4    A    
C32   C33   A    
C19   C20   A    
Cu2   O4    S    
C2    C3    S    
C34   O7    A    
C47   H23   S    
C38   C53   S    
Cu1   O7    S    
C11   C13   A    
C45   C50   S    
C30   N1    A    
C39   H21   S    
C6    C49   T    
C2    C51   S    
C48   H24   S    
C37   H20   S    
C14   C15   A    
C5    H26   S    
