data_mof_unit_23305.cif
_audit_creation_date              2012-10-26T21:00:41-0400
_audit_creation_method            fapswitch 2.2
_symmetry_space_group_name_H-M    P1
_symmetry_Int_Tables_number       1
_space_group_crystal_system       triclinic
_cell_length_a                    10.776402
_cell_length_b                    9.540364
_cell_length_c                    10.882368
_cell_angle_alpha                 91.821254
_cell_angle_beta                  91.794283
_cell_angle_gamma                 90.537859
_cell_volume                      1117.65109152

loop_
_atom_site_label
_atom_site_type_symbol
_atom_type_description
_atom_site_fract_x
_atom_site_fract_y
_atom_site_fract_z
_atom_type_partial_charge
Br1   Br    Br    0.143985 0.320699 0.271391 -0.444265
Br2   Br    Br    0.835192 0.321236 0.272342 -0.442231
Br3   Br    Br    0.301803 0.832672 0.311869 -0.432608
Br4   Br    Br    0.704966 0.850460 0.679496 -0.524343
C1    C     C_R   0.262270 0.499284 0.496828 0.580678
C2    C     C_R   0.488389 0.502994 0.737248 0.541011
C3    C     C_R   0.616349 0.726656 0.126804 -0.053795
C4    C     C_R   0.506647 0.769149 0.897565 -0.047989
C5    C     C_R   0.625222 0.857679 0.074873 -0.088132
C6    C     C_R   0.565244 0.880516 0.962773 -0.088411
C7    C     C_R   0.508577 0.631606 0.943168 0.021957
C8    C     C_R   0.546717 0.616181 0.066604 0.021831
C9    C     C_R   0.514312 0.492123 0.126532 0.021270
C10   C     C_R   0.471873 0.510211 0.871636 -0.008831
C11   C     C_R   0.468951 0.372711 0.056258 0.010597
C12   C     C_R   0.737596 0.500298 0.498084 0.582257
C13   C     C_R   0.438463 0.386405 0.930588 -0.003399
C14   C     C_R   0.060523 0.420288 0.400983 0.192626
C15   C     C_R   0.930652 0.421252 0.401015 0.178408
C16   C     C_R   0.871189 0.500431 0.492850 0.000178
C17   C     C_R   0.128308 0.498346 0.492756 0.012734
C18   C     C_3   0.457423 0.229542 0.112458 -0.341959
C19   C     C_3   0.358061 0.275338 0.862731 -0.353530
C20   C     C_R   0.939722 0.579456 0.581728 -0.142001
C21   C     C_R   0.067896 0.578973 0.581363 -0.155581
C22   C     C_R   0.418645 0.071915 0.426289 0.025996
C23   C     C_R   0.581388 0.079068 0.573707 0.039417
C24   C     C_R   0.418594 0.923890 0.424978 0.248458
C25   C     C_R   0.582157 0.931131 0.573969 0.231866
C26   C     C_R   0.507453 0.497381 0.262018 0.578922
Cu1   Cu    Cu3+1 0.500000 0.640660 0.500000 1.054602
Cu2   Cu    Cu3+1 0.500000 0.359340 0.500000 0.989596
H1    H     H_    0.665282 0.712574 0.213777 0.153564
H2    H     H_    0.545082 0.203694 0.162714 0.174623
H3    H     H_    0.378008 0.227724 0.174229 0.192773
H4    H     H_    0.284728 0.236866 0.923138 0.158672
H5    H     H_    0.306939 0.318481 0.782456 0.152162
H6    H     H_    0.415893 0.186116 0.831465 0.138108
H7    H     H_    0.456334 0.794758 0.814220 0.155773
H8    H     H_    0.675594 0.942402 0.123262 0.147599
H9    H     H_    0.566542 0.983834 0.924535 0.126207
H10   H     H_    0.894114 0.638794 0.653249 0.189287
H11   H     H_    0.120232 0.639426 0.651690 0.142341
H12   H     H_    0.353285 0.126085 0.367980 0.170729
H13   H     H_    0.646568 0.139018 0.632493 0.160147
H14   H     H_    0.442772 0.142588 0.043883 0.114608
N1    N     N_R   0.500000 0.852070 0.500000 -0.222246
N2    N     N_R   0.500000 0.147940 0.500000 -0.277699
O1    O     O_R   0.319640 0.618740 0.499990 -0.464489
O2    O     O_R   0.680360 0.618740 0.500010 -0.463377
O3    O     O_R   0.319620 0.381170 0.499990 -0.494513
O4    O     O_R   0.680380 0.381170 0.500010 -0.475924
O5    O     O_R   0.500000 0.618810 0.319650 -0.476345
O6    O     O_R   0.500000 0.618810 0.680350 -0.494211
O7    O     O_R   0.499970 0.381240 0.319640 -0.498820
O8    O     O_R   0.500030 0.381240 0.680360 -0.514297

loop_
_geom_bond_atom_site_label_1
_geom_bond_atom_site_label_2
_ccdc_geom_bond_type
C23   N2    A    
C12   O2    A    
Br4   C25   S    
C18   H14   S    
C7    C8    A    
C24   N1    A    
C11   C13   A    
C4    H7    S    
C2    C10   S    
C14   C17   A    
Cu2   N2    S    
C26   O7    A    
Cu2   O7    S    
C22   C24   A    
Cu1   Cu2   S    
C22   N2    A    
C12   C16   S    
C21   H11   S    
C22   H12   S    
Cu2   O3    S    
Cu1   N1    S    
Cu2   O4    S    
Cu1   O5    S    
C6    H9    S    
C18   H3    S    
C3    H1    S    
C10   C13   A    
C1    O1    A    
Br1   C14   S    
C13   C19   S    
Cu1   O1    S    
C4    C7    A    
Br3   C24   S    
C26   O5    A    
C11   C18   S    
C25   N1    A    
C2    O6    A    
C9    C11   A    
Cu1   O6    S    
C3    C8    A    
C18   H2    S    
C7    C10   A    
C23   C25   A    
C23   H13   S    
Cu1   O2    S    
C19   H6    S    
C16   C20   A    
C9    C26   S    
C20   H10   S    
C20   C21   A    
C4    C6    A    
C19   H4    S    
C5    C6    A    
C12   O4    A    
C3    C5    A    
C17   C21   A    
C14   C15   A    
C8    C9    A    
Br2   C15   S    
C19   H5    S    
Cu2   O8    S    
C5    H8    S    
C1    O3    A    
C15   C16   A    
C2    O8    A    
C1    C17   S    
