data_mof_unit_17584.cif
_audit_creation_date              2012-12-10T18:18:27-0500
_audit_creation_method            fapswitch 2.2
_symmetry_space_group_name_H-M    P1
_symmetry_Int_Tables_number       1
_space_group_crystal_system       triclinic
_cell_length_a                    14.008774
_cell_length_b                    15.019749
_cell_length_c                    15.496026
_cell_angle_alpha                 89.968063
_cell_angle_beta                  68.066327
_cell_angle_gamma                 90.02316
_cell_volume                      3024.48632061

loop_
_atom_site_label
_atom_site_type_symbol
_atom_type_description
_atom_site_fract_x
_atom_site_fract_y
_atom_site_fract_z
_atom_type_partial_charge
C1    C     C_R   0.500054 0.673520 0.499810 0.898208
C2    C     C_R   0.500041 0.769360 0.499560 -0.102001
C3    C     C_R   0.419026 0.184931 0.488619 -0.211294
C4    C     C_R   0.580907 0.815092 0.511523 -0.211229
C5    C     C_R   0.418600 0.092933 0.488357 0.065679
C6    C     C_R   0.581276 0.907094 0.511889 0.065555
C7    C     C_R   0.500218 0.046387 0.500370 0.013738
C8    C     C_R   0.499635 0.953641 0.499919 0.013745
C9    C     C_R   0.582277 0.092646 0.512788 0.028862
C10   C     C_R   0.417566 0.907383 0.487517 0.028907
C11   C     C_R   0.337719 0.047207 0.476070 -0.244915
C12   C     C_R   0.499936 0.326485 0.500212 0.896105
C13   C     C_R   0.662129 0.952823 0.524228 -0.244296
C14   C     C_R   0.336535 0.954736 0.475534 0.380661
C15   C     C_R   0.663281 0.045296 0.524819 0.380492
C16   C     C_R   0.436126 0.497929 0.676169 0.880733
C17   C     C_R   0.563884 0.498569 0.323769 0.877901
C18   C     C_R   0.175420 0.449852 0.564028 -0.060916
C19   C     C_R   0.824578 0.550159 0.436023 -0.061651
C20   C     C_R   0.228244 0.550145 0.436047 -0.041351
C21   C     C_R   0.771710 0.449834 0.563986 -0.037031
C22   C     C_R   0.128294 0.551210 0.434405 0.011173
C23   C     C_R   0.374455 0.437268 0.104510 -0.222703
C24   C     C_R   0.871639 0.448774 0.565696 0.015586
C25   C     C_R   0.050587 0.499964 0.500039 0.087306
C26   C     C_R   0.949365 0.499997 0.500050 0.087200
C27   C     C_R   0.074040 0.448738 0.565695 0.017510
C28   C     C_R   0.925920 0.551256 0.434406 0.015207
C29   C     C_R   0.104301 0.602098 0.369061 -0.174370
C30   C     C_R   0.895590 0.397976 0.631139 -0.176428
C31   C     C_R   0.003988 0.602127 0.369067 -0.192496
C32   C     C_R   0.995925 0.397947 0.631121 -0.192005
C33   C     C_R   0.397474 0.483630 0.776652 -0.062032
C34   C     C_R   0.619612 0.422329 0.899183 -0.216533
C35   C     C_R   0.602136 0.484268 0.223285 -0.063381
C36   C     C_R   0.260325 0.461525 0.926221 -0.192573
C37   C     C_R   0.736209 0.447034 0.075970 -0.190958
C38   C     C_R   0.292251 0.477980 0.830926 -0.192163
C39   C     C_R   0.706106 0.468198 0.170179 -0.189714
C40   C     C_R   0.469820 0.469898 0.817370 -0.254828
C41   C     C_R   0.529296 0.478293 0.182099 -0.251562
C42   C     C_R   0.439977 0.449951 0.911514 0.094602
C43   C     C_R   0.556461 0.451518 0.090070 0.094007
C44   C     C_R   0.333498 0.449456 0.967209 0.173917
C45   C     C_R   0.301892 0.439187 0.063154 -0.226086
C46   C     C_R   0.662142 0.439545 0.035296 0.173590
C47   C     C_R   0.514001 0.437528 0.952448 0.071261
C48   C     C_R   0.481202 0.441916 0.050163 0.068459
C49   C     C_R   0.692175 0.421668 0.940640 -0.224068
C50   C     C_R   0.580896 0.185089 0.512736 -0.191756
C51   C     C_R   0.418979 0.814939 0.487508 -0.191543
C52   C     C_R   0.499900 0.230658 0.500565 -0.099593
Cl1   Cl    Cl    0.231908 0.901645 0.459644 -0.611136
Cl2   Cl    Cl    0.767841 0.098397 0.540821 -0.612673
H1    H     H_    0.220809 0.436507 0.106782 0.151830
H2    H     H_    0.012399 0.358220 0.682264 0.145876
H3    H     H_    0.450916 0.496773 0.222588 0.156370
H4    H     H_    0.550131 0.478494 0.775117 0.158716
H5    H     H_    0.763550 0.471690 0.201301 0.157966
H6    H     H_    0.235137 0.487107 0.800089 0.156654
H7    H     H_    0.178713 0.459674 0.968060 0.137347
H8    H     H_    0.817075 0.436513 0.034994 0.137535
H9    H     H_    0.345107 0.430056 0.179234 0.153047
H10   H     H_    0.647791 0.408507 0.825518 0.140935
H11   H     H_    0.642388 0.222182 0.522399 0.210908
H12   H     H_    0.772402 0.410358 0.897840 0.147155
H13   H     H_    0.357476 0.777850 0.477860 0.211308
H14   H     H_    0.356550 0.220841 0.478992 0.165263
H15   H     H_    0.643422 0.779181 0.521078 0.166069
H16   H     H_    0.275258 0.083429 0.466838 0.189271
H17   H     H_    0.724592 0.916604 0.533457 0.189810
H18   H     H_    0.195155 0.410896 0.613797 0.130385
H19   H     H_    0.804862 0.589152 0.386270 0.131590
H20   H     H_    0.288912 0.589384 0.386398 0.138127
H21   H     H_    0.711027 0.410590 0.613622 0.132696
H22   H     H_    0.163082 0.641871 0.317973 0.157416
H23   H     H_    0.836768 0.358305 0.682323 0.149557
H24   H     H_    0.987484 0.641935 0.317994 0.149262
N1    N     N_R   0.249980 0.499930 0.499960 -0.102946
N2    N     N_R   0.750020 0.500070 0.500040 -0.102637
O1    O     O_R   0.419720 0.632140 0.499980 -0.617550
O2    O     O_R   0.580280 0.367860 0.500020 -0.619497
O3    O     O_R   0.580270 0.632160 0.499970 -0.620855
O4    O     O_R   0.419730 0.367840 0.500030 -0.622674
O5    O     O_R   0.373870 0.499980 0.632250 -0.616830
O6    O     O_R   0.626130 0.500020 0.367750 -0.617491
O7    O     O_R   0.534420 0.500000 0.632240 -0.624371
O8    O     O_R   0.465580 0.500000 0.367760 -0.625162
Zn1   Zn    Zn3+2 0.392800 0.499980 0.500010 0.953638
Zn2   Zn    Zn3+2 0.607200 0.500020 0.499990 0.954165

loop_
_geom_bond_atom_site_label_1
_geom_bond_atom_site_label_2
_ccdc_geom_bond_type
C23   C45   A    
C22   C29   A    
C17   O8    A    
C2    C4    A    
C3    H14   S    
C37   H8    S    
C11   H16   S    
C7    C8    A    
C29   H22   S    
C46   C49   A    
C43   C46   A    
C24   C26   A    
C5    C11   A    
C11   C14   A    
C1    O1    A    
C12   O4    A    
C1    C2    S    
C30   H23   S    
C18   N1    A    
C22   C25   A    
C16   O7    A    
C50   C52   A    
C43   C48   A    
O1    Zn1   S    
C40   C42   A    
C41   C43   A    
C42   C44   A    
C10   C51   A    
C4    H15   S    
C12   C52   S    
C18   H18   S    
C33   C40   A    
C40   H4    S    
C49   H12   S    
C18   C27   A    
C12   O2    A    
C17   O6    A    
C15   Cl2   S    
C19   H19   S    
C4    C6    A    
O6    Zn2   S    
C5    C7    A    
O5    Zn1   S    
C6    C8    A    
C13   H17   S    
C25   C26   A    
C35   C39   A    
C16   C33   S    
C47   C48   A    
C29   C31   A    
C39   H5    S    
C34   H10   S    
C20   H20   S    
C51   H13   S    
C19   C28   A    
C38   H6    S    
C20   C22   A    
C13   C15   A    
C10   C14   A    
C16   O5    A    
C36   C44   A    
C1    O3    A    
O4    Zn1   S    
C21   C24   A    
C36   H7    S    
C44   C45   A    
C31   H24   S    
C7    C9    A    
O3    Zn2   S    
C34   C49   A    
C23   C48   A    
C20   N1    A    
C27   C32   A    
C28   C31   A    
C9    C50   A    
C3    C5    A    
C3    C52   A    
C25   C27   A    
C21   H21   S    
C26   C28   A    
C33   C38   A    
O2    Zn2   S    
C36   C38   A    
C9    C15   A    
C41   H3    S    
C37   C39   A    
C6    C13   A    
C30   C32   A    
C21   N2    A    
C23   H9    S    
C42   C47   A    
N2    Zn2   S    
C19   N2    A    
C35   C41   A    
C50   H11   S    
C24   C30   A    
N1    Zn1   S    
C2    C51   A    
C14   Cl1   S    
O8    Zn1   S    
C45   H1    S    
C8    C10   A    
O7    Zn2   S    
C34   C47   A    
C17   C35   S    
C37   C46   A    
C32   H2    S    
