data_mof_unit_6124.cif
_audit_creation_date              2012-12-11T15:39:22-0500
_audit_creation_method            fapswitch 2.2
_symmetry_space_group_name_H-M    P1
_symmetry_Int_Tables_number       1
_space_group_crystal_system       triclinic
_cell_length_a                    14.335702
_cell_length_b                    14.796238
_cell_length_c                    33.176736
_cell_angle_alpha                 97.556514
_cell_angle_beta                  90.343721
_cell_angle_gamma                 118.919734
_cell_volume                      6086.54027589

loop_
_atom_site_label
_atom_site_type_symbol
_atom_type_description
_atom_site_fract_x
_atom_site_fract_y
_atom_site_fract_z
_atom_type_partial_charge
C1    C     C_R   0.617152 0.910219 0.437082 0.542166
C2    C     C_R   0.712246 0.437736 0.949238 0.533358
C3    C     C_R   0.658152 0.791524 0.769876 -0.170559
C4    C     C_R   0.654314 0.816790 0.731275 -0.139395
C5    C     C_R   0.660797 0.755181 0.696736 -0.020755
C6    C     C_R   0.668326 0.665745 0.701224 -0.099068
C7    C     C_R   0.675807 0.641691 0.740377 0.283044
C8    C     C_R   0.669798 0.704885 0.774836 0.031135
C9    C     C_R   0.581389 0.719221 0.625404 -0.116751
C10   C     C_R   0.569361 0.756296 0.590172 -0.126068
C11   C     C_R   0.720586 0.926288 0.615359 -0.127097
C12   C     C_3   0.231236 0.639933 0.353733 -0.121514
C13   C     C_R   0.742614 0.716931 0.945653 0.566351
C14   C     C_3   0.078931 0.558896 0.613911 -0.139296
C15   C     C_3   0.797744 0.587092 0.744747 -0.105875
C16   C     C_R   0.831126 0.442261 0.165545 -0.119347
C17   C     C_R   0.828486 0.454434 0.124651 -0.125533
C18   C     C_R   0.784113 0.359825 0.247222 -0.115320
C19   C     C_R   0.777043 0.347241 0.288168 -0.111457
C20   C     C_R   0.735510 0.398696 0.314692 0.033788
C21   C     C_R   0.707282 0.467771 0.300165 -0.113415
C22   C     C_R   0.713866 0.479908 0.259201 -0.113844
C23   C     C_R   0.749163 0.423490 0.232236 0.029868
C24   C     C_R   0.743951 0.427152 0.188264 0.032199
C25   C     C_R   0.607994 0.347258 0.368766 -0.118947
C26   C     C_R   0.594152 0.205719 0.456660 0.544296
C27   C     C_R   0.572967 0.299590 0.403285 -0.127199
C28   C     C_R   0.741729 0.301867 0.413495 -0.124516
C29   C     C_R   0.776853 0.349841 0.379027 -0.115928
C30   C     C_R   0.708697 0.369272 0.355522 0.034051
C31   C     C_R   0.637938 0.272780 0.424996 0.021998
C32   C     C_R   0.243955 0.878790 0.393364 0.035460
C33   C     C_R   0.248922 0.967133 0.379603 -0.179639
C34   C     C_R   0.224845 0.965194 0.338706 -0.136083
C35   C     C_R   0.731634 0.889579 0.650711 -0.119261
C36   C     C_R   0.193043 0.874420 0.310943 -0.003083
C37   C     C_R   0.179095 0.783359 0.324445 -0.100652
C38   C     C_R   0.295240 0.892724 0.434400 0.564576
C39   C     C_R   0.206374 0.784693 0.365649 0.280449
C40   C     C_R   0.193645 0.806642 0.163465 -0.113238
C41   C     C_R   0.166598 0.785538 0.121541 -0.125599
C42   C     C_R   0.090251 0.901073 0.129411 -0.128660
C43   C     C_R   0.116907 0.921623 0.171445 -0.114697
C44   C     C_R   0.165011 0.871325 0.188608 0.039189
C45   C     C_1   0.175022 0.876629 0.231999 -0.028403
C46   C     C_R   0.660280 0.786780 0.656475 0.033559
C47   C     C_1   0.182054 0.876510 0.268126 -0.026608
C48   C     C_R   0.110264 0.828817 0.104369 0.020449
C49   C     C_R   0.638550 0.878265 0.395737 0.021490
C50   C     C_R   0.614139 0.904850 0.551527 0.542107
C51   C     C_R   0.555330 0.796138 0.369212 -0.133682
C52   C     C_R   0.567141 0.782991 0.327459 -0.120942
C53   C     C_R   0.662479 0.851007 0.312039 0.040363
C54   C     C_R   0.748479 0.927554 0.338559 -0.113622
C55   C     C_R   0.736808 0.941040 0.380239 -0.124467
C56   C     C_R   0.778350 0.918037 0.174995 -0.115063
C57   C     C_R   0.637019 0.861078 0.585375 0.021702
C58   C     C_R   0.793635 0.905840 0.133531 -0.128935
C59   C     C_R   0.618040 0.751871 0.121480 -0.125512
C60   C     C_R   0.602882 0.764423 0.162861 -0.115166
C61   C     C_R   0.684521 0.845202 0.189800 0.039969
C62   C     C_R   0.589685 0.199335 0.570902 0.543116
C63   C     C_1   0.675858 0.847475 0.232826 -0.033691
C64   C     C_1   0.669550 0.848099 0.268926 -0.033732
C65   C     C_R   0.715401 0.819884 0.106720 0.021728
C66   C     C_R   0.622694 0.249241 0.613887 0.022367
C67   C     C_R   0.557364 0.280077 0.636505 -0.133084
C68   C     C_R   0.052186 0.781296 0.063749 0.544486
C69   C     C_R   0.572976 0.302546 0.678977 -0.092671
C70   C     C_R   0.653992 0.294686 0.699196 0.045349
C71   C     C_R   0.724389 0.271872 0.676885 -0.121804
C72   C     C_R   0.709190 0.249641 0.634396 -0.122965
C73   C     C_R   0.761141 0.342549 0.845159 -0.120920
C74   C     C_R   0.288842 0.886673 0.548436 0.548721
C75   C     C_R   0.771703 0.370359 0.887461 -0.128801
C76   C     C_R   0.592140 0.347121 0.885366 -0.128807
C77   C     C_R   0.581816 0.319277 0.843075 -0.106165
C78   C     C_R   0.667642 0.320581 0.822867 0.043584
C79   C     C_R   0.744027 0.486951 0.066280 0.546187
C80   C     C_1   0.663461 0.309427 0.779257 -0.020404
C81   C     C_1   0.660001 0.302905 0.742739 -0.017600
C82   C     C_R   0.689048 0.377553 0.907792 0.021535
C83   C     C_R   0.058777 0.748593 0.906424 0.024577
C84   C     C_R   0.089284 0.844687 0.893252 -0.138938
C85   C     C_R   0.100959 0.853590 0.852086 -0.123439
C86   C     C_R   0.738378 0.451224 0.105979 0.020718
C87   C     C_R   0.081900 0.766403 0.823546 0.031601
C88   C     C_R   0.056869 0.671847 0.837089 -0.123447
C89   C     C_R   0.046144 0.663207 0.878238 -0.120205
C90   C     C_R   0.742864 0.789152 0.066412 0.553203
C91   C     C_R   0.132316 0.723988 0.754889 -0.126822
C92   C     C_R   0.138282 0.731752 0.713631 -0.079732
C93   C     C_R   0.097341 0.788197 0.696317 0.063099
C94   C     C_R   0.048654 0.835507 0.720734 -0.131163
C95   C     C_R   0.042991 0.828059 0.762184 -0.136329
C96   C     C_R   0.085805 0.773058 0.779647 0.019030
C97   C     C_R   0.176711 0.913927 0.648051 -0.174040
C98   C     C_R   0.648605 0.429055 0.128156 -0.124100
C99   C     C_R   0.225834 0.938993 0.612122 -0.148639
C100  C     C_R   0.153833 0.754781 0.586488 -0.113819
C101  C     C_R   0.020287 0.731368 0.947017 0.533940
C102  C     C_R   0.104785 0.728298 0.623024 0.286161
C103  C     C_R   0.120468 0.809473 0.654440 0.047009
C104  C     C_R   0.219231 0.859814 0.582088 -0.018664
C105  C     C_R   0.722837 0.703011 0.900983 0.015319
C106  C     C_R   0.626578 0.624447 0.879564 -0.132630
C107  C     C_R   0.610322 0.619766 0.837400 -0.092074
C108  C     C_R   0.690727 0.692566 0.816574 0.056344
C109  C     C_R   0.788706 0.766114 0.837519 -0.129364
C110  C     C_R   0.651570 0.417478 0.168983 -0.119974
C111  C     C_R   0.804815 0.770957 0.879172 -0.121504
Cr1   Cr    Cr6+3 0.424820 0.846020 0.489780 1.027678
Cr2   Cr    Cr6+3 0.657880 0.078580 0.505700 1.008275
Cr3   Cr    Cr6+3 0.417280 0.075360 0.504550 1.008436
Cr4   Cr    Cr6+3 0.903360 0.812540 0.006510 1.004097
Cr5   Cr    Cr6+3 0.914630 0.587050 0.006280 1.004435
Cr6   Cr    Cr6+3 0.673560 0.582680 0.008540 1.008957
H1    H     H_    0.577851 0.425653 0.114593 0.128841
H2    H     H_    0.046141 0.934925 0.117153 0.124058
H3    H     H_    0.898992 0.471657 0.108344 0.127827
H4    H     H_    0.234945 0.035800 0.328494 0.119253
H5    H     H_    0.869636 0.959052 0.123115 0.120014
H6    H     H_    0.841863 0.980964 0.195755 0.103644
H7    H     H_    0.822786 0.980075 0.326813 0.106553
H8    H     H_    0.802553 0.004665 0.399898 0.127718
H9    H     H_    0.478957 0.746416 0.380285 0.124877
H10   H     H_    0.529830 0.708000 0.174122 0.103301
H11   H     H_    0.556288 0.685096 0.101521 0.120954
H12   H     H_    0.492733 0.278369 0.411513 0.124406
H13   H     H_    0.500356 0.723090 0.307053 0.097459
H14   H     H_    0.847469 0.393600 0.903750 0.123547
H15   H     H_    0.855477 0.367644 0.369735 0.109991
H16   H     H_    0.827963 0.343674 0.829683 0.100018
H17   H     H_    0.787900 0.266515 0.692373 0.100754
H18   H     H_    0.760963 0.226272 0.617908 0.123733
H19   H     H_    0.490352 0.280853 0.621638 0.123693
H20   H     H_    0.509086 0.302274 0.825963 0.109829
H21   H     H_    0.527158 0.352197 0.900004 0.124544
H22   H     H_    0.518817 0.321268 0.696105 0.129031
H23   H     H_    0.902943 0.449417 0.179893 0.103126
H24   H     H_    0.099206 0.911499 0.914485 0.115601
H25   H     H_    0.020787 0.587673 0.887472 0.124288
H26   H     H_    0.797981 0.292376 0.298448 0.102978
H27   H     H_    0.179460 0.697663 0.695622 0.121784
H28   H     H_    0.167470 0.682635 0.767688 0.102542
H29   H     H_    0.122566 0.927951 0.842457 0.104511
H30   H     H_    0.017281 0.879935 0.707886 0.106220
H31   H     H_    0.005208 0.865231 0.780540 0.096614
H32   H     H_    0.190009 0.976769 0.672205 0.114623
H33   H     H_    0.275168 0.020583 0.609141 0.139045
H34   H     H_    0.794120 0.283371 0.430024 0.124773
H35   H     H_    0.040660 0.603125 0.815658 0.098207
H36   H     H_    0.144187 0.694307 0.561943 0.121310
H37   H     H_    0.563052 0.569463 0.895479 0.124344
H38   H     H_    0.811445 0.315585 0.226861 0.103152
H39   H     H_    0.880824 0.830483 0.894616 0.134985
H40   H     H_    0.793427 0.942647 0.674364 0.103768
H41   H     H_    0.646973 0.885203 0.728337 0.122745
H42   H     H_    0.655364 0.841672 0.796221 0.122736
H43   H     H_    0.533947 0.562771 0.821449 0.116437
H44   H     H_    0.672594 0.617204 0.674646 0.124683
H45   H     H_    0.183064 0.729679 0.103017 0.123861
H46   H     H_    0.525406 0.639797 0.629429 0.105623
H47   H     H_    0.504609 0.704100 0.567419 0.120075
H48   H     H_    0.851220 0.822935 0.821831 0.098161
H49   H     H_    0.582446 0.403253 0.185807 0.104994
H50   H     H_    0.773955 0.007258 0.612549 0.122956
H51   H     H_    0.676606 0.509474 0.320177 0.106731
H52   H     H_    0.688827 0.531349 0.248311 0.109400
H53   H     H_    0.553339 0.360401 0.350961 0.101907
H54   H     H_    0.305924 0.692584 0.340307 0.097248
H55   H     H_    0.168320 0.585640 0.329341 0.109673
H56   H     H_    0.231257 0.767671 0.176523 0.106117
H57   H     H_    0.250334 0.591800 0.371583 0.136324
H58   H     H_    0.167074 0.596079 0.620739 0.099264
H59   H     H_    0.056713 0.531977 0.580680 0.123747
H60   H     H_    0.041545 0.488543 0.629199 0.138645
H61   H     H_    0.844208 0.648164 0.771259 0.131184
H62   H     H_    0.830549 0.614657 0.715696 0.137413
H63   H     H_    0.808297 0.518811 0.747714 0.148941
H64   H     H_    0.149875 0.712549 0.302566 0.104059
H65   H     H_    0.277818 0.040385 0.399978 0.138401
H66   H     H_    0.094505 0.971888 0.190735 0.105465
O1    O     O_R   0.318160 0.824460 0.443680 -0.459556
O2    O     O_R   0.668160 0.499860 0.053480 -0.517052
O3    O     O_R   0.689170 0.693840 0.050110 -0.494856
O4    O     O_R   0.525040 0.857250 0.449830 -0.503634
O5    O     O_R   0.803860 0.812940 0.962540 -0.513361
O6    O     O_R   0.982950 0.787950 0.964120 -0.523571
O7    O     O_R   0.007050 0.649970 0.960540 -0.517714
O8    O     O_R   0.807910 0.482370 0.965590 -0.504514
O9    O     O_R   0.643310 0.460980 0.963840 -0.527095
O10   O     O_R   0.666140 0.657800 0.967020 -0.499099
O11   O     O_3   0.830520 0.660760 0.007110 -0.259319
O12   O     O_R   0.645130 0.163230 0.552140 -0.502457
O13   O     O_R   0.684760 0.998800 0.456360 -0.518479
O14   O     O_R   0.647540 0.166310 0.470260 -0.500992
O15   O     O_R   0.500960 0.181750 0.467450 -0.520941
O16   O     O_R   0.331100 0.981120 0.457080 -0.517523
O17   O     O_R   0.315560 0.821140 0.532010 -0.518361
O18   O     O_R   0.522630 0.854180 0.531710 -0.501359
O19   O     O_R   0.682160 0.995480 0.544690 -0.520046
O20   O     O_3   0.192851 0.695339 0.380133 -0.544290
O21   O     O_3   0.038031 0.625449 0.628887 -0.566621
O22   O     O_3   0.688018 0.556322 0.744788 -0.575510
O23   O     O_R   0.498360 0.178430 0.555780 -0.519485
O24   O     O_R   0.328690 0.978040 0.538950 -0.498559
O25   O     O_3   0.499990 0.999990 0.500010 -0.239536
O26   O     O_R   0.828710 0.851830 0.052170 -0.515212
O27   O     O_R   0.005980 0.823990 0.047210 -0.501167
O28   O     O_R   0.031900 0.688850 0.050170 -0.514888
O29   O     O_R   0.830940 0.518420 0.048680 -0.498307

loop_
_geom_bond_atom_site_label_1
_geom_bond_atom_site_label_2
_ccdc_geom_bond_type
C100  H36   S    
C69   H22   S    
C11   H50   S    
C87   C88   A    
C60   H10   S    
C93   C94   A    
C98   C110  A    
C15   H62   S    
C88   H35   S    
C95   C96   A    
C9    C46   A    
C7    O22   S    
C68   O27   A    
C65   C90   S    
C93   C103  S    
Cr1   O4    S    
C107  H43   S    
C7    C8    A    
Cr1   O1    S    
C25   H53   S    
C20   C30   S    
C77   C78   A    
C108  C109  A    
C15   H63   S    
C14   H58   S    
C21   H51   S    
C92   H27   S    
C5    C6    A    
C62   O12   A    
C74   C104  S    
C28   C29   A    
C77   H20   S    
Cr5   O28   S    
C39   O20   S    
Cr6   O3    S    
C109  C111  A    
C40   H56   S    
C53   C64   S    
C78   C80   S    
C42   H2    S    
C12   O20   S    
C29   H15   S    
C106  C107  A    
C89   H25   S    
C100  C104  A    
C38   O1    A    
Cr3   O24   S    
C36   C47   S    
C9    H46   S    
C18   C19   A    
C32   C39   A    
C11   C57   A    
C61   C63   S    
C26   O14   A    
C102  O21   S    
C14   H59   S    
Cr6   O11   S    
C17   H3    S    
C91   C96   A    
C84   C85   A    
C4    H41   S    
C55   H8    S    
C56   C58   A    
C16   C17   A    
C49   C51   A    
C14   O21   S    
C19   H26   S    
C107  C108  A    
C70   C71   A    
C32   C38   S    
C79   O2    A    
C9    C10   A    
Cr5   O11   S    
C1    O4    A    
C99   C104  A    
C105  C111  A    
C26   C31   S    
C16   C24   A    
C13   O5    A    
C13   O10   A    
C41   H45   S    
C3    H42   S    
Cr2   O12   S    
C16   H23   S    
Cr1   O18   S    
C71   H17   S    
C86   C98   A    
C8    C108  S    
C97   C99   A    
C75   H14   S    
C98   H1    S    
C12   H54   S    
C74   O24   A    
C50   O19   A    
C79   O29   A    
C83   C89   A    
C99   H33   S    
C66   C72   A    
C58   H5    S    
C62   C66   S    
C85   C87   A    
C27   C31   A    
C51   C52   A    
C22   H52   S    
C56   H6    S    
Cr2   O14   S    
C1    O13   A    
C24   C110  A    
C76   C77   A    
Cr1   O25   S    
C13   C105  S    
C3    C8    A    
C76   C82   A    
C91   C92   A    
Cr4   O26   S    
C4    C5    A    
C72   H18   S    
C90   O3    A    
C106  H37   S    
C59   H11   S    
C53   C54   A    
C18   C23   A    
C60   C61   A    
C67   C69   A    
C43   C44   A    
C35   H40   S    
C29   C30   A    
Cr6   O9    S    
C97   C103  A    
C58   C65   A    
C83   C84   A    
C6    H44   S    
C40   C44   A    
C73   C78   A    
C37   H64   S    
C87   C96   S    
C10   C57   A    
C100  C102  A    
C33   C34   A    
C94   C95   A    
C42   C48   A    
Cr2   O19   S    
C48   C68   S    
C15   O22   S    
C5    C46   S    
C109  H48   S    
C85   H29   S    
C40   C41   A    
Cr5   O8    S    
C73   H16   S    
C101  O7    A    
C34   H4    S    
C17   C86   A    
C27   H12   S    
Cr2   O13   S    
C2    C82   S    
C42   C43   A    
C73   C75   A    
C3    C4    A    
C91   H28   S    
C44   C45   S    
C12   H55   S    
C12   H57   S    
C111  H39   S    
C50   O18   A    
C25   C30   A    
C54   H7    S    
C54   C55   A    
C36   C37   A    
C10   H47   S    
C83   C101  S    
Cr4   O27   S    
C20   C21   A    
C56   C61   A    
C50   C57   S    
Cr4   O11   S    
C28   C31   A    
C95   H31   S    
C94   H30   S    
C2    O9    A    
C80   C81   T    
C51   H9    S    
C90   O26   A    
C75   C82   A    
C6    C7    A    
Cr2   O25   S    
C76   H21   S    
C25   C27   A    
Cr1   O17   S    
C105  C106  A    
C35   C46   A    
C101  O6    A    
Cr3   O16   S    
C52   H13   S    
C32   C33   A    
C19   C20   A    
C11   C35   A    
C67   H19   S    
C71   C72   A    
C37   C39   A    
C49   C55   A    
C59   C65   A    
Cr4   O5    S    
C110  H49   S    
C74   O17   A    
C84   H24   S    
Cr5   O7    S    
C43   H66   S    
C92   C93   A    
C41   C48   A    
Cr3   O25   S    
C66   C67   A    
C34   C36   A    
C102  C103  A    
C26   O15   A    
C69   C70   A    
C14   H60   S    
Cr6   O10   S    
C38   O16   A    
C23   C24   S    
C63   C64   T    
Cr4   O6    S    
Cr3   O23   S    
C59   C60   A    
C45   C47   T    
C88   C89   A    
C28   H34   S    
Cr5   O29   S    
Cr3   O15   S    
C15   H61   S    
C33   H65   S    
C97   H32   S    
C22   C23   A    
Cr6   O2    S    
C70   C81   S    
C21   C22   A    
C68   O28   A    
C1    C49   S    
C2    O8    A    
C62   O23   A    
C79   C86   S    
C18   H38   S    
C52   C53   A    
