data_mof_unit_52411.cif
_audit_creation_date              2013-03-05T15:49:06-0500
_audit_creation_method            fapswitch 2.2
_symmetry_space_group_name_H-M    P1
_symmetry_Int_Tables_number       1
_space_group_crystal_system       triclinic
_cell_length_a                    22.213158
_cell_length_b                    7.22545
_cell_length_c                    19.517067
_cell_angle_alpha                 89.994158
_cell_angle_beta                  98.529538
_cell_angle_gamma                 90.005099
_cell_volume                      3097.84363411

loop_
_atom_site_label
_atom_site_type_symbol
_atom_site_description
_atom_site_fract_x
_atom_site_fract_y
_atom_site_fract_z
_atom_type_partial_charge
O1    O     O_R   0.448470 0.506130 0.415700 -0.584201
O2    O     O_R   0.551530 0.006130 0.584300 -0.584157
O3    O     O_R   0.436320 0.174490 0.555800 -0.562563
O4    O     O_R   0.563680 0.674490 0.444200 -0.562278
C1    C     C_R   0.423251 0.343872 0.577628 1.020407
C2    C     C_R   0.576743 0.843895 0.422368 1.020138
O5    O     O_R   0.441350 0.176340 0.414480 -0.580882
O6    O     O_R   0.558650 0.676340 0.585520 -0.580869
O7    O     O_R   0.556600 0.007100 0.441970 -0.573229
O8    O     O_R   0.443400 0.507100 0.558030 -0.573299
C3    C     C_R   0.425479 0.345329 0.390613 0.959816
C4    C     C_R   0.574518 0.845325 0.609389 0.959679
O9    O     O_3   0.537810 0.339550 0.509190 -0.271618
O10   O     O_3   0.462190 0.839550 0.490810 -0.271767
V1    V     V_3+5 0.492990 0.064280 0.498300 1.273708
V2    V     V_3+5 0.507010 0.564280 0.501700 1.273848
C5    C     C_R   0.878287 0.901686 0.698911 0.415892
C6    C     C_R   0.121711 0.401679 0.301094 0.415755
H1    H     H_    0.962927 0.917501 0.767790 0.162899
H2    H     H_    0.037071 0.417495 0.232214 0.163226
C7    C     C_R   0.886924 0.938179 0.823038 -0.140222
C8    C     C_R   0.113075 0.438168 0.176964 -0.140511
C9    C     C_R   0.592122 0.840222 0.735787 -0.154191
C10   C     C_R   0.407873 0.340303 0.264216 -0.154764
C11   C     C_R   0.627603 0.848184 0.800386 -0.054099
C12   C     C_R   0.372393 0.348306 0.199618 -0.054154
C13   C     C_R   0.690297 0.870807 0.806500 -0.130367
C14   C     C_R   0.309701 0.370910 0.193506 -0.129988
C15   C     C_R   0.720068 0.886932 0.747461 0.095249
C16   C     C_R   0.279929 0.386969 0.252543 0.095064
C17   C     C_R   0.683563 0.876885 0.680268 -0.095065
C18   C     C_R   0.316434 0.376895 0.319736 -0.095019
C19   C     C_R   0.785151 0.907512 0.753720 0.057011
C20   C     C_R   0.214848 0.407524 0.246285 0.056979
C21   C     C_R   0.813502 0.907844 0.692808 -0.213344
C22   C     C_R   0.186495 0.407838 0.307197 -0.213285
C23   C     C_R   0.776855 0.915886 0.627412 0.262074
C24   C     C_R   0.223143 0.415863 0.372592 0.262045
C25   C     C_R   0.713496 0.893101 0.621287 0.192991
C26   C     C_R   0.286502 0.393077 0.378716 0.193005
C27   C     C_R   0.823409 0.927801 0.818748 -0.179502
C28   C     C_R   0.176588 0.427803 0.181255 -0.179328
C29   C     C_R   0.913707 0.921966 0.763542 -0.243961
C30   C     C_R   0.086291 0.421958 0.236462 -0.243587
C31   C     C_R   0.618332 0.854243 0.675184 -0.135786
C32   C     C_R   0.381664 0.354264 0.324819 -0.135698
H3    H     H_    0.805625 0.937160 0.867042 0.100808
H4    H     H_    0.194372 0.437160 0.132961 0.100989
C33   C     C_3   0.774112 0.824057 0.309076 -0.210842
C34   C     C_3   0.226150 0.320309 0.691431 -0.212652
C35   C     C_3   0.792981 0.008581 0.276773 -0.055784
C36   C     C_3   0.206378 0.505447 0.722492 -0.053370
H5    H     H_    0.705640 0.201932 0.267371 0.187366
H6    H     H_    0.292729 0.702675 0.730368 0.186671
C37   C     C_1   0.874900 0.940454 0.120509 -0.235080
C38   C     C_1   0.125085 0.440557 0.879464 -0.235037
C39   C     C_1   0.621932 0.853148 0.375813 -0.142403
C40   C     C_1   0.378058 0.353048 0.624181 -0.142687
C41   C     C_3   0.771034 0.732247 0.237232 0.259311
C42   C     C_3   0.229819 0.231818 0.763921 0.259278
C43   C     C_3   0.789858 0.912952 0.205363 -0.024449
C44   C     C_3   0.210103 0.413116 0.794574 -0.024763
C45   C     C_3   0.704125 0.785382 0.219145 0.256265
C46   C     C_3   0.296449 0.288488 0.781503 0.255295
C47   C     C_3   0.706243 0.879024 0.290017 -0.060554
C48   C     C_3   0.293741 0.378892 0.709970 -0.060916
C49   C     C_3   0.721999 0.967815 0.186255 -0.229704
C50   C     C_3   0.277677 0.471589 0.813156 -0.229440
C51   C     C_3   0.724675 0.063478 0.258339 -0.077896
C52   C     C_3   0.274402 0.563924 0.740403 -0.075605
C53   C     C_1   0.836539 0.929280 0.158688 0.174274
C54   C     C_1   0.163432 0.429449 0.841265 0.174587
C55   C     C_1   0.659906 0.863782 0.337156 0.191089
C56   C     C_1   0.340083 0.363623 0.662837 0.190651
O11   O     O_R   0.056650 0.288730 0.942060 -0.576731
O12   O     O_R   0.943350 0.788730 0.057940 -0.576755
O13   O     O_R   0.058660 0.616870 0.085540 -0.584808
O14   O     O_R   0.941340 0.116870 0.914460 -0.584922
C57   C     C_R   0.073075 0.448329 0.109998 0.932782
C58   C     C_R   0.926925 0.948332 0.890003 0.932452
O15   O     O_R   0.063700 0.618520 0.944220 -0.577310
O16   O     O_R   0.936300 0.118520 0.055780 -0.577297
O17   O     O_R   0.948460 0.787610 0.915680 -0.585442
O18   O     O_R   0.051540 0.287610 0.084320 -0.585354
C59   C     C_R   0.078935 0.450092 0.924765 0.946096
C60   C     C_R   0.921065 0.950068 0.075234 0.946099
O19   O     O_3   0.962230 0.453430 0.990860 -0.280726
O20   O     O_3   0.037770 0.953430 0.009140 -0.280563
V3    V     V_3+5 0.007010 0.728750 0.001700 1.213412
V4    V     V_3+5 0.992990 0.228750 0.998300 1.213339
H7    H     H_    0.795637 0.763798 0.359085 0.235634
H8    H     H_    0.204869 0.256979 0.641887 0.234735
H9    H     H_    0.700216 0.025703 0.135944 0.191207
H10   H     H_    0.299223 0.532577 0.863017 0.192103
N1    N     N_R   0.656864 0.660510 0.186470 0.251546
O21   O     O_R   0.659503 0.596218 0.124768 -0.344748
O22   O     O_R   0.611698 0.613805 0.218281 -0.409179
N2    N     N_R   0.344397 0.167014 0.814945 0.252041
O23   O     O_R   0.342132 0.104998 0.877052 -0.343669
O24   O     O_R   0.389806 0.121103 0.783408 -0.408408
N3    N     N_R   0.796210 0.551124 0.225190 0.245227
O25   O     O_R   0.826643 0.459882 0.276379 -0.382411
O26   O     O_R   0.791140 0.484372 0.162732 -0.370560
N4    N     N_R   0.205630 0.050248 0.777357 0.245619
O27   O     O_R   0.175915 0.954817 0.726859 -0.386051
O28   O     O_R   0.210937 0.987025 0.840341 -0.369755
N5    N     N_R   0.802834 0.966598 0.566750 0.280705
O29   O     O_R   0.796196 0.860588 0.512243 -0.272004
O30   O     O_R   0.830325 0.125107 0.564683 -0.294408
N6    N     N_R   0.197170 0.466559 0.433253 0.280646
O31   O     O_R   0.203812 0.360554 0.487770 -0.271827
O32   O     O_R   0.169685 0.625064 0.435311 -0.294745
N7    N     N_R   0.909080 0.854796 0.641594 0.257171
O33   O     O_R   0.895183 0.701945 0.607645 -0.290740
O34   O     O_R   0.958624 0.941950 0.632751 -0.290812
N8    N     N_R   0.090915 0.354786 0.358413 0.257196
O35   O     O_R   0.104806 0.201937 0.392374 -0.290848
O36   O     O_R   0.041373 0.441931 0.367248 -0.289849
H11   H     H_    0.543336 0.822895 0.733045 0.126551
H12   H     H_    0.456658 0.322994 0.266960 0.126727
H13   H     H_    0.714202 0.871762 0.858648 0.116804
H14   H     H_    0.285796 0.371912 0.141358 0.117109
H15   H     H_    0.606204 0.835937 0.846551 0.143974
H16   H     H_    0.393790 0.336116 0.153450 0.144190
N9    N     N_R   0.680518 0.884800 0.553273 0.209739
O37   O     O_R   0.672936 0.036835 0.517323 -0.378523
O38   O     O_R   0.677927 0.726245 0.521456 -0.381571
N10   N     N_R   0.319481 0.384758 0.446728 0.209750
O39   O     O_R   0.327069 0.536780 0.482676 -0.378716
O40   O     O_R   0.322072 0.226190 0.478548 -0.381810
H17   H     H_    0.830247 0.100160 0.300941 0.215920
H18   H     H_    0.168656 0.594668 0.697790 0.214317

loop_
_geom_bond_atom_site_label_1
_geom_bond_atom_site_label_2
_geom_bond_distance
_ccdc_geom_bond_type
C16   C18   1.437763 A    
C45   C47   1.534328 S    
N3    O25   1.299742 A    
C9    C31   1.397304 A    
C15   C19   1.440350 A    
C13   C15   1.415847 A    
N1    O21   1.300186 A    
O1    C3    1.332779 A    
H5    C51   1.110345 S    
N10   O39   1.300864 A    
C2    O7    1.337212 A    
N4    O28   1.300220 A    
C13   H13   1.075918 S    
C5    N7    1.435672 S    
C8    C28   1.402870 A    
C12   C14   1.389606 A    
O14   V4    2.022503 S    
O5    C3    1.335448 A    
O13   V3    2.022455 S    
C33   C47   1.550058 S    
C1    C40   1.451993 S    
C25   N9    1.419096 S    
C46   C50   1.543543 S    
C21   C23   1.409555 A    
C10   C12   1.385374 A    
C8    C57   1.469206 S    
C23   N5    1.439286 S    
C9    H11   1.084286 S    
C57   O18   1.325689 A    
O14   C58   1.329671 A    
C48   C56   1.482904 S    
C45   N1    1.457455 S    
C47   C55   1.482861 S    
N8    O35   1.301342 A    
C42   C44   1.530910 S    
C39   C55   1.214664 T    
N6    O31   1.301475 A    
O11   V4    1.962782 S    
C7    C29   1.385995 A    
O11   C59   1.329554 A    
C8    C30   1.386001 A    
C17   C25   1.417010 A    
C14   C16   1.415819 A    
C38   C54   1.215019 T    
C20   C28   1.426398 A    
C34   C36   1.558561 S    
N5    O29   1.301454 A    
C37   C53   1.214986 T    
C24   N6    1.439258 S    
C20   C22   1.425518 A    
O12   V3    1.962885 S    
O15   V3    1.974346 S    
C43   C53   1.482947 S    
C46   N2    1.457597 S    
O2    C4    1.332794 A    
O6    V2    2.022641 S    
N5    O30   1.301316 A    
C2    C39   1.451939 S    
O18   V4    2.010792 S    
C33   H7    1.110113 S    
C58   O17   1.325685 A    
N4    O27   1.299835 A    
H2    C30   1.084613 S    
H1    C29   1.084617 S    
C36   H18   1.109218 S    
O13   C57   1.329662 A    
O17   V3    2.010768 S    
C45   C49   1.543559 S    
C41   C43   1.530812 S    
C10   H12   1.084273 S    
C16   C20   1.440324 A    
C41   N3    1.455972 S    
O4    C2    1.341835 A    
C6    N8    1.435673 S    
C35   H17   1.108929 S    
C33   C35   1.558480 S    
O16   C60   1.333440 A    
C50   H10   1.110020 S    
C49   C51   1.560750 S    
C46   C48   1.534376 S    
O4    V2    1.974043 S    
C5    C29   1.391849 A    
C6    C30   1.391864 A    
C11   H15   1.082870 S    
C43   C49   1.549748 S    
H6    C52   1.110272 S    
O6    C4    1.335449 A    
C27   H3    1.076814 S    
C44   C54   1.483042 S    
O1    V2    2.009310 S    
C28   H4    1.076797 S    
O2    V1    2.009288 S    
C34   C48   1.550186 S    
C7    C27   1.402894 A    
C34   H8    1.110098 S    
N2    O24   1.300231 A    
C12   H16   1.082884 S    
N9    O37   1.300869 A    
O19   V4    1.759016 S    
O12   C60   1.329540 A    
O3    V1    1.974226 S    
C40   C56   1.214666 T    
N9    O38   1.300364 A    
N7    O33   1.301338 A    
C33   C41   1.543550 S    
C18   C32   1.446883 A    
C4    C31   1.493180 S    
O3    C1    1.341813 A    
N10   O40   1.300361 A    
N1    O22   1.300230 A    
C11   C13   1.389622 A    
C5    C21   1.426980 A    
C41   C45   1.524951 S    
O16   V4    1.974163 S    
C44   C50   1.549685 S    
C42   C46   1.524892 S    
C19   C27   1.426382 A    
C37   C60   1.451206 S    
C22   C24   1.409560 A    
O7    V1    1.958794 S    
C34   C42   1.543600 S    
C1    O8    1.337227 A    
C15   C17   1.437770 A    
C36   C44   1.548018 S    
C24   C26   1.404383 A    
C35   C43   1.547961 S    
C38   C59   1.451284 S    
C48   C52   1.549421 S    
C47   C51   1.549505 S    
C7    C58   1.469208 S    
O5    V1    2.022591 S    
C19   C21   1.425484 A    
N8    O36   1.301415 A    
C14   H14   1.075902 S    
C18   C26   1.416994 A    
N6    O32   1.301312 A    
C36   C52   1.557921 S    
C23   C25   1.404377 A    
C9    C11   1.385386 A    
O20   V3    1.758932 S    
N3    O26   1.300246 A    
N2    O23   1.300210 A    
C17   C31   1.446897 A    
O9    V2    1.759709 S    
C49   H9    1.110086 S    
C50   C52   1.560697 S    
O10   V1    1.759624 S    
C3    C32   1.493180 S    
O8    V2    1.958695 S    
C35   C51   1.557906 S    
C42   N4    1.456097 S    
C6    C22   1.426953 A    
O15   C59   1.333417 A    
C10   C32   1.397292 A    
N7    O34   1.301413 A    
C26   N10   1.419084 S    
