data_mof_unit_65760.cif
_audit_creation_date              2013-03-05T16:17:22-0500
_audit_creation_method            fapswitch 2.2
_symmetry_space_group_name_H-M    P1
_symmetry_Int_Tables_number       1
_space_group_crystal_system       triclinic
_cell_length_a                    13.03796
_cell_length_b                    13.618341
_cell_length_c                    23.444053
_cell_angle_alpha                 90.044745
_cell_angle_beta                  92.668985
_cell_angle_gamma                 85.73802
_cell_volume                      4146.58883347

loop_
_atom_site_label
_atom_site_type_symbol
_atom_site_description
_atom_site_fract_x
_atom_site_fract_y
_atom_site_fract_z
_atom_type_partial_charge
O1    O     O_R   0.402510 0.634760 0.496660 -0.607366
O2    O     O_R   0.597490 0.365240 0.503340 -0.607610
O3    O     O_R   0.572960 0.644530 0.502520 -0.580692
O4    O     O_R   0.427040 0.355470 0.497480 -0.580612
C1    C     C_R   0.481201 0.685237 0.499259 0.902895
C2    C     C_R   0.518805 0.314763 0.500491 0.903075
O5    O     O_R   0.414760 0.495140 0.580910 -0.619201
O6    O     O_R   0.585240 0.504860 0.419090 -0.614710
O7    O     O_R   0.585200 0.504910 0.586770 -0.618290
O8    O     O_R   0.414800 0.495090 0.413230 -0.613759
C3    C     C_R   0.499268 0.500086 0.610886 0.870215
C4    C     C_R   0.500732 0.499913 0.389116 0.881624
Zn1   Zn    Zn3+2 0.386190 0.493470 0.496090 1.016353
Zn2   Zn    Zn3+2 0.613810 0.506530 0.503910 1.016038
C5    C     C_R   0.490292 0.412888 0.119007 0.509913
C6    C     C_R   0.509719 0.587101 0.880997 0.508506
N1    N     N_R   0.505569 0.498371 0.147718 -0.360845
N2    N     N_R   0.494433 0.501620 0.852286 -0.360361
C7    C     C_R   0.519403 0.584327 0.119999 0.510369
C8    C     C_R   0.480590 0.415666 0.880005 0.509007
C9    C     C_R   0.517707 0.586783 0.060413 -0.019010
C10   C     C_R   0.482291 0.413209 0.939591 -0.018255
C11   C     C_R   0.501368 0.499614 0.029991 -0.019765
C12   C     C_R   0.498634 0.500377 0.970014 -0.019808
C13   C     C_R   0.487661 0.411704 0.059401 -0.019102
C14   C     C_R   0.512345 0.588287 0.940604 -0.018342
C15   C     C_R   0.531204 0.674003 0.030719 -0.147671
C16   C     C_R   0.468795 0.325989 0.969285 -0.149158
C17   C     C_R   0.528529 0.674752 0.971295 -0.149318
C18   C     C_R   0.471476 0.325238 0.028709 -0.147864
O9    O     O_2   0.477975 0.329512 0.148211 -0.538120
O10   O     O_2   0.522051 0.670472 0.851793 -0.543506
O11   O     O_2   0.533698 0.667110 0.150126 -0.538269
O12   O     O_2   0.466280 0.332888 0.849877 -0.543607
H1    H     H_    0.543779 0.741854 0.053246 0.198322
H2    H     H_    0.456217 0.258138 0.946758 0.197508
H3    H     H_    0.539238 0.743133 0.949548 0.197450
H4    H     H_    0.460769 0.256857 0.050456 0.198228
C19   C     C_R   0.588157 0.508575 0.765090 -0.095577
C20   C     C_R   0.596475 0.506031 0.240776 -0.087931
H5    H     H_    0.659124 0.514110 0.790395 0.146282
H6    H     H_    0.668320 0.511436 0.220004 0.148667
C21   C     C_R   0.589545 0.508017 0.705958 -0.198538
C22   C     C_R   0.595382 0.506551 0.299976 -0.191145
H7    H     H_    0.662288 0.513463 0.686117 0.171800
H8    H     H_    0.667118 0.512504 0.324497 0.174015
C23   C     C_R   0.497727 0.500496 0.673052 -0.046208
C24   C     C_R   0.502274 0.499500 0.326952 -0.049183
C25   C     C_R   0.404600 0.493562 0.700029 -0.200342
C26   C     C_R   0.410475 0.491858 0.294048 -0.189207
H9    H     H_    0.332847 0.487707 0.675508 0.171147
H10   H     H_    0.337749 0.486315 0.313890 0.174661
C27   C     C_R   0.403508 0.494078 0.759230 -0.091885
C28   C     C_R   0.411864 0.491299 0.234917 -0.091829
H11   H     H_    0.331649 0.488762 0.780002 0.146946
H12   H     H_    0.340911 0.485674 0.209613 0.147844
C29   C     C_R   0.495249 0.501611 0.791643 0.310689
C30   C     C_R   0.504753 0.498380 0.208362 0.306825
C31   C     C_1   0.533837 0.212017 0.495228 -0.105915
C32   C     C_1   0.466480 0.787949 0.493003 -0.105664
C33   C     C_2   0.545585 0.021617 0.481155 0.174140
C34   C     C_2   0.455446 0.978259 0.478167 0.174362
C35   C     C_1   0.457983 0.874698 0.486149 0.057555
C36   C     C_1   0.542666 0.125228 0.488952 0.057721
N3    N     N_1   0.234540 0.484780 0.490870 -0.085606
N4    N     N_1   0.765460 0.515220 0.509130 -0.085772
C37   C     C_2   0.033117 0.473012 0.483812 -0.222623
C38   C     C_2   0.966882 0.526994 0.516176 -0.227060
C39   C     C_1   0.854781 0.519590 0.511743 0.182057
C40   C     C_1   0.145218 0.480412 0.488251 0.181888
H13   H     H_    0.996769 0.578437 0.547021 0.176150
H14   H     H_    0.003232 0.421568 0.452966 0.179564
N5    N     N_R   0.356391 0.033378 0.472922 0.212518
O13   O     O_R   0.275341 0.995421 0.491332 -0.341077
O14   O     O_R   0.343759 0.113366 0.442249 -0.367642
N6    N     N_R   0.644734 0.966489 0.482483 0.212360
O15   O     O_R   0.724785 0.004586 0.506222 -0.342156
O16   O     O_R   0.658799 0.886304 0.452707 -0.366093

loop_
_geom_bond_atom_site_label_1
_geom_bond_atom_site_label_2
_geom_bond_distance
_ccdc_geom_bond_type
C15   C17   1.391980 A    
N5    O13   1.301600 A    
C3    C23   1.458500 S    
C4    C24   1.458435 S    
C19   H5    1.083019 S    
Zn1   N3    1.987597 S    
O5    C3    1.285002 A    
C31   C36   1.188666 T    
C26   C28   1.387234 A    
C32   C35   1.188665 T    
O1    C1    1.275862 A    
C7    C9    1.396463 A    
C12   C14   1.408958 A    
C5    C13   1.396358 A    
N4    C39   1.169261 T    
N3    C40   1.169262 T    
C19   C29   1.396865 A    
C18   H4    1.083193 S    
C37   H14   1.085877 S    
O4    Zn1   1.914762 S    
C6    O10   1.349932 S    
C38   C39   1.471349 S    
C25   H9    1.083017 S    
C26   H10   1.083031 S    
C11   C12   1.404922 A    
C34   N5    1.444898 S    
N1    C30   1.422271 S    
C8    O12   1.349918 S    
C24   C26   1.403854 A    
C9    C15   1.403647 A    
C10   C16   1.403646 A    
N5    O14   1.301667 A    
O2    C2    1.275862 A    
C22   H8    1.083017 S    
C27   H11   1.082955 S    
C33   N6    1.444896 S    
C6    C14   1.396360 A    
C28   H12   1.083018 S    
C20   C30   1.397206 A    
C37   C38   1.351914 D    
N6    O15   1.301603 A    
O4    C2    1.279590 A    
C7    O11   1.349919 S    
C27   C29   1.397196 A    
C19   C21   1.387248 A    
C15   H1    1.083190 S    
C33   C36   1.420588 S    
O7    Zn2   1.995496 S    
C34   C35   1.420585 S    
C21   H7    1.083030 S    
N2    C29   1.422255 S    
O5    Zn1   2.006416 S    
O6    C4    1.284986 A    
Zn2   N4    1.987600 S    
O7    C3    1.284211 A    
O3    Zn2   1.914761 S    
O8    C4    1.284196 A    
C8    C10   1.396459 A    
C9    C11   1.409041 A    
C10   C12   1.409043 A    
O1    Zn1   1.951487 S    
C28   C30   1.396876 A    
C13   C18   1.403657 A    
C5    N1    1.367006 A    
O6    Zn2   2.006416 S    
C1    C32   1.404521 S    
C2    C31   1.404523 S    
N6    O16   1.301668 A    
O3    C1    1.279602 A    
O8    Zn1   1.995494 S    
C5    O9    1.349935 S    
C23   C25   1.404212 A    
C37   C40   1.471351 S    
C16   C18   1.391981 A    
C38   H13   1.085876 S    
C25   C27   1.388647 A    
C20   H6    1.082955 S    
N1    C7    1.366958 A    
N2    C8    1.366951 A    
C11   C13   1.408955 A    
C33   C34   1.352821 D    
O2    Zn2   1.951486 S    
C20   C22   1.388634 A    
C16   H2    1.083189 S    
C14   C17   1.403655 A    
C6    N2    1.366998 A    
C17   H3    1.083194 S    
C21   C23   1.403868 A    
C22   C24   1.404196 A    
