data_mof_unit_14880.cif
_audit_creation_date              2012-12-10T19:00:12-0500
_audit_creation_method            fapswitch 2.2
_symmetry_space_group_name_H-M    P1
_symmetry_Int_Tables_number       1
_space_group_crystal_system       triclinic
_cell_length_a                    9.546828
_cell_length_b                    10.819332
_cell_length_c                    13.475818
_cell_angle_alpha                 90.282215
_cell_angle_beta                  73.200103
_cell_angle_gamma                 89.996834
_cell_volume                      1332.49637476

loop_
_atom_site_label
_atom_site_type_symbol
_atom_type_description
_atom_site_fract_x
_atom_site_fract_y
_atom_site_fract_z
_atom_type_partial_charge
C1    C     C_R   0.502243 0.737664 0.495262 0.804194
C2    C     C_R   0.444752 0.560787 0.975736 0.081379
C3    C     C_R   0.490454 0.560584 0.865805 0.090285
C4    C     C_R   0.551521 0.542067 0.029347 0.073097
C5    C     C_R   0.701256 0.531406 0.972384 0.174241
C6    C     C_R   0.745171 0.555091 0.866876 -0.256735
C7    C     C_R   0.641383 0.575495 0.815505 -0.195640
C8    C     C_R   0.514289 0.528951 0.137213 -0.252286
C9    C     C_R   0.767366 0.489745 0.128979 -0.202933
C10   C     C_R   0.383491 0.547804 0.810890 -0.107850
C11   C     C_R   0.380569 0.936468 0.487698 0.088665
C12   C     C_R   0.423658 0.514942 0.698968 0.789439
C13   C     C_R   0.509251 0.870707 0.479953 -0.139484
C14   C     C_R   0.643571 0.936700 0.455400 0.242222
C15   C     C_R   0.640025 0.066129 0.460048 -0.288024
C16   C     C_R   0.505978 0.129542 0.484655 -0.137773
C17   C     C_R   0.379110 0.063424 0.489449 0.117423
C18   C     C_3   0.231489 0.068936 0.566940 -0.450187
C19   C     C_3   0.232730 0.928545 0.564895 -0.470716
C20   C     C_R   0.941150 0.399822 0.463717 0.261547
C21   C     C_R   0.907918 0.594128 0.543773 -0.079073
C22   C     C_R   0.056173 0.593477 0.544779 -0.092484
C23   C     C_R   0.500985 0.262373 0.497527 0.831365
C24   C     C_R   0.088537 0.399883 0.463709 0.258375
C25   C     C_3   0.138366 0.346755 0.357030 -0.498906
C26   C     C_3   0.979601 0.347412 0.356632 -0.512896
C27   C     C_R   0.577657 0.499999 0.300338 0.787864
C28   C     C_R   0.806416 0.500811 0.021874 -0.204215
C29   C     C_R   0.621349 0.505797 0.187198 -0.047050
C30   C     C_R   0.235515 0.565792 0.864988 -0.199696
C31   C     C_R   0.193615 0.588794 0.971171 -0.158125
C32   C     C_R   0.294950 0.580877 0.026921 -0.180774
Cu1   Cu    Cu3+1 0.359330 0.500020 0.500010 0.936260
Cu2   Cu    Cu3+1 0.640670 0.499980 0.499990 0.943650
H1    H     H_    0.851103 0.468692 0.165901 0.145856
H2    H     H_    0.741702 0.116274 0.447515 0.156742
H3    H     H_    0.234384 0.108806 0.642550 0.198566
H4    H     H_    0.147911 0.109682 0.533913 0.190931
H5    H     H_    0.235791 0.886586 0.639426 0.192900
H6    H     H_    0.149870 0.888953 0.530427 0.192382
H7    H     H_    0.839334 0.672148 0.576802 0.144085
H8    H     H_    0.097227 0.669750 0.580193 0.136843
H9    H     H_    0.207656 0.411366 0.299718 0.212916
H10   H     H_    0.184147 0.252160 0.356244 0.194303
H11   H     H_    0.958092 0.413129 0.299714 0.210073
H12   H     H_    0.860262 0.559328 0.823992 0.139599
H13   H     H_    0.934499 0.253184 0.354459 0.187646
H14   H     H_    0.918457 0.484399 0.977008 0.134708
H15   H     H_    0.402430 0.536050 0.184079 0.145156
H16   H     H_    0.152133 0.564237 0.824959 0.146154
H17   H     H_    0.253015 0.594935 0.109434 0.121469
H18   H     H_    0.081289 0.610667 0.011758 0.140357
H19   H     H_    0.682828 0.607812 0.737347 0.174106
N1    N     N_R   0.852320 0.499070 0.499340 -0.182579
N2    N     N_R   0.148230 0.499110 0.499340 -0.183207
O1    O     O_R   0.381190 0.680360 0.500000 -0.590216
O2    O     O_R   0.618780 0.680320 0.499990 -0.556578
O3    O     O_R   0.323230 0.500000 0.650990 -0.580315
O4    O     O_R   0.560820 0.499960 0.650980 -0.587303
O5    O     O_R   0.381220 0.319680 0.500010 -0.576764
O6    O     O_R   0.618810 0.319640 0.500000 -0.580415
O7    O     O_R   0.439180 0.500040 0.349020 -0.587204
O8    O     O_R   0.676770 0.500000 0.349010 -0.587355
N3    N     N_2   0.781195 0.874955 0.431459 -0.413693
H20   H     H_    0.861012 0.922914 0.453324 0.235150
C33   C     C_3   0.833160 0.829916 0.325856 -0.639965
H21   H     H_    0.857409 0.908805 0.271027 0.207942
H22   H     H_    0.750450 0.769034 0.307141 0.233284
H23   H     H_    0.934819 0.775314 0.316040 0.219274

loop_
_geom_bond_atom_site_label_1
_geom_bond_atom_site_label_2
_ccdc_geom_bond_type
C17   C18   S    
Cu1   N2    S    
Cu2   O2    S    
C2    C4    A    
C32   H17   S    
Cu2   N1    S    
C6    C7    A    
C27   O7    A    
C1    O2    A    
Cu1   O5    S    
C5    C28   A    
C27   C29   S    
C10   C30   A    
C33   H22   S    
C31   C32   A    
Cu1   O3    S    
C9    C29   A    
C31   H18   S    
C4    C8    A    
C12   O3    A    
N3    H20   S    
C25   H9    S    
Cu1   O1    S    
C2    C3    A    
C30   H16   S    
C14   N3    S    
C3    C10   A    
C22   H8    S    
C21   C22   A    
C24   N2    A    
C23   O5    A    
C11   C13   A    
C30   C31   A    
C11   C19   S    
C22   N2    A    
C27   O8    A    
C26   H13   S    
C21   H7    S    
C5    C6    A    
C19   H5    S    
C25   H10   S    
C20   N1    A    
Cu2   O8    S    
C18   H3    S    
Cu1   Cu2   S    
C16   C23   S    
C3    C7    A    
C18   H4    S    
C21   N1    A    
C10   C12   S    
Cu2   O4    S    
C33   H23   S    
C1    C13   S    
C19   H6    S    
C7    H19   S    
C15   C16   A    
C16   C17   A    
C15   H2    S    
C23   O6    A    
C33   H21   S    
C24   C25   S    
C2    C32   A    
C18   C19   S    
C8    C29   A    
C9    H1    S    
C14   C15   A    
C11   C17   A    
C6    H12   S    
C26   H11   S    
C25   C26   S    
C13   C14   A    
C12   O4    A    
Cu1   O7    S    
C8    H15   S    
C1    O1    A    
Cu2   O6    S    
C28   H14   S    
C20   C24   A    
C9    C28   A    
C4    C5    A    
C20   C26   S    
N3    C33   S    
