data_mof_unit_67651.cif
_audit_creation_date              2013-03-05T16:47:31-0500
_audit_creation_method            fapswitch 2.2
_symmetry_space_group_name_H-M    P1
_symmetry_Int_Tables_number       1
_space_group_crystal_system       triclinic
_cell_length_a                    11.124242
_cell_length_b                    11.245685
_cell_length_c                    10.063465
_cell_angle_alpha                 99.186436
_cell_angle_beta                  99.370425
_cell_angle_gamma                 90.229179
_cell_volume                      1225.62477078

loop_
_atom_site_label
_atom_site_type_symbol
_atom_site_description
_atom_site_fract_x
_atom_site_fract_y
_atom_site_fract_z
_atom_type_partial_charge
O1    O     O_R   0.517830 0.337490 0.617920 -0.593998
O2    O     O_R   0.482170 0.662510 0.382080 -0.590315
O3    O     O_R   0.482150 0.301790 0.382070 -0.551429
O4    O     O_R   0.517850 0.698210 0.617930 -0.557361
C1    C     C_R   0.500865 0.262135 0.499765 0.791277
C2    C     C_R   0.499393 0.737551 0.500445 0.784751
O5    O     O_R   0.337480 0.517860 0.617920 -0.547106
O6    O     O_R   0.662520 0.482140 0.382080 -0.522549
O7    O     O_R   0.301810 0.482160 0.382070 -0.598048
O8    O     O_R   0.698190 0.517840 0.617930 -0.590123
C3    C     C_R   0.262291 0.505922 0.498327 0.844468
C4    C     C_R   0.737828 0.498556 0.501755 0.851339
Cu1   Cu    Cu3+1 0.521120 0.521140 0.639640 1.001110
Cu2   Cu    Cu3+1 0.478880 0.478860 0.360360 1.009777
C5    C     C_R   0.163440 0.471498 0.050015 -0.244181
C6    C     C_R   0.854494 0.494317 0.939008 -0.239292
H1    H     H_    0.219186 0.534120 0.014313 0.239384
H2    H     H_    0.819204 0.416125 0.970214 0.262016
C7    C     C_R   0.126475 0.505001 0.176390 -0.044370
C8    C     C_R   0.879703 0.483318 0.808096 -0.219400
H3    H     H_    0.145016 0.596533 0.229487 0.202610
H4    H     H_    0.859963 0.398120 0.740810 0.159577
C9    C     C_R   0.074803 0.418812 0.238999 0.102297
C10   C     C_R   0.925049 0.581265 0.760038 0.129720
C11   C     C_R   0.047268 0.303747 0.163956 -0.204886
C12   C     C_R   0.953003 0.690424 0.851103 -0.227414
H5    H     H_    0.003085 0.238762 0.207058 0.201400
H6    H     H_    0.994654 0.764772 0.817629 0.194796
C13   C     C_R   0.074052 0.271359 0.032699 0.405143
C14   C     C_R   0.940070 0.697709 0.989738 0.345068
C15   C     C_R   0.141695 0.353731 0.978823 0.309540
C16   C     C_R   0.883640 0.600422 0.031297 0.407552
C17   C     C_R   0.918535 0.436073 0.393627 0.335312
C18   C     C_R   0.081256 0.571099 0.607091 0.254755
C19   C     C_R   0.873697 0.495928 0.507557 -0.248650
C20   C     C_R   0.126385 0.511261 0.492440 -0.260864
C21   C     C_R   0.957676 0.557327 0.620524 -0.125140
C22   C     C_R   0.041616 0.452092 0.378294 -0.118358
H7    H     H_    0.448216 0.200775 0.904106 0.173502
H8    H     H_    0.539388 0.777448 0.086809 0.133685
C23   C     C_R   0.356366 0.132751 0.047329 -0.184455
C24   C     C_R   0.634584 0.833401 0.938991 -0.228099
H9    H     H_    0.267759 0.134670 0.987502 0.245186
H10   H     H_    0.718500 0.796597 0.978803 0.100249
C25   C     C_R   0.367146 0.094287 0.172689 -0.074367
C26   C     C_R   0.627341 0.882014 0.820071 -0.067920
H11   H     H_    0.286691 0.075721 0.213825 0.136741
H12   H     H_    0.706298 0.880655 0.770200 0.121462
C27   C     C_R   0.482184 0.077105 0.243561 0.039954
C28   C     C_R   0.515680 0.920155 0.758858 0.061132
C29   C     C_R   0.586262 0.096068 0.188105 -0.156190
C30   C     C_R   0.411649 0.909666 0.818016 -0.158736
H13   H     H_    0.674161 0.075688 0.241503 0.185010
H14   H     H_    0.325823 0.940370 0.769838 0.183932
C31   C     C_R   0.576318 0.143463 0.066258 0.454249
C32   C     C_R   0.418272 0.857743 0.937103 0.461647
C33   C     C_R   0.459941 0.163664 0.997354 -0.269888
C34   C     C_R   0.531223 0.820382 0.997515 -0.245726
C35   C     C_R   0.493027 0.916954 0.380947 -0.233580
C36   C     C_R   0.506351 0.081904 0.620758 -0.257242
H15   H     H_    0.488497 0.854770 0.286982 0.186913
H16   H     H_    0.514920 0.144112 0.714634 0.191394
C37   C     C_R   0.499026 0.871989 0.503043 -0.083431
C38   C     C_R   0.500080 0.127148 0.498332 -0.078890
C39   C     C_R   0.505250 0.957430 0.624741 0.035871
C40   C     C_R   0.492972 0.041177 0.377319 0.040033
H17   H     H_    0.418376 0.430979 0.864246 0.172781
H18   H     H_    0.573417 0.576216 0.134084 0.130150
N1    N     N_2   0.447120 0.447110 0.150550 -0.292100
N2    N     N_2   0.552880 0.552890 0.849450 -0.280990
C41   C     C_2   0.507527 0.508257 0.078645 0.020850
C42   C     C_2   0.489341 0.493806 0.920398 0.008361
H19   H     H_    0.627520 0.601719 0.904942 0.193079
H20   H     H_    0.385874 0.382044 0.095875 0.236155
O9    O     O_3   0.219244 0.308872 0.890577 -0.669539
C43   C     C_3   0.180621 0.329773 0.756698 0.025004
H21   H     H_    0.217757 0.417695 0.746977 0.210488
H22   H     H_    0.080072 0.331578 0.727587 0.121552
C44   C     C_3   0.235261 0.230615 0.663288 -0.343130
H23   H     H_    0.332459 0.253316 0.669767 0.219174
H24   H     H_    0.231609 0.143359 0.701232 0.227881
C45   C     C_3   0.173151 0.211886 0.514921 -0.934285
H25   H     H_    0.073257 0.221095 0.507867 0.261538
H26   H     H_    0.192789 0.120497 0.464693 0.260163
H27   H     H_    0.210117 0.276277 0.458882 0.255197
O10   O     O_3   0.884625 0.593446 0.167148 -0.586550
C46   C     C_3   0.824768 0.688319 0.235914 0.083769
H28   H     H_    0.742849 0.649597 0.263981 0.173785
H29   H     H_    0.794774 0.760970 0.177261 0.092929
C47   C     C_3   0.909093 0.742351 0.365869 -0.287372
H30   H     H_    0.960990 0.672573 0.410336 0.237982
H31   H     H_    0.979813 0.800305 0.342498 0.257635
C48   C     C_3   0.838985 0.808485 0.470884 -0.977961
H32   H     H_    0.778518 0.874564 0.425254 0.259588
H33   H     H_    0.905561 0.854406 0.557556 0.282680
H34   H     H_    0.782041 0.744632 0.509130 0.248545
N3    N     N_R   0.683492 0.169208 0.012774 0.130346
O11   O     O_R   0.676925 0.228916 0.911443 -0.428886
O12   O     O_R   0.789837 0.140224 0.071364 -0.379957
N4    N     N_R   0.310769 0.842974 0.995198 0.148117
O13   O     O_R   0.209223 0.888131 0.945585 -0.379641
O14   O     O_R   0.311790 0.780868 0.093935 -0.384461
O15   O     O_3   0.040964 0.154884 0.965646 -0.622363
C49   C     C_3   0.982288 0.157242 0.830821 0.145355
H35   H     H_    0.049598 0.142354 0.761755 0.168026
H36   H     H_    0.934355 0.242419 0.821861 0.137014
C50   C     C_3   0.888777 0.055120 0.780357 -0.361681
H37   H     H_    0.936015 0.968924 0.762594 0.186701
H38   H     H_    0.830617 0.047816 0.857101 0.282888
C51   C     C_3   0.809324 0.078419 0.648806 -0.885834
H39   H     H_    0.865934 0.085498 0.569192 0.261389
H40   H     H_    0.759688 0.163381 0.667144 0.290473
H41   H     H_    0.741528 0.003999 0.611266 0.265631
O16   O     O_3   0.008735 0.779946 0.090415 -0.574442
C52   C     C_3   0.977898 0.899562 0.078921 0.144684
H42   H     H_    0.878349 0.912253 0.065439 0.119158
H43   H     H_    0.009008 0.926418 0.989123 0.193151
C53   C     C_3   0.042327 0.981298 0.207859 -0.257112
H44   H     H_    0.122029 0.935114 0.256497 0.235740
H45   H     H_    0.080920 0.061658 0.178853 0.202109
C54   C     C_3   0.958360 0.019678 0.312836 -0.864868
H46   H     H_    0.867502 0.973817 0.284105 0.261880
H47   H     H_    0.943129 0.116618 0.324080 0.287937
H48   H     H_    0.001207 0.001339 0.414784 0.243527
N5    N     N_R   0.838650 0.350958 0.299108 0.131298
O17   O     O_R   0.785539 0.381475 0.185577 -0.304470
O18   O     O_R   0.788647 0.265293 0.346180 -0.433941
N6    N     N_R   0.158404 0.659199 0.700679 0.134125
O19   O     O_R   0.208016 0.636026 0.819243 -0.360710
O20   O     O_R   0.194206 0.754457 0.658053 -0.399380

loop_
_geom_bond_atom_site_label_1
_geom_bond_atom_site_label_2
_geom_bond_distance
_ccdc_geom_bond_type
C46   H28   1.104429 S    
C37   C39   1.422691 A    
C48   H32   1.108107 S    
C18   C21   1.413389 A    
C23   H9    1.070317 S    
C43   C44   1.534055 S    
O7    Cu2   2.016740 S    
N6    O19   1.296974 A    
C24   C34   1.391782 A    
C49   H36   1.107240 S    
N3    O11   1.300323 A    
O5    C3    1.336335 A    
O1    C1    1.330974 A    
C3    C20   1.505159 S    
C19   C21   1.428373 A    
C10   C12   1.410112 A    
C35   C40   1.403268 A    
Cu1   N2    2.055663 S    
C52   H42   1.106186 S    
H7    C33   1.075825 S    
C13   O15   1.392678 S    
C36   H16   1.072427 S    
H17   C42   1.079128 S    
C24   C26   1.383985 A    
O4    Cu1   2.037430 S    
N1    C41   1.327230 D    
C51   H39   1.108642 S    
C54   H48   1.109682 S    
C17   C19   1.399603 A    
C5    C7    1.395345 A    
C47   H31   1.097303 S    
C8    C10   1.395243 A    
C52   H43   1.102618 S    
C28   C30   1.397596 A    
C50   H37   1.107721 S    
C18   C20   1.406940 A    
C6    C8    1.377721 A    
C48   H33   1.103955 S    
Cu1   Cu2   2.736311 S    
C53   H44   1.113084 S    
C50   H38   1.097422 S    
O2    C2    1.330843 A    
C24   H10   1.066534 S    
N4    O14   1.301238 A    
C49   H35   1.097771 S    
N3    O12   1.300275 A    
C30   H14   1.082216 S    
O16   C52   1.407477 S    
C53   H45   1.099141 S    
C25   H11   1.078310 S    
C11   C13   1.393417 A    
C26   H12   1.079265 S    
C35   H15   1.076485 S    
H8    C34   1.077571 S    
C27   C40   1.452922 S    
C43   H21   1.094816 S    
O4    C2    1.313176 A    
C44   H24   1.111172 S    
O10   C46   1.407329 S    
C27   C29   1.394215 A    
C1    C38   1.515762 S    
C29   H13   1.080479 S    
C53   C54   1.534206 S    
C38   C40   1.419901 A    
C2    C37   1.507929 S    
C7    C9    1.405465 A    
O9    C43   1.403016 S    
C15   O9    1.377405 S    
C25   C27   1.390124 A    
O6    C4    1.336253 A    
C52   C53   1.534059 S    
C16   O10   1.380104 S    
C31   N3    1.432079 S    
N2    H19   1.024823 S    
C17   N5    1.427549 S    
C10   C21   1.490454 S    
N1    H20   1.023583 S    
C4    C19   1.503637 S    
O7    C3    1.304631 A    
C51   H41   1.101423 S    
C54   H46   1.106435 S    
O3    Cu2   2.037430 S    
O8    C4    1.302298 A    
C18   N6    1.427293 S    
C8    H4    1.080487 S    
C36   C39   1.406822 A    
C12   C14   1.415214 A    
C48   H34   1.108611 S    
C45   H26   1.109660 S    
C31   C33   1.403125 A    
N5    O17   1.295837 A    
Cu2   N1    2.055663 S    
C11   H5    1.063747 S    
C32   N4    1.434098 S    
C9    C22   1.497836 S    
C47   C48   1.516674 S    
C14   O16   1.381445 S    
C5    H1    1.076774 S    
O6    Cu2   2.018369 S    
C7    H3    1.083696 S    
C12   H6    1.079285 S    
C43   H22   1.110292 S    
O3    C1    1.316869 A    
O8    Cu1   2.016740 S    
N6    O20   1.299676 A    
C44   C45   1.521036 S    
C5    C15   1.401353 A    
C6    C16   1.391574 A    
C45   H27   1.102267 S    
C26   C28   1.394922 A    
C35   C37   1.393488 A    
C17   C22   1.416547 A    
C36   C38   1.397887 A    
C46   H29   1.104188 S    
C23   C33   1.393794 A    
C41   C42   1.554225 S    
C13   C15   1.416306 A    
C14   C16   1.411390 A    
C47   H30   1.086699 S    
H18   C41   1.076477 S    
C20   C22   1.431675 A    
N4    O13   1.298106 A    
C50   C51   1.527754 S    
C32   C34   1.400692 A    
C29   C31   1.401733 A    
C9    C11   1.395709 A    
O2    Cu2   2.041351 S    
C28   C39   1.463163 S    
C51   H40   1.110371 S    
C54   H47   1.094670 S    
C44   H23   1.099115 S    
O5    Cu1   2.018370 S    
O1    Cu1   2.041351 S    
C6    H2    1.073079 S    
C45   H25   1.108239 S    
C46   C47   1.517145 S    
O15   C49   1.410995 S    
N5    O18   1.299662 A    
C23   C25   1.385063 A    
N2    C42   1.327744 D    
C49   C50   1.513634 S    
C30   C32   1.406288 A    
