data_mof_unit_61464.cif
_audit_creation_date              2012-10-26T17:41:53-0400
_audit_creation_method            fapswitch 2.2
_symmetry_space_group_name_H-M    P1
_symmetry_Int_Tables_number       1
_space_group_crystal_system       triclinic
_cell_length_a                    21.748276
_cell_length_b                    21.743359
_cell_length_c                    22.209432
_cell_angle_alpha                 119.390194
_cell_angle_beta                  119.249724
_cell_angle_gamma                 89.986003
_cell_volume                      7577.25601642

loop_
_atom_site_label
_atom_site_type_symbol
_atom_type_description
_atom_site_fract_x
_atom_site_fract_y
_atom_site_fract_z
_atom_type_partial_charge
C1    C     C_R   0.500112 0.118699 0.500160 0.548464
C2    C     C_R   0.501318 0.185716 0.501659 0.020751
C3    C     C_R   0.568431 0.243947 0.552747 -0.145571
C4    C     C_R   0.579874 0.079915 0.659816 0.547917
C5    C     C_R   0.568343 0.309059 0.553252 -0.147252
C6    C     C_R   0.501560 0.315219 0.500499 0.021838
C7    C     C_R   0.437370 0.256074 0.450316 0.018066
C8    C     C_3   0.355810 0.229194 0.387583 -0.272254
C9    C     C_3   0.355463 0.159006 0.389013 -0.267220
C10   C     C_3   0.244742 0.714527 0.048345 -0.210890
C11   C     C_3   0.341087 0.778471 0.048421 -0.213977
C12   C     C_3   0.747750 0.336667 0.049880 -0.123551
C13   C     C_3   0.292665 0.730032 0.951458 -0.210755
C14   C     C_1   0.125218 0.625023 0.749745 -0.018924
C15   C     C_3   0.291545 0.791396 0.082588 0.059910
C16   C     C_R   0.500229 0.881243 0.500343 0.556253
C17   C     C_3   0.196325 0.666093 0.951391 -0.214935
C18   C     C_3   0.209062 0.708886 0.917422 0.058826
C19   C     C_3   0.189297 0.781650 0.951727 -0.213188
C20   C     C_3   0.237714 0.830085 0.048686 -0.215585
C21   C     C_1   0.162965 0.662777 0.825170 -0.064572
C22   C     C_1   0.337601 0.837473 0.174840 -0.066991
C23   C     C_3   0.791897 0.291939 0.082989 0.000359
C24   C     C_1   0.375244 0.875145 0.250265 -0.020278
C25   C     C_R   0.441972 0.775757 0.490361 0.028946
C26   C     C_R   0.502831 0.816738 0.505008 -0.012120
C27   C     C_R   0.568017 0.796336 0.528054 -0.072928
C28   C     C_R   0.420072 0.920025 0.340083 0.551058
C29   C     C_R   0.569233 0.731322 0.526929 0.226391
C30   C     C_R   0.503355 0.686072 0.502023 0.017315
C31   C     C_R   0.442508 0.711946 0.489474 -0.067100
C32   C     C_3   0.362378 0.673057 0.419805 -0.186959
C33   C     C_3   0.361548 0.743210 0.420135 0.114759
C34   C     C_3   0.736940 0.218911 0.048338 0.061471
C35   C     C_R   0.881618 0.500083 0.500172 0.551340
C36   C     C_R   0.920238 0.420052 0.340174 0.546012
C37   C     C_R   0.118683 0.499776 0.499714 0.547176
C38   C     C_R   0.080222 0.580009 0.659928 0.545075
C39   C     C_R   0.618963 0.499982 0.500067 0.545309
C40   C     C_3   0.698104 0.289164 0.951995 0.408951
C41   C     C_R   0.500127 0.381156 0.500016 0.551739
C42   C     C_R   0.381177 0.499930 0.499930 0.551755
C43   C     C_R   0.500536 0.618893 0.500183 0.534419
C44   C     C_R   0.757276 0.515107 0.452077 0.020423
C45   C     C_3   0.685194 0.171784 0.950636 0.039435
C46   C     C_R   0.816128 0.500481 0.501742 0.014868
C47   C     C_R   0.809131 0.484903 0.553185 -0.150255
C48   C     C_R   0.744536 0.485549 0.553708 -0.143190
C49   C     C_R   0.685425 0.499154 0.500608 0.023262
C50   C     C_R   0.694191 0.512823 0.450108 -0.036425
C51   C     C_3   0.657407 0.530915 0.386680 -0.240321
C52   C     C_3   0.792554 0.216971 0.951483 0.141726
C53   C     C_3   0.729106 0.532641 0.387897 0.117576
C54   C     C_R   0.242002 0.563285 0.545926 0.046007
C55   C     C_R   0.184193 0.498530 0.498227 0.014458
C56   C     C_1   0.837857 0.337698 0.175251 0.029707
C57   C     C_R   0.192274 0.431063 0.448891 -0.148707
C58   C     C_R   0.256858 0.431199 0.448380 -0.148006
C59   C     C_R   0.314801 0.498473 0.499389 0.014645
C60   C     C_R   0.304960 0.563081 0.547809 -0.018778
C61   C     C_3   0.340025 0.645135 0.608718 -0.185674
C62   C     C_3   0.268335 0.645408 0.607219 0.103413
C63   C     C_3   0.842201 0.269069 0.049471 0.093850
C64   C     C_1   0.875444 0.375206 0.250557 0.012225
C65   C     C_3   0.708438 0.209597 0.917129 0.093775
C66   C     C_1   0.662225 0.162868 0.824738 0.075202
C67   C     C_1   0.624602 0.124920 0.749431 0.019235
C68   C     C_R   0.436987 0.195016 0.452208 0.019093
Cu1   Cu    Cu3+1 0.438190 0.000000 0.500020 0.946532
Cu2   Cu    Cu3+1 0.561810 0.000000 0.499980 0.978652
Cu3   Cu    Cu3+1 0.000200 0.561800 0.500000 0.992754
Cu4   Cu    Cu3+1 0.000170 0.438200 0.500000 0.960801
Cu5   Cu    Cu3+1 0.541330 0.541310 0.582630 0.964508
Cu6   Cu    Cu3+1 0.458770 0.458690 0.417370 0.940924
H1    H     H_    0.787525 0.388066 0.074245 0.209975
H2    H     H_    0.303590 0.761216 0.928386 0.133275
H3    H     H_    0.201093 0.839774 0.071890 0.120769
H4    H     H_    0.129541 0.768201 0.928604 0.122234
H5    H     H_    0.136702 0.650455 0.928266 0.122151
H6    H     H_    0.798341 0.160898 0.934257 0.188975
H7    H     H_    0.198281 0.813815 0.928673 0.124443
H8    H     H_    0.353630 0.623624 0.362299 0.188543
H9    H     H_    0.328516 0.662713 0.440483 0.089431
H10   H     H_    0.325068 0.772191 0.437776 0.118032
H11   H     H_    0.853618 0.473394 0.593485 0.131107
H12   H     H_    0.771032 0.185746 0.067341 0.191676
H13   H     H_    0.740345 0.474402 0.594276 0.126667
H14   H     H_    0.608074 0.483962 0.326850 0.128400
H15   H     H_    0.609465 0.275212 0.954570 0.294099
H16   H     H_    0.714188 0.357191 0.076216 0.091645
H17   H     H_    0.620267 0.239621 0.592813 0.136577
H18   H     H_    0.341989 0.218612 0.327403 0.147050
H19   H     H_    0.210447 0.613640 0.928084 0.125895
H20   H     H_    0.683543 0.302592 0.865518 0.357240
H21   H     H_    0.282000 0.685218 0.071367 0.131374
H22   H     H_    0.269828 0.885398 0.071964 0.118998
H23   H     H_    0.620099 0.353702 0.593561 0.128183
H24   H     H_    0.208257 0.722033 0.071547 0.126367
H25   H     H_    0.617560 0.829383 0.544282 0.168677
H26   H     H_    0.626912 0.664076 0.538397 0.329537
H27   H     H_    0.344251 0.777019 0.349192 0.336960
H28   H     H_    0.825103 0.290079 0.936453 0.403510
H29   H     H_    0.647980 0.585767 0.412306 0.170467
H30   H     H_    0.721606 0.487778 0.328793 0.156821
H31   H     H_    0.776990 0.640087 0.473630 0.346406
H32   H     H_    0.148632 0.378873 0.410184 0.131885
H33   H     H_    0.261959 0.379144 0.409477 0.121226
H34   H     H_    0.326737 0.263774 0.413884 0.134086
H35   H     H_    0.390345 0.660430 0.669148 0.186587
H36   H     H_    0.347267 0.672657 0.580599 0.087623
H37   H     H_    0.231559 0.660567 0.675056 0.333757
H38   H     H_    0.235076 0.675546 0.581602 0.121829
H39   H     H_    0.934556 0.317117 0.074475 0.344893
H40   H     H_    0.873735 0.237065 0.073642 0.091037
H41   H     H_    0.626257 0.167449 0.929400 0.155743
H42   H     H_    0.664048 0.074026 0.929938 0.348031
H43   H     H_    0.660840 0.257939 0.063768 0.315227
H44   H     H_    0.325701 0.152793 0.415547 0.151677
H45   H     H_    0.341944 0.107998 0.329835 0.135005
H46   H     H_    0.375152 0.832805 0.071687 0.124652
H47   H     H_    0.380166 0.750370 0.071441 0.128251
H48   H     H_    0.308605 0.678786 0.928148 0.130848
O1    O     O_R   0.447800 0.090170 0.500010 -0.506907
O2    O     O_R   0.555400 0.465140 0.430260 -0.507512
O3    O     O_R   0.534920 0.444720 0.569790 -0.508974
O4    O     O_R   0.552190 0.090170 0.499980 -0.511744
O5    O     O_R   0.465190 0.374940 0.430230 -0.509975
O6    O     O_R   0.444700 0.534860 0.569740 -0.503633
O7    O     O_R   0.374970 0.465080 0.430180 -0.514523
O8    O     O_R   0.534910 0.625060 0.569770 -0.503602
O9    O     O_R   0.465180 0.555280 0.430210 -0.512519
O10   O     O_R   0.508090 0.060280 0.620580 -0.499511
O11   O     O_R   0.612480 0.060280 0.620550 -0.496010
O12   O     O_R   0.909990 0.447840 0.500030 -0.515651
O13   O     O_R   0.447810 0.909830 0.500020 -0.517069
O14   O     O_R   0.552200 0.909830 0.499990 -0.511000
O15   O     O_R   0.387520 0.939720 0.379450 -0.514888
O16   O     O_R   0.491910 0.939720 0.379420 -0.497032
O17   O     O_R   0.910020 0.552220 0.500020 -0.473689
O18   O     O_3   0.622504 0.283249 0.921503 -0.687456
O19   O     O_3   0.720938 0.326669 0.926111 -0.661342
O20   O     O_3   0.634256 0.713178 0.546694 -0.698693
O21   O     O_3   0.350732 0.730958 0.346986 -0.688793
O22   O     O_3   0.817017 0.236458 0.913046 -0.689979
O23   O     O_R   0.939920 0.491910 0.379430 -0.492342
O24   O     O_3   0.769573 0.603471 0.419160 -0.659934
O25   O     O_3   0.280824 0.664048 0.683140 -0.686692
O26   O     O_3   0.893463 0.332862 0.079370 -0.693028
O27   O     O_3   0.689771 0.099058 0.917446 -0.736977
O28   O     O_3   0.695726 0.232959 0.084084 -0.706054
O29   O     O_R   0.939890 0.387530 0.379440 -0.504835
O30   O     O_R   0.090380 0.552160 0.499970 -0.522106
O31   O     O_R   0.090350 0.447780 0.499980 -0.508341
O32   O     O_R   0.060480 0.612470 0.620560 -0.511635
O33   O     O_R   0.060450 0.508090 0.620570 -0.503123
O34   O     O_R   0.625130 0.534920 0.569820 -0.513031

loop_
_geom_bond_atom_site_label_1
_geom_bond_atom_site_label_2
_ccdc_geom_bond_type
C25   C31   A    
Cu6   O2    S    
C27   C29   A    
C18   C21   S    
C11   C13   S    
Cu5   Cu6   S    
C41   O5    A    
C19   C20   S    
C61   H35   S    
C34   O28   S    
C23   C56   S    
C4    O10   A    
C54   C60   A    
C33   O21   S    
C12   C23   S    
C27   H25   S    
C26   C27   A    
C52   O22   S    
C20   H3    S    
C47   H11   S    
C14   C21   T    
C12   H16   S    
C1    C2    S    
C2    C68   A    
C10   C15   S    
C30   C31   A    
Cu1   O1    S    
C53   H30   S    
C51   H29   S    
C17   H5    S    
C3    H17   S    
C58   H33   S    
C34   H12   S    
C10   H24   S    
C35   O17   A    
C7    C68   A    
C54   C55   A    
C63   H40   S    
C11   C15   S    
C44   C53   S    
C15   C22   S    
Cu6   O5    S    
C8    C9    S    
C6    C41   S    
Cu2   O11   S    
C56   C64   T    
H43   O28   S    
C8    H18   S    
C42   O6    A    
Cu2   O4    S    
C23   C63   S    
C57   H32   S    
C20   H22   S    
C59   C60   A    
Cu1   O13   S    
Cu4   O33   S    
C40   O19   S    
Cu2   O14   S    
C9    H44   S    
C11   H47   S    
H28   O22   S    
C38   O33   A    
C11   H46   S    
C8    H34   S    
C35   O12   A    
H42   O27   S    
C44   C46   A    
C50   C51   S    
C43   O8    A    
C16   C26   S    
C15   C20   S    
Cu6   O9    S    
Cu5   O8    S    
C41   O3    A    
C7    C8    S    
C28   O16   A    
C1    O4    A    
C19   H7    S    
C18   C19   S    
Cu3   O17   S    
C54   C62   S    
C25   C26   A    
Cu3   O32   S    
C39   O2    A    
C60   C61   S    
C51   C53   S    
C12   C40   S    
C19   H4    S    
C1    O1    A    
C29   C30   A    
H37   O25   S    
C14   C38   S    
C45   H41   S    
Cu4   O12   S    
C47   C48   A    
C13   H2    S    
C23   C34   S    
C17   C18   S    
C48   H13   S    
C34   C45   S    
C61   H36   S    
C13   C18   S    
C48   C49   A    
C39   C49   S    
C5    H23   S    
Cu2   O16   S    
C62   O25   S    
C55   C57   A    
C45   C65   S    
C9    H45   S    
C22   C24   T    
C30   C43   S    
Cu6   O7    S    
C17   H19   S    
C38   O32   A    
C37   O30   A    
C29   O20   S    
C16   O14   A    
C63   O26   S    
Cu4   O29   S    
H39   O26   S    
C51   H14   S    
C44   C50   A    
Cu1   O15   S    
C32   H9    S    
C46   C47   A    
Cu4   O31   S    
Cu3   O23   S    
H20   O19   S    
C31   C32   S    
C28   O15   A    
C24   C28   S    
C3    C5    A    
C52   C63   S    
C42   C59   S    
C4    C67   S    
C36   O29   A    
C6    C7    A    
Cu5   O6    S    
C32   H8    S    
C35   C46   S    
C39   O34   A    
C40   C65   S    
C32   C33   S    
C37   O31   A    
C43   O9    A    
C2    C3    A    
C58   C59   A    
C9    C68   S    
Cu3   Cu4   S    
C52   H6    S    
C13   H48   S    
H27   O21   S    
C57   C58   A    
C5    C6    A    
C10   H21   S    
Cu1   O10   S    
Cu5   O3    S    
H31   O24   S    
C40   O18   S    
Cu5   O34   S    
C53   O24   S    
C66   C67   T    
C42   O7    A    
C45   O27   S    
C65   C66   S    
C61   C62   S    
C33   H10   S    
Cu1   Cu2   S    
C37   C55   S    
C36   O23   A    
C62   H38   S    
C49   C50   A    
C12   H1    S    
Cu3   O30   S    
H15   O18   S    
H26   O20   S    
C10   C17   S    
C36   C64   S    
C16   O13   A    
C52   C65   S    
C25   C33   S    
C4    O11   A    
