data_mof_unit_6044.cif
_audit_creation_date              2012-10-26T18:53:53-0400
_audit_creation_method            fapswitch 2.2
_symmetry_space_group_name_H-M    P1
_symmetry_Int_Tables_number       1
_space_group_crystal_system       triclinic
_cell_length_a                    14.879595
_cell_length_b                    15.094683
_cell_length_c                    17.164003
_cell_angle_alpha                 108.561647
_cell_angle_beta                  73.248994
_cell_angle_gamma                 116.537477
_cell_volume                      3220.70861297

loop_
_atom_site_label
_atom_site_type_symbol
_atom_type_description
_atom_site_fract_x
_atom_site_fract_y
_atom_site_fract_z
_atom_type_partial_charge
C1    C     C_R   0.118672 0.687350 0.513487 0.548353
C2    C     C_R   0.711186 0.177334 0.507627 -0.146292
C3    C     C_R   0.358822 0.922933 0.512512 0.022581
C4    C     C_R   0.641177 0.077067 0.487488 0.022581
C5    C     C_R   0.320064 0.999700 0.555111 0.065671
C6    C     C_R   0.679936 0.000300 0.444889 0.065671
C7    C     C_R   0.466043 0.948314 0.491250 0.035286
C8    C     C_R   0.533957 0.051686 0.508749 0.035286
C9    C     C_R   0.492499 0.126670 0.545054 -0.137244
C10   C     C_R   0.507501 0.873330 0.454945 -0.137244
C11   C     C_R   0.388453 0.101079 0.569154 -0.128186
C12   C     C_R   0.881328 0.312650 0.486513 0.548353
C13   C     C_R   0.611547 0.898921 0.430845 -0.128186
C14   C     C_R   0.308413 0.353508 0.341826 -0.165283
C15   C     C_R   0.691587 0.646491 0.658174 -0.165282
C16   C     C_R   0.991094 0.506462 0.653127 0.545628
C17   C     C_R   0.008906 0.493538 0.346873 0.545628
C18   C     C_R   0.216210 0.365826 0.375062 0.112662
C19   C     C_R   0.783790 0.634173 0.624938 0.112662
C20   C     C_R   0.288886 0.491889 0.490141 0.119641
C21   C     C_R   0.711114 0.508111 0.509859 0.119640
C22   C     C_R   0.374812 0.464547 0.467416 0.006449
C23   C     C_R   0.185390 0.795393 0.523876 -0.015718
C24   C     C_R   0.625188 0.535453 0.532584 0.006449
C25   C     C_R   0.390464 0.407179 0.385690 0.005201
C26   C     C_R   0.609535 0.592821 0.614310 0.005201
C27   C     C_R   0.451068 0.500964 0.518444 0.004456
C28   C     C_R   0.548932 0.499036 0.481556 0.004456
C29   C     C_R   0.568880 0.464811 0.394346 -0.147963
C30   C     C_R   0.431120 0.535189 0.605654 -0.147963
C31   C     C_R   0.489492 0.410851 0.348255 -0.007962
C32   C     C_R   0.510507 0.589148 0.651745 -0.007962
C33   C     C_R   0.992898 0.519706 0.741151 -0.006045
C34   C     C_R   0.814610 0.204607 0.476124 -0.015718
C35   C     C_R   0.007103 0.480295 0.258849 -0.006046
C36   C     C_R   0.080424 0.528731 0.763571 -0.118427
C37   C     C_R   0.919579 0.471278 0.236430 -0.118426
C38   C     C_R   0.085688 0.543467 0.846678 0.002001
C39   C     C_R   0.914315 0.456545 0.153323 0.002003
C40   C     C_R   0.999356 0.544437 0.908739 0.070630
C41   C     C_R   0.000646 0.455570 0.091261 0.070629
C42   C     C_R   0.912327 0.540184 0.887005 0.007995
C43   C     C_R   0.087673 0.459816 0.112995 0.007994
C44   C     C_R   0.910281 0.527890 0.803144 -0.105055
C45   C     C_R   0.213441 0.973109 0.581698 -0.000173
C46   C     C_R   0.089718 0.472106 0.196855 -0.105053
C47   C     C_2   0.996527 0.539790 0.993578 -0.142521
C48   C     C_2   0.003477 0.460218 0.006423 -0.142520
C49   C     C_1   0.513478 0.365287 0.261221 0.171266
C50   C     C_1   0.486520 0.634709 0.738780 0.171266
C51   C     C_3   0.697483 0.402638 0.457459 -0.329595
C52   C     C_3   0.302517 0.597362 0.542540 -0.329595
C53   C     C_1   0.865990 0.691398 0.671800 0.241498
C54   C     C_1   0.134010 0.308602 0.328200 0.241497
C55   C     C_3   0.818892 0.544941 0.949838 -0.402287
C56   C     C_R   0.786559 0.026891 0.418302 -0.000172
C57   C     C_3   0.181109 0.455061 0.050161 -0.402286
C58   C     C_3   0.814768 0.440791 0.134012 -0.397893
C59   C     C_3   0.185239 0.559234 0.865991 -0.397887
C60   C     C_3   0.168541 0.051687 0.627037 -0.404987
C61   C     C_3   0.831460 0.948313 0.372962 -0.404987
C62   C     C_R   0.147506 0.870606 0.567312 -0.101009
C63   C     C_R   0.852493 0.129393 0.432687 -0.101009
C64   C     C_R   0.288814 0.822666 0.492373 -0.146292
Cu1   Cu    Cu3+1 0.916740 0.524770 0.521640 0.947553
Cu2   Cu    Cu3+1 0.083260 0.475230 0.478360 0.947553
H1    H     H_    0.146224 0.525944 0.716394 0.121781
H2    H     H_    0.843102 0.522972 0.786264 0.137241
H3    H     H_    0.014969 0.400495 0.954160 0.133088
H4    H     H_    0.985035 0.599514 0.045841 0.133087
H5    H     H_    0.362456 0.162401 0.598437 0.114840
H6    H     H_    0.637544 0.837599 0.401562 0.114839
H7    H     H_    0.687592 0.236206 0.549059 0.115134
H8    H     H_    0.312408 0.763794 0.450941 0.115135
H9    H     H_    0.933507 0.150516 0.409818 0.149383
H10   H     H_    0.066493 0.849484 0.590182 0.149382
H11   H     H_    0.680602 0.354338 0.500366 0.142621
H12   H     H_    0.853780 0.474070 0.283607 0.121783
H13   H     H_    0.628680 0.360194 0.428534 0.089765
H14   H     H_    0.763450 0.402058 0.407525 0.166109
H15   H     H_    0.371320 0.639806 0.571466 0.089764
H16   H     H_    0.319399 0.645661 0.499633 0.142621
H17   H     H_    0.236550 0.597943 0.592474 0.166109
H18   H     H_    0.828144 0.560697 0.015182 0.128154
H19   H     H_    0.801082 0.606508 0.944318 0.140981
H20   H     H_    0.753043 0.471649 0.937058 0.138306
H21   H     H_    0.171861 0.439314 0.984817 0.128155
H22   H     H_    0.246959 0.528351 0.062946 0.138306
H23   H     H_    0.538060 0.206907 0.555454 0.098968
H24   H     H_    0.198917 0.393489 0.055674 0.140980
H25   H     H_    0.750962 0.382058 0.165326 0.157357
H26   H     H_    0.802712 0.512887 0.157639 0.126431
H27   H     H_    0.811404 0.413715 0.066437 0.153076
H28   H     H_    0.249038 0.617978 0.834683 0.157357
H29   H     H_    0.188600 0.586303 0.933567 0.153072
H30   H     H_    0.197310 0.487146 0.842358 0.126436
H31   H     H_    0.084142 0.016596 0.643622 0.134948
H32   H     H_    0.199396 0.094892 0.685764 0.136689
H33   H     H_    0.187526 0.104573 0.586740 0.131945
H34   H     H_    0.461940 0.793093 0.444545 0.098968
H35   H     H_    0.915858 0.983404 0.356378 0.134948
H36   H     H_    0.812474 0.895427 0.413260 0.131944
H37   H     H_    0.800605 0.905108 0.314235 0.136689
H38   H     H_    0.316081 0.303359 0.281234 0.123228
H39   H     H_    0.683918 0.696640 0.718766 0.123227
H40   H     H_    0.646019 0.474910 0.362327 0.109311
H41   H     H_    0.353980 0.525089 0.637673 0.109312
H42   H     H_    0.156895 0.477020 0.213733 0.137243
N1    N     N_R   0.208390 0.438070 0.445820 -0.235925
N2    N     N_R   0.791610 0.561930 0.554180 -0.235925
N3    N     N_1   0.532623 0.328810 0.191541 -0.319703
N4    N     N_1   0.467375 0.671183 0.808460 -0.319705
N5    N     N_1   0.931509 0.737680 0.710137 -0.321552
N6    N     N_1   0.068491 0.262319 0.289863 -0.321552
O1    O     O_R   0.020090 0.662480 0.528530 -0.489438
O2    O     O_R   0.979910 0.337520 0.471470 -0.489438
O3    O     O_R   0.160710 0.620650 0.491980 -0.525120
O4    O     O_R   0.839290 0.379350 0.508020 -0.525120
O5    O     O_R   0.921540 0.523360 0.633990 -0.491247
O6    O     O_R   0.078460 0.476640 0.366010 -0.491247
O7    O     O_R   0.062170 0.481520 0.597440 -0.516607
O8    O     O_R   0.937830 0.518480 0.402560 -0.516608

loop_
_geom_bond_atom_site_label_1
_geom_bond_atom_site_label_2
_ccdc_geom_bond_type
C25   C31   A    
C40   C47   S    
C38   C40   A    
C45   C60   S    
C26   C32   A    
C30   H41   S    
C7    C10   A    
C41   C43   A    
C14   C18   A    
C2    C4    A    
C18   N1    A    
C48   H3    S    
C4    C8    A    
C60   H33   S    
C21   N2    A    
C36   H1    S    
C7    C8    A    
C39   C41   A    
C3    C64   A    
C15   C19   A    
Cu2   O2    S    
C28   C29   A    
C35   C37   A    
C58   H27   S    
C24   C26   A    
C5    C11   A    
C3    C7    A    
C16   C33   S    
C11   H5    S    
C45   C62   A    
C33   C36   A    
C51   H14   S    
C17   O6    A    
C23   C62   A    
C10   H34   S    
C8    C9    A    
C22   C25   A    
C46   H42   S    
Cu1   O4    S    
C59   H28   S    
C58   H25   S    
C49   N3    T    
C38   C59   S    
C2    C34   A    
C40   C42   A    
Cu2   N1    S    
Cu2   O6    S    
C27   C30   A    
Cu1   O1    S    
C62   H10   S    
C42   C44   A    
C31   C49   S    
C53   N5    T    
C37   C39   A    
Cu2   O7    S    
C57   H24   S    
C4    C6    A    
C60   H31   S    
C16   O5    A    
C9    H23   S    
C18   C54   S    
C15   C26   A    
C39   C58   S    
C5    C45   A    
Cu2   O3    S    
C57   H21   S    
C55   H19   S    
C52   H17   S    
C61   H35   S    
C16   O7    A    
C51   H11   S    
C47   H4    S    
C42   C55   S    
C14   H38   S    
C47   C48   D    
C50   N4    T    
Cu1   O5    S    
C56   C63   A    
C1    O3    A    
Cu1   O8    S    
C52   H16   S    
C9    C11   A    
C32   C50   S    
C2    H7    S    
C59   H29   S    
C12   O4    A    
C23   C64   A    
C20   C22   A    
C1    C23   S    
C22   C27   A    
C29   H40   S    
C44   H2    S    
C59   H30   S    
C12   C34   S    
C21   C51   S    
C19   N2    A    
C61   H37   S    
C33   C44   A    
C24   C28   A    
C6    C56   A    
C3    C5    A    
C10   C13   A    
C13   H6    S    
C1    O1    A    
C37   H12   S    
C60   H32   S    
C57   H22   S    
C15   H39   S    
C55   H20   S    
C36   C38   A    
C61   H36   S    
C29   C31   A    
C6    C13   A    
C30   C32   A    
C19   C53   S    
C63   H9    S    
C54   N6    T    
C34   C63   A    
C41   C48   S    
C14   C25   A    
C52   H15   S    
C43   C46   A    
C51   H13   S    
Cu1   N2    S    
C43   C57   S    
C20   N1    A    
C17   O8    A    
C20   C52   S    
Cu1   Cu2   S    
C21   C24   A    
C27   C28   A    
C64   H8    S    
C56   C61   S    
C17   C35   S    
C55   H18   S    
C35   C46   A    
C58   H26   S    
C12   O2    A    
