data_mof_unit_18816.cif
_audit_creation_date              2012-12-11T17:01:16-0500
_audit_creation_method            fapswitch 2.2
_symmetry_space_group_name_H-M    P1
_symmetry_Int_Tables_number       1
_space_group_crystal_system       triclinic
_cell_length_a                    15.196352
_cell_length_b                    14.978767
_cell_length_c                    15.024915
_cell_angle_alpha                 109.759354
_cell_angle_beta                  109.245099
_cell_angle_gamma                 110.194387
_cell_volume                      2606.76777214

loop_
_atom_site_label
_atom_site_type_symbol
_atom_type_description
_atom_site_fract_x
_atom_site_fract_y
_atom_site_fract_z
_atom_type_partial_charge
C1    C     C_R   0.936726 0.750755 0.029759 0.006170
C2    C     C_R   0.223160 0.750382 0.314695 -0.055053
C3    C     C_R   0.907248 0.410188 0.210662 -0.249656
C4    C     C_R   0.791579 0.194507 0.701249 -0.058984
C5    C     C_R   0.300291 0.590774 0.998598 -0.100352
C6    C     C_R   0.933232 0.503769 0.299733 -0.044811
C7    C     C_R   0.303694 0.498037 0.945213 0.239582
C8    C     C_R   0.324779 0.775511 0.324811 0.053355
C9    C     C_R   0.931841 0.131586 0.933941 -0.041669
C10   C     C_3   0.483105 0.390101 0.892702 0.524923
C11   C     C_3   0.381656 0.398523 0.864531 -0.542131
C12   C     C_R   0.696981 0.131488 0.696370 0.030509
C13   C     C_3   0.565930 0.508895 0.105232 0.762899
C14   C     C_3   0.589137 0.597267 0.989434 0.424592
C15   C     C_3   0.581728 0.496359 0.004333 -0.332101
C16   C     C_R   0.044586 0.592667 0.778486 -0.175131
C17   C     C_3   0.403869 0.498342 0.964958 -0.156197
C18   C     C_3   0.450593 0.493514 0.073998 0.687208
C19   C     C_3   0.488816 0.605415 0.979629 0.219764
C20   C     C_R   0.621648 0.960840 0.521623 0.073596
C21   C     C_R   0.618652 0.013823 0.616328 -0.023973
C22   C     C_R   0.528113 0.955528 0.622968 -0.123683
C23   C     C_R   0.974076 0.502073 0.674798 -0.068646
C24   C     C_R   0.433067 0.863678 0.527689 -0.130816
C25   C     C_R   0.428549 0.831030 0.425958 -0.021637
C26   C     C_R   0.527568 0.870984 0.427224 0.139692
C27   C     C_3   0.560665 0.907162 0.355909 0.210727
C28   C     C_R   0.689904 0.404901 0.978159 -0.236978
C29   C     C_3   0.663971 0.004960 0.459511 0.212953
C30   C     C_R   0.988920 0.609043 0.490165 -0.070845
C31   C     C_R   0.911595 0.513535 0.387891 -0.034338
C32   C     C_R   0.830359 0.424171 0.381024 0.513886
C33   C     C_R   0.846756 0.422229 0.477499 -0.137237
C34   C     C_R   0.682252 0.496361 0.024789 0.039910
C35   C     C_R   0.939685 0.510188 0.577971 -0.026144
C36   C     C_R   0.001530 0.608305 0.584120 -0.098319
C37   C     C_3   0.122896 0.686365 0.644150 0.749122
C38   C     C_3   0.108715 0.685511 0.539411 0.440889
C39   C     C_R   0.866377 0.892607 0.973053 -0.152917
C40   C     C_R   0.947745 0.408709 0.684176 0.711782
C41   C     C_R   0.915320 0.846268 0.923821 0.111438
C42   C     C_R   0.929551 0.867388 0.843756 -0.152998
C43   C     C_R   0.919500 0.953335 0.833801 -0.127077
C44   C     C_R   0.895257 0.017045 0.904007 0.070226
C45   C     C_R   0.991694 0.592864 0.295159 0.792059
C46   C     C_R   0.855425 0.976587 0.962659 -0.000622
C47   C     C_3   0.879048 0.035878 0.078551 0.558511
C48   C     C_3   0.892198 0.944498 0.090494 0.699194
C49   C     C_R   0.783508 0.589370 0.079023 0.745165
C50   C     C_R   0.698168 0.196387 0.788383 -0.081265
C51   C     C_R   0.037552 0.765235 0.949796 -0.137752
C52   C     C_R   0.960572 0.788149 0.964187 0.064351
C53   C     C_R   0.209571 0.406461 0.911394 -0.095251
C54   C     C_R   0.312120 0.745671 0.221624 -0.142838
C55   C     C_R   0.899234 0.194194 0.989355 0.485537
C56   C     C_R   0.997413 0.195409 0.907213 -0.179751
F1    F     F_    0.460023 0.292211 0.892686 -0.738530
F2    F     F_    0.599197 0.586946 0.898339 -0.674444
F3    F     F_    0.156206 0.635000 0.493371 -0.703338
F4    F     F_    0.788976 0.035072 0.082609 -0.623128
F5    F     F_    0.889286 0.302063 0.601701 -0.739035
F6    F     F_    0.821222 0.690625 0.162410 -0.634519
F7    F     F_    0.005050 0.694586 0.345480 -0.691888
H1    H     H_    0.879476 0.753781 0.055366 0.192866
H2    H     H_    0.826857 0.163910 0.655931 0.193639
H3    H     H_    0.312664 0.318475 0.837765 0.209915
H4    H     H_    0.660433 0.677130 0.060491 0.166527
H5    H     H_    0.514820 0.678070 0.057431 0.082371
H6    H     H_    0.524921 0.987655 0.697253 0.150804
H7    H     H_    0.088261 0.677012 0.800998 0.200093
H8    H     H_    0.360681 0.828896 0.532553 0.166349
H9    H     H_    0.508160 0.931628 0.310943 0.018033
H10   H     H_    0.672133 0.086439 0.475282 0.072794
H11   H     H_    0.790698 0.349989 0.472667 0.197801
H12   H     H_    0.181740 0.319867 0.864363 0.115791
H13   H     H_    0.129190 0.766846 0.545337 0.103373
H14   H     H_    0.631154 0.318328 0.938538 0.213260
H15   H     H_    0.959945 0.826850 0.798163 0.150009
H16   H     H_    0.943610 0.977671 0.781678 0.145757
H17   H     H_    0.954461 0.118801 0.132361 0.009360
H18   H     H_    0.645076 0.169040 0.818690 0.118542
H19   H     H_    0.081920 0.796018 0.913796 0.130962
H20   H     H_    0.783112 0.207652 0.005200 0.312382
H21   H     H_    0.545277 0.360949 0.074824 0.364598
H22   H     H_    0.372734 0.330156 0.002565 0.345938
H23   H     H_    0.371646 0.747577 0.197885 0.151696
H24   H     H_    0.492804 0.698637 0.915448 0.353453
H25   H     H_    0.650225 0.619557 0.262489 0.399632
H26   H     H_    0.393642 0.555134 0.163860 0.359138
H27   H     H_    0.595093 0.858841 0.242563 0.334373
H28   H     H_    0.782243 0.034909 0.430591 0.363492
H29   H     H_    0.727547 0.358748 0.228060 0.338696
H30   H     H_    0.234058 0.838265 0.754839 0.341430
H31   H     H_    0.152768 0.565141 0.621232 0.349000
H32   H     H_    0.010147 0.022823 0.239638 0.353333
H33   H     H_    0.741921 0.842374 0.044457 0.336982
H34   H     H_    0.024131 0.167084 0.850716 0.134995
H35   H     H_    0.202868 0.761202 0.378512 0.153442
H36   H     H_    0.854519 0.325412 0.184813 0.200685
H37   H     H_    0.357239 0.676019 0.029303 0.126496
H38   H     H_    0.501594 0.383300 0.825684 0.165407
H39   H     H_    0.359657 0.409791 0.792367 0.244579
N1    N     N_R   0.995640 0.706130 0.053910 -0.057868
N2    N     N_R   0.054010 0.556790 0.847890 -0.084512
N3    N     N_R   0.789940 0.443190 0.997130 -0.100025
N4    N     N_R   0.997630 0.443170 0.791110 -0.112334
N5    N     N_R   0.846320 0.556810 0.053910 -0.134481
N6    N     N_R   0.791080 0.293860 0.847890 -0.058119
N7    N     N_R   0.052880 0.706130 0.997130 -0.051575
N8    N     N_R   0.002370 0.556830 0.208890 -0.118721
N9    N     N_R   0.153680 0.443190 0.946090 -0.054449
N10   N     N_R   0.208920 0.706140 0.152110 -0.050167
N11   N     N_R   0.947120 0.293870 0.002870 -0.101429
N12   N     N_R   0.004360 0.293870 0.946090 -0.061816
N13   N     N_R   0.151690 0.706140 0.208890 -0.044494
N14   N     N_R   0.945990 0.443210 0.152110 -0.090516
N15   N     N_R   0.210060 0.556810 0.002870 -0.065243
N16   N     N_R   0.848310 0.293860 0.791110 -0.057830
Ni1   Ni    Ni4+2 0.999010 0.630300 0.130220 0.331521
Ni2   Ni    Ni4+2 0.000990 0.369700 0.869780 0.240929
Ni3   Ni    Ni4+2 0.130280 0.630280 0.000000 0.234276
Ni4   Ni    Ni4+2 0.869720 0.369720 0.000000 0.203233
O1    O     O_3   0.801937 0.149492 0.986448 -0.701476
O2    O     O_3   0.156036 0.790067 0.727757 -0.786826
O3    O     O_3   0.186874 0.642712 0.679904 -0.695080
O4    O     O_3   0.999203 0.981705 0.165763 -0.755375
O5    O     O_3   0.815224 0.881215 0.109651 -0.679559
O6    O     O_3   0.579751 0.434654 0.139005 -0.723863
O7    O     O_3   0.379966 0.392900 0.061171 -0.733401
O8    O     O_3   0.444290 0.620528 0.891419 -0.651663
O9    O     O_3   0.646395 0.617038 0.194309 -0.664865
O10   O     O_3   0.461589 0.581300 0.160789 -0.711564
O11   O     O_3   0.578686 0.831631 0.290158 -0.633150
O12   O     O_3   0.757130 0.000106 0.469848 -0.647524
O13   O     O_3   0.740098 0.335424 0.283197 -0.714019

loop_
_geom_bond_atom_site_label_1
_geom_bond_atom_site_label_2
_ccdc_geom_bond_type
H21   O6    S    
C6    C45   A    
C27   C29   S    
C41   C42   A    
C18   O10   S    
C35   C36   A    
H30   O2    S    
C3    C6    A    
N2    N4    A    
C39   C41   A    
C38   H13   S    
N3    N5    A    
C26   C27   S    
H26   O10   S    
N14   Ni4   S    
C13   C18   S    
C47   H17   S    
H24   O8    S    
C40   N4    A    
C36   C37   S    
C3    N14   A    
C30   C31   A    
C29   H10   S    
N9    N15   A    
C43   H16   S    
C23   C40   A    
C30   C38   S    
N15   Ni3   S    
H22   O7    S    
C47   F4    S    
C13   O6    S    
C16   N2    A    
N11   Ni4   S    
C31   C32   A    
C7    C17   S    
C14   H4    S    
C9    C55   A    
C4    C12   A    
C1    N1    A    
C41   C52   S    
C11   H3    S    
C53   N9    A    
C19   O8    S    
C29   O12   S    
C28   C34   A    
C51   N7    A    
C21   C22   A    
C50   N6    A    
C8    C25   S    
C4    N16   A    
C53   H12   S    
C56   H34   S    
N5    Ni1   S    
C44   C46   A    
C37   O3    S    
C20   C29   S    
C14   F2    S    
C55   O1    S    
C51   C52   A    
C27   O11   S    
N6    N16   A    
C10   F1    S    
C16   H7    S    
C24   C25   A    
C49   N5    A    
C8    C54   A    
C5    C7    A    
H27   O11   S    
C45   N8    A    
C17   C19   S    
N2    Ni3   S    
C55   N11   A    
C25   C26   A    
C12   C21   S    
C45   F7    S    
C40   F5    S    
H33   O5    S    
C5    N15   A    
N9    Ni2   S    
C43   C44   A    
C37   C38   S    
C37   O2    S    
C2    N13   A    
C47   C48   S    
C5    H37   S    
C28   N3    A    
C17   C18   S    
C13   O9    S    
C54   N10   A    
C19   H5    S    
C9    C56   A    
C28   H14   S    
C51   H19   S    
C39   C46   A    
C42   H15   S    
C16   C23   A    
C23   C35   S    
C13   C15   S    
C22   C24   A    
H29   O13   S    
C42   C43   A    
C7    C53   A    
C1    H1    S    
N8    N14   A    
C54   H23   S    
N11   N12   A    
C50   H18   S    
H31   O3    S    
C46   C47   S    
C11   C17   S    
C9    C44   S    
C49   F6    S    
C15   C34   S    
N4    Ni2   S    
C10   C15   S    
C14   C19   S    
C10   H38   S    
N1    Ni1   S    
N6    Ni4   S    
N8    Ni1   S    
C32   O13   S    
C12   C50   A    
N13   Ni1   S    
C30   C36   A    
N1    N7    A    
C32   C33   A    
N10   Ni3   S    
C48   O5    S    
H32   O4    S    
N7    Ni3   S    
C4    H2    S    
H28   O12   S    
C20   C26   A    
C33   C35   A    
N3    Ni4   S    
C6    C31   S    
C11   H39   S    
C1    C52   A    
N16   Ni2   S    
C10   C11   S    
C48   O4    S    
C38   F3    S    
C3    H36   S    
C33   H11   S    
C20   C21   A    
C2    H35   S    
C34   C49   A    
C2    C8    A    
C22   H6    S    
C56   N12   A    
C14   C15   S    
C18   O7    S    
H25   O9    S    
H20   O1    S    
N10   N13   A    
N12   Ni2   S    
C27   H9    S    
C24   H8    S    
C39   C48   S    
