data_mof_unit_47064.cif
_audit_creation_date              2012-12-10T20:34:55-0500
_audit_creation_method            fapswitch 2.2
_symmetry_space_group_name_H-M    P1
_symmetry_Int_Tables_number       1
_space_group_crystal_system       triclinic
_cell_length_a                    10.743823
_cell_length_b                    10.564982
_cell_length_c                    9.981035
_cell_angle_alpha                 86.475457
_cell_angle_beta                  90.210856
_cell_angle_gamma                 93.419403
_cell_volume                      1128.77425156

loop_
_atom_site_label
_atom_site_type_symbol
_atom_type_description
_atom_site_fract_x
_atom_site_fract_y
_atom_site_fract_z
_atom_type_partial_charge
C1    C     C_R   0.517432 0.261782 0.501840 0.995684
C2    C     C_R   0.577424 0.930614 0.611604 -0.112794
C3    C     C_3   0.514664 0.911198 0.745274 0.393368
C4    C     C_R   0.258517 0.505316 0.499328 0.973889
C5    C     C_3   0.525996 0.054343 0.748631 0.990515
C6    C     C_R   0.393610 0.466387 0.073802 -0.051846
C7    C     C_R   0.595559 0.557373 0.067725 0.546171
C8    C     C_R   0.594679 0.559172 0.924386 0.606694
C9    C     C_R   0.399033 0.451581 0.935067 -0.057501
C10   C     C_3   0.335276 0.318578 0.956596 0.889737
C11   C     C_3   0.312613 0.350335 0.101694 0.309368
C12   C     C_3   0.878889 0.500215 0.499584 -0.242657
C13   C     C_R   0.511653 0.740940 0.496375 0.881285
C14   C     C_R   0.742073 0.500048 0.500104 0.966906
C15   C     C_3   0.069831 0.393964 0.595150 0.273404
C16   C     C_3   0.924381 0.387903 0.595831 0.901190
C17   C     C_3   0.077478 0.630049 0.555501 -0.587374
C18   C     C_3   0.068847 0.487303 0.353966 0.308428
C19   C     C_3   0.122109 0.506713 0.498755 -0.287882
C20   C     C_3   0.704079 0.894923 0.203715 -0.056242
C21   C     C_3   0.729864 0.100011 0.839249 -0.198000
C22   C     C_3   0.155804 0.194805 0.894814 -0.191945
C23   C     C_3   0.934045 0.630631 0.544775 -0.546698
C24   C     C_3   0.389357 0.109159 0.029071 -0.152732
C25   C     C_3   0.924229 0.445382 0.828983 -0.314507
C26   C     C_3   0.137682 0.694007 0.254383 -0.102218
C27   C     C_3   0.877140 0.361842 0.167045 -0.030824
C28   C     C_3   0.925723 0.484744 0.352330 0.886331
C29   C     C_R   0.585686 0.060667 0.614625 -0.220865
C30   C     C_R   0.563879 0.135073 0.499166 -0.213811
C31   C     C_R   0.585296 0.080979 0.375892 0.536183
C32   C     C_R   0.578569 0.948001 0.370684 0.357708
C33   C     C_R   0.552763 0.873858 0.491212 -0.277898
F1    F     F_    0.886841 0.585184 0.268821 -0.640933
F2    F     F_    0.604139 0.155284 0.261164 -0.668885
F3    F     F_    0.586867 0.849060 0.840237 -0.630793
F4    F     F_    0.409773 0.103687 0.738568 -0.674706
F5    F     F_    0.692156 0.616432 0.129857 -0.598711
F6    F     F_    0.113050 0.279899 0.557560 -0.615870
F7    F     F_    0.690160 0.620420 0.854098 -0.602637
F8    F     F_    0.190382 0.376613 0.119887 -0.665021
F9    F     F_    0.884830 0.274494 0.541739 -0.618002
H1    H     H_    0.108153 0.407772 0.695690 0.173063
H2    H     H_    0.759049 0.831250 0.270848 0.176240
H3    H     H_    0.750025 0.992295 0.195607 0.148270
H4    H     H_    0.761124 0.166021 0.754077 0.240134
H5    H     H_    0.760448 0.003442 0.824288 0.199593
H6    H     H_    0.776528 0.133623 0.930956 0.166333
H7    H     H_    0.125921 0.179537 0.001235 0.140819
H8    H     H_    0.202881 0.112670 0.859572 0.220224
H9    H     H_    0.069894 0.199637 0.833520 0.193029
H10   H     H_    0.372525 0.026631 0.967001 0.191249
H11   H     H_    0.306014 0.110284 0.093993 0.052569
H12   H     H_    0.121852 0.718051 0.507133 0.206245
H13   H     H_    0.469847 0.087417 0.093116 0.271031
H14   H     H_    0.974276 0.535611 0.797586 0.169031
H15   H     H_    0.987468 0.382760 0.884963 0.181523
H16   H     H_    0.851887 0.467779 0.900630 0.236599
H17   H     H_    0.053740 0.734504 0.294015 0.171605
H18   H     H_    0.153048 0.739974 0.152409 0.166997
H19   H     H_    0.222443 0.719265 0.313055 0.132293
H20   H     H_    0.957760 0.417400 0.119149 0.198426
H21   H     H_    0.788678 0.395495 0.124934 0.193521
H22   H     H_    0.883027 0.261566 0.141864 0.142944
H23   H     H_    0.908669 0.708217 0.471274 0.233012
H24   H     H_    0.416947 0.870458 0.740682 0.068628
H25   H     H_    0.350296 0.289209 0.184564 0.117612
H26   H     H_    0.107388 0.635434 0.661599 0.215105
H27   H     H_    0.892876 0.655025 0.640932 0.260454
H28   H     H_    0.092294 0.388827 0.335298 0.209369
H29   H     H_    0.704412 0.859185 0.101589 0.252483
N1    N     N_R   0.499150 0.499140 0.142800 -0.195593
N2    N     N_R   0.499150 0.499180 0.857150 -0.177416
O1    O     O_R   0.500020 0.316790 0.614690 -0.533771
O2    O     O_3   0.599325 0.100694 0.857144 -0.555075
O3    O     O_3   0.229661 0.309036 0.870924 -0.585115
O4    O     O_3   0.420144 0.221978 0.946137 -0.568085
O5    O     O_3   0.864780 0.381013 0.724486 -0.619988
O6    O     O_3   0.124095 0.561691 0.242327 -0.520073
O7    O     O_3   0.875491 0.366363 0.307873 -0.595068
O8    O     O_R   0.500000 0.316760 0.385350 -0.600876
O9    O     O_R   0.314800 0.500000 0.614670 -0.606479
O10   O     O_R   0.314790 0.499960 0.385330 -0.579025
O11   O     O_R   0.500000 0.683240 0.614650 -0.592786
O12   O     O_R   0.499980 0.683210 0.385310 -0.568716
O13   O     O_R   0.685210 0.500040 0.614670 -0.556077
O14   O     O_R   0.685200 0.500000 0.385330 -0.524422
O15   O     O_3   0.579516 0.893961 0.248108 -0.591197
Zn1   Zn    Zn3+2 0.500010 0.500020 0.653130 1.102060
Zn2   Zn    Zn3+2 0.499990 0.499980 0.346870 1.083793

loop_
_geom_bond_atom_site_label_1
_geom_bond_atom_site_label_2
_ccdc_geom_bond_type
C24   H10   S    
C18   H28   S    
C5    F4    S    
C23   H27   S    
C25   H14   S    
C22   O3    S    
C6    C9    A    
C7    C8    A    
C24   H13   S    
C6    N1    A    
C12   C23   S    
C17   C23   S    
O9    Zn1   S    
C25   H15   S    
C12   C28   S    
C2    C29   A    
C1    O1    A    
O1    Zn1   S    
C26   H19   S    
C14   O14   A    
C30   C31   A    
C1    O8    A    
C15   C16   S    
C32   O15   S    
C18   C19   S    
C1    C30   S    
C4    C19   S    
C10   O3    S    
C12   C16   S    
C18   O6    S    
C20   H29   S    
C26   H17   S    
C20   H3    S    
C22   H8    S    
C21   H6    S    
C28   F1    S    
C9    N2    A    
C20   H2    S    
C10   O4    S    
C11   H25   S    
C5    C29   S    
C25   O5    S    
C18   C28   S    
C14   O13   A    
C27   O7    S    
C10   C11   S    
C7    N1    A    
C24   H11   S    
C5    O2    S    
C15   C19   S    
C13   C33   S    
C29   C30   A    
C27   H20   S    
N1    Zn2   S    
C31   C32   A    
C13   O11   A    
C15   F6    S    
C27   H21   S    
C22   H7    S    
O8    Zn2   S    
C2    C33   A    
C12   C14   S    
C31   F2    S    
C3    H24   S    
C25   H16   S    
C16   F9    S    
C6    C11   S    
C21   H4    S    
C9    C10   S    
O10   Zn2   S    
C17   H26   S    
C3    C5    S    
O13   Zn1   S    
O12   Zn2   S    
C21   O2    S    
C26   O6    S    
C32   C33   A    
C23   H23   S    
C2    C3    S    
N2    Zn1   S    
C4    O10   A    
C3    F3    S    
C20   O15   S    
C8    N2    A    
C17   C19   S    
C7    F5    S    
C11   F8    S    
C16   O5    S    
C28   O7    S    
C27   H22   S    
C15   H1    S    
C24   O4    S    
C4    O9    A    
O11   Zn1   S    
O14   Zn2   S    
C13   O12   A    
C8    F7    S    
C26   H18   S    
C17   H12   S    
C22   H9    S    
C21   H5    S    
