data_mof_unit_59456.cif
_audit_creation_date              2012-12-10T21:19:12-0500
_audit_creation_method            fapswitch 2.2
_symmetry_space_group_name_H-M    P1
_symmetry_Int_Tables_number       1
_space_group_crystal_system       triclinic
_cell_length_a                    15.709516
_cell_length_b                    17.279132
_cell_length_c                    16.727623
_cell_angle_alpha                 89.157029
_cell_angle_beta                  89.823206
_cell_angle_gamma                 90.060963
_cell_volume                      4540.14390755

loop_
_atom_site_label
_atom_site_type_symbol
_atom_type_description
_atom_site_fract_x
_atom_site_fract_y
_atom_site_fract_z
_atom_type_partial_charge
C1    C     C_R   0.506438 0.352693 0.500558 0.898324
C2    C     C_R   0.500521 0.647544 0.499374 0.898103
C3    C     C_R   0.570772 0.761651 0.553443 -0.296078
C4    C     C_R   0.525425 0.231243 0.428036 -0.303064
C5    C     C_R   0.514253 0.731002 0.497503 -0.168984
C6    C     C_R   0.531953 0.270920 0.500385 -0.180735
C7    C     C_R   0.478465 0.778779 0.437009 -0.053290
C8    C     C_R   0.572308 0.234550 0.567002 -0.068318
C9    C     C_R   0.503958 0.857039 0.431669 -0.079114
C10   C     C_R   0.594887 0.155839 0.562549 -0.078124
C11   C     C_R   0.563444 0.885672 0.486883 -0.055010
C12   C     C_R   0.583136 0.116887 0.490409 -0.064491
C13   C     C_1   0.581009 0.966316 0.487793 0.010326
C14   C     C_1   0.587300 0.034877 0.488673 0.003471
C15   C     C_R   0.431766 0.470342 0.833377 0.349447
C16   C     C_R   0.547440 0.442198 0.169709 0.375481
C17   C     C_R   0.431562 0.472864 0.749183 -0.096685
C18   C     C_R   0.548979 0.447491 0.253771 -0.119287
C19   C     C_R   0.569675 0.527049 0.746444 -0.151331
C20   C     C_R   0.447981 0.548464 0.250631 -0.144588
C21   C     C_R   0.572530 0.529001 0.831641 0.369587
C22   C     C_R   0.445500 0.547112 0.166083 0.381582
C23   C     C_R   0.337507 0.500574 0.500182 0.918431
C24   C     C_R   0.662284 0.499376 0.499928 0.903743
C25   C     C_R   0.502471 0.499462 0.875416 -0.078185
C26   C     C_R   0.499167 0.496166 0.124421 -0.107229
C27   C     C_1   0.502807 0.499240 0.963385 0.070141
C28   C     C_1   0.502035 0.498195 0.036475 0.057876
C29   C     C_3   0.971620 0.427574 0.531695 0.521379
C30   C     C_3   0.026372 0.561820 0.473072 0.553558
C31   C     C_3   0.032089 0.435808 0.458853 -0.383497
C32   C     C_3   0.966352 0.553092 0.546211 -0.388001
C33   C     C_1   0.248653 0.500296 0.501274 -0.216640
C34   C     C_1   0.750658 0.495942 0.499697 -0.217754
C35   C     C_3   0.022886 0.486816 0.579514 -0.086614
C36   C     C_3   0.975802 0.502004 0.425348 -0.069699
C37   C     C_3   0.082633 0.496536 0.506465 0.022955
C38   C     C_3   0.916104 0.492719 0.498124 0.036813
C39   C     C_1   0.173409 0.499180 0.503846 -0.023416
C40   C     C_1   0.825653 0.493313 0.498946 -0.023217
C41   C     C_R   0.596082 0.838488 0.548242 0.503041
C42   C     C_R   0.555241 0.156180 0.421569 0.521241
H1    H     H_    0.060381 0.388013 0.424007 0.157821
H2    H     H_    0.936429 0.598942 0.582577 0.157138
H3    H     H_    0.623195 0.546220 0.710821 0.158230
H4    H     H_    0.407527 0.587679 0.282864 0.179847
H5    H     H_    0.596683 0.725426 0.600899 0.167233
H6    H     H_    0.499044 0.259129 0.375241 0.174602
H7    H     H_    0.376524 0.452054 0.717274 0.149958
H8    H     H_    0.587511 0.407353 0.288246 0.159509
N1    N     N_R   0.500020 0.500030 0.707230 -0.116461
N2    N     N_R   0.499980 0.499970 0.292770 -0.130160
O1    O     O_R   0.500000 0.389130 0.566570 -0.600370
O2    O     O_R   0.500000 0.610870 0.433430 -0.599571
O3    O     O_R   0.499990 0.389100 0.433480 -0.624690
O4    O     O_R   0.500010 0.610900 0.566520 -0.612758
O5    O     O_R   0.376780 0.500010 0.566530 -0.623812
O6    O     O_R   0.623220 0.499990 0.433470 -0.613782
O7    O     O_R   0.376780 0.499980 0.433450 -0.606052
O8    O     O_R   0.623220 0.500020 0.566550 -0.620280
Zn1   Zn    Zn3+2 0.500000 0.500020 0.588860 0.945074
Zn2   Zn    Zn3+2 0.500000 0.499980 0.411140 0.944628
O9    O     O_3   0.643724 0.552683 0.874746 -0.639024
C43   C     C_3   0.692384 0.611316 0.836056 0.098756
H9    H     H_    0.711683 0.653388 0.882217 0.161334
H10   H     H_    0.655926 0.646115 0.791201 0.119978
C44   C     C_3   0.773669 0.576549 0.800525 -0.360514
H11   H     H_    0.816239 0.557396 0.849923 0.223304
H12   H     H_    0.758124 0.525030 0.764548 0.212142
C45   C     C_3   0.820620 0.635183 0.747506 -0.978472
H13   H     H_    0.781646 0.649454 0.694054 0.261161
H14   H     H_    0.881929 0.610328 0.727232 0.271894
H15   H     H_    0.834088 0.688824 0.781023 0.269174
O10   O     O_3   0.392969 0.597372 0.124104 -0.639404
C46   C     C_3   0.307885 0.570111 0.127445 0.049104
H16   H     H_    0.265605 0.620395 0.115357 0.162761
H17   H     H_    0.289489 0.546945 0.187682 0.124379
C47   C     C_3   0.291915 0.509353 0.063141 -0.316927
H18   H     H_    0.311932 0.533085 0.003908 0.266051
H19   H     H_    0.329881 0.456570 0.076547 0.199389
C48   C     C_3   0.198290 0.486463 0.059286 -0.979184
H20   H     H_    0.176900 0.462199 0.117846 0.263223
H21   H     H_    0.189663 0.441675 0.013070 0.269218
H22   H     H_    0.158643 0.537466 0.043048 0.259546
O11   O     O_3   0.934069 0.359050 0.562303 -0.655187
C49   C     C_3   0.997436 0.303053 0.577187 0.080394
H23   H     H_    0.049108 0.326419 0.615395 0.147333
H24   H     H_    0.025063 0.283002 0.519762 0.139244
C50   C     C_3   0.956732 0.233930 0.620620 -0.319570
H25   H     H_    0.926435 0.253632 0.676929 0.228040
H26   H     H_    0.906593 0.208765 0.582127 0.216660
C51   C     C_3   0.022374 0.171620 0.640513 -0.983241
H27   H     H_    0.052637 0.150313 0.584923 0.264533
H28   H     H_    0.990551 0.122200 0.671547 0.260924
H29   H     H_    0.072223 0.195068 0.680450 0.269044
O12   O     O_3   0.062095 0.630144 0.439374 -0.680360
C52   C     C_3   0.006950 0.694402 0.446799 0.058716
H30   H     H_    0.045490 0.747070 0.433840 0.168272
H31   H     H_    0.982928 0.701256 0.508787 0.141197
C53   C     C_3   0.933591 0.692103 0.386373 -0.341031
H32   H     H_    0.959964 0.684516 0.325279 0.240001
H33   H     H_    0.890518 0.642935 0.400820 0.222692
C54   C     C_3   0.880777 0.766079 0.387632 -0.983724
H34   H     H_    0.832225 0.764291 0.339590 0.269365
H35   H     H_    0.921820 0.817703 0.377523 0.262608
H36   H     H_    0.847240 0.770879 0.445780 0.269784
C55   C     C_R   0.957334 0.509283 0.337110 0.131653
C56   C     C_R   0.023879 0.529121 0.284305 -0.128799
C57   C     C_R   0.008280 0.538307 0.202520 -0.178757
C58   C     C_R   0.926560 0.526313 0.172458 -0.101699
C59   C     C_R   0.860326 0.505063 0.224215 -0.125009
C60   C     C_R   0.875503 0.496437 0.306192 -0.171239
H37   H     H_    0.087673 0.538487 0.306602 0.153889
H38   H     H_    0.059502 0.555032 0.162527 0.133919
H39   H     H_    0.914616 0.533281 0.109070 0.130494
H40   H     H_    0.797113 0.495243 0.200813 0.152451
H41   H     H_    0.823296 0.479233 0.344480 0.149388
C61   C     C_R   0.041174 0.477084 0.667533 0.136885
C62   C     C_R   0.972872 0.464433 0.720575 -0.131067
C63   C     C_R   0.987497 0.454358 0.802430 -0.155371
C64   C     C_R   0.070453 0.456863 0.832094 -0.102110
C65   C     C_R   0.138815 0.469500 0.779893 -0.149130
C66   C     C_R   0.124422 0.479612 0.697928 -0.176932
H42   H     H_    0.908224 0.462201 0.698411 0.145423
H43   H     H_    0.934496 0.444549 0.842826 0.128037
H44   H     H_    0.081737 0.449070 0.895483 0.131216
H45   H     H_    0.203041 0.471548 0.802945 0.180356
H46   H     H_    0.178453 0.489460 0.659224 0.146440
O13   O     O_3   0.643167 0.869500 0.609831 -0.646755
C67   C     C_3   0.729693 0.876676 0.587192 0.088426
H47   H     H_    0.754055 0.931038 0.613475 0.188442
H48   H     H_    0.740246 0.882035 0.521257 0.107631
C68   C     C_3   0.780496 0.808248 0.621175 -0.370464
H49   H     H_    0.761015 0.797070 0.684241 0.242135
H50   H     H_    0.766317 0.755755 0.585972 0.203277
C69   C     C_3   0.876124 0.823973 0.618957 -0.977274
H51   H     H_    0.897262 0.839802 0.557508 0.263257
H52   H     H_    0.910957 0.771284 0.638946 0.268276
H53   H     H_    0.892169 0.872027 0.659665 0.268027
O14   O     O_3   0.551483 0.120122 0.348269 -0.636954
C70   C     C_3   0.635028 0.110968 0.317219 0.070487
H54   H     H_    0.637373 0.055390 0.284892 0.156108
H55   H     H_    0.685591 0.107120 0.363910 0.121914
C71   C     C_3   0.655774 0.176521 0.257837 -0.355829
H56   H     H_    0.611021 0.173719 0.206767 0.231382
H57   H     H_    0.648258 0.233267 0.287466 0.222768
C72   C     C_3   0.746515 0.170089 0.225939 -0.949401
H58   H     H_    0.792949 0.174471 0.275624 0.263952
H59   H     H_    0.758903 0.217896 0.182338 0.276923
H60   H     H_    0.755461 0.114052 0.195321 0.256382
C73   C     C_R   0.409692 0.749334 0.384245 0.145355
C74   C     C_R   0.334753 0.718557 0.418137 -0.163528
C75   C     C_R   0.267610 0.695703 0.369248 -0.140822
C76   C     C_R   0.273793 0.704710 0.286349 -0.152836
C77   C     C_R   0.348107 0.734999 0.252021 -0.128349
C78   C     C_R   0.416464 0.755809 0.300543 -0.128072
H61   H     H_    0.327877 0.713256 0.482432 0.119380
H62   H     H_    0.210451 0.671830 0.395759 0.194927
H63   H     H_    0.221178 0.687854 0.248768 0.125035
H64   H     H_    0.353104 0.741667 0.187762 0.167370
H65   H     H_    0.474137 0.777897 0.272945 0.131019
C79   C     C_R   0.598699 0.278638 0.638104 0.160446
C80   C     C_R   0.555349 0.269558 0.711135 -0.125037
C81   C     C_R   0.585157 0.306750 0.779280 -0.146176
C82   C     C_R   0.658264 0.352857 0.774884 -0.131252
C83   C     C_R   0.701383 0.362357 0.702185 -0.120941
C84   C     C_R   0.671821 0.325335 0.633964 -0.104231
H66   H     H_    0.499528 0.232878 0.715400 0.124187
H67   H     H_    0.552199 0.299171 0.835686 0.123536
H68   H     H_    0.681466 0.381260 0.827792 0.149489
H69   H     H_    0.758154 0.397750 0.698753 0.128713
H70   H     H_    0.706608 0.331878 0.578256 0.125108
C85   C     C_R   0.463524 0.910695 0.372936 0.150834
C86   C     C_R   0.508509 0.935541 0.304637 -0.159691
C87   C     C_R   0.469760 0.984937 0.248680 -0.074569
C88   C     C_R   0.386441 0.010451 0.261136 -0.072152
C89   C     C_R   0.341531 0.986252 0.329329 -0.138691
C90   C     C_R   0.379815 0.936406 0.385104 -0.124037
H71   H     H_    0.573092 0.916042 0.294525 0.108197
H72   H     H_    0.504492 0.003816 0.195910 0.114792
H73   H     H_    0.356673 0.048908 0.217937 0.115622
H74   H     H_    0.276987 0.005986 0.338877 0.124908
H75   H     H_    0.344406 0.917704 0.437594 0.125677
C91   C     C_R   0.634249 0.114891 0.631662 0.139818
C92   C     C_R   0.720871 0.125700 0.648462 -0.150335
C93   C     C_R   0.758539 0.086156 0.712665 -0.159966
C94   C     C_R   0.709992 0.035461 0.760169 -0.120540
C95   C     C_R   0.623668 0.024421 0.743633 -0.086997
C96   C     C_R   0.585741 0.064043 0.679574 -0.126460
H76   H     H_    0.758979 0.164537 0.611700 0.122741
H77   H     H_    0.825381 0.094620 0.725413 0.134956
H78   H     H_    0.739282 0.004645 0.809685 0.125177
H79   H     H_    0.586206 0.985035 0.780342 0.131847
H80   H     H_    0.518897 0.054989 0.667054 0.125868
O15   O     O_3   0.359848 0.444483 0.873617 -0.665233
C97   C     C_3   0.371703 0.367065 0.900079 0.068836
H81   H     H_    0.333485 0.358555 0.955509 0.165094
H82   H     H_    0.438838 0.353478 0.916513 0.110976
C98   C     C_3   0.339732 0.310452 0.837239 -0.359749
H83   H     H_    0.271848 0.322887 0.823642 0.228744
H84   H     H_    0.377290 0.317716 0.781295 0.212061
C99   C     C_3   0.348080 0.226805 0.866623 -0.975473
H85   H     H_    0.415796 0.212851 0.879183 0.259451
H86   H     H_    0.324567 0.187210 0.819882 0.266822
H87   H     H_    0.309792 0.217344 0.921857 0.265404
O16   O     O_3   0.593580 0.383432 0.134533 -0.638976
C100  C     C_3   0.538507 0.326106 0.103132 0.083282
H88   H     H_    0.579608 0.279058 0.080161 0.172312
H89   H     H_    0.502423 0.348594 0.050914 0.118215
C101  C     C_3   0.476458 0.290810 0.165453 -0.400826
H90   H     H_    0.511167 0.275532 0.221090 0.229866
H91   H     H_    0.426553 0.333792 0.180566 0.206427
C102  C     C_3   0.432501 0.218838 0.133501 -0.946195
H92   H     H_    0.396346 0.233558 0.078357 0.257140
H93   H     H_    0.387470 0.195659 0.179215 0.269960
H94   H     H_    0.480019 0.173310 0.119907 0.256958

loop_
_geom_bond_atom_site_label_1
_geom_bond_atom_site_label_2
_ccdc_geom_bond_type
O6    Zn2   S    
C41   O13   S    
C82   C83   A    
C10   C91   S    
C55   C60   A    
C65   H45   S    
C49   H23   S    
C59   C60   A    
N1    Zn1   S    
C17   N1    A    
O13   C67   S    
C48   H20   S    
C92   C93   A    
C84   H70   S    
C18   N2    A    
C92   H76   S    
C85   C86   A    
C56   C57   A    
C23   O7    A    
C33   C39   T    
C99   H86   S    
O8    Zn1   S    
C34   C40   T    
C81   C82   A    
C72   H59   S    
C79   C84   A    
C16   O16   S    
C71   C72   S    
O11   C49   S    
C60   H41   S    
C86   C87   A    
C47   H19   S    
C15   C25   A    
C89   H74   S    
O3    Zn2   S    
C93   H77   S    
C91   C92   A    
C23   O5    A    
C3    H5    S    
C75   H62   S    
C1    O1    A    
C61   C62   A    
C51   H27   S    
C12   C42   A    
C72   H58   S    
C52   H31   S    
C58   C59   A    
O1    Zn1   S    
C96   H80   S    
C31   H1    S    
C80   C81   A    
C23   C33   S    
C99   H87   S    
C29   C38   S    
C98   C99   S    
C30   O12   S    
C73   C74   A    
C9    C85   S    
C45   H13   S    
C32   C38   S    
C50   H26   S    
C31   C36   S    
C29   O11   S    
C90   H75   S    
C15   O15   S    
C98   H83   S    
C38   C40   S    
C13   C14   T    
C36   C55   S    
C68   H50   S    
C81   H67   S    
C97   C98   S    
C53   H33   S    
C48   H21   S    
C52   H30   S    
C65   C66   A    
C102  H93   S    
C16   C26   A    
C88   H73   S    
C99   H85   S    
O9    C43   S    
C42   O14   S    
C100  H88   S    
C43   C44   S    
C72   H60   S    
O14   C70   S    
C71   H57   S    
O10   C46   S    
C70   C71   S    
C17   H7    S    
C5    C7    A    
O16   C100  S    
C71   H56   S    
C6    C8    A    
O2    Zn2   S    
C62   H42   S    
C51   H29   S    
C24   C34   S    
C44   H11   S    
C30   C37   S    
C95   C96   A    
C44   H12   S    
C43   H10   S    
C56   H37   S    
C67   H48   S    
C46   H16   S    
C32   C35   S    
C19   N1    A    
C100  C101  S    
C9    C11   A    
C87   C88   A    
C102  H92   S    
C24   O8    A    
O12   C52   S    
C45   H15   S    
C51   H28   S    
C32   H2    S    
C54   H35   S    
C16   C18   A    
C73   C78   A    
C50   C51   S    
O5    Zn1   S    
C46   H17   S    
C76   C77   A    
C64   C65   A    
C59   H40   S    
C10   C12   A    
C57   H38   S    
C68   C69   S    
C7    C73   S    
C24   O6    A    
C4    C6    A    
C88   C89   A    
C12   C14   S    
C95   H79   S    
C89   C90   A    
C101  H91   S    
C2    O2    A    
C68   H49   S    
C67   C68   S    
C22   O10   S    
C55   C56   A    
C50   H25   S    
C77   C78   A    
C48   H22   S    
C63   C64   A    
C18   H8    S    
C69   H52   S    
C98   H84   S    
C79   C80   A    
C4    H6    S    
C102  H94   S    
C35   C37   S    
C82   H68   S    
C7    C9    A    
C21   C25   A    
C74   H61   S    
C3    C41   A    
O7    Zn2   S    
C52   C53   S    
C1    C6    S    
C19   C21   A    
C77   H64   S    
C47   H18   S    
C8    C10   A    
C20   C22   A    
C97   H81   S    
C3    C5    A    
C49   C50   S    
C78   H65   S    
C45   H14   S    
C62   C63   A    
C19   H3    S    
C15   C17   A    
C87   H72   S    
C25   C27   S    
C101  C102  S    
C29   C35   S    
C26   C28   S    
C30   C36   S    
C20   N2    A    
C44   C45   S    
C43   H9    S    
C70   H55   S    
C67   H47   S    
C75   C76   A    
C76   H63   S    
C37   C39   S    
C2    O4    A    
C57   C58   A    
C69   H53   S    
C30   C32   S    
C11   C13   S    
C47   C48   S    
C66   H46   S    
C83   C84   A    
C4    C42   A    
C85   C90   A    
C86   H71   S    
C36   C38   S    
C53   H32   S    
C63   H43   S    
C94   H78   S    
C80   H66   S    
C54   H36   S    
C49   H24   S    
C61   C66   A    
C53   C54   S    
C1    O3    A    
C46   C47   S    
C21   O9    S    
C97   H82   S    
C83   H69   S    
O15   C97   S    
C2    C5    S    
C31   C37   S    
C64   H44   S    
C74   C75   A    
C94   C95   A    
C29   C31   S    
C101  H90   S    
C22   C26   A    
C11   C41   A    
C54   H34   S    
C100  H89   S    
O4    Zn1   S    
C69   H51   S    
C35   C61   S    
N2    Zn2   S    
C8    C79   S    
C93   C94   A    
C70   H54   S    
C58   H39   S    
C91   C96   A    
C20   H4    S    
C27   C28   T    
