data_mof_unit_15815.cif
_audit_creation_date              2012-12-11T17:39:27-0500
_audit_creation_method            fapswitch 2.2
_symmetry_space_group_name_H-M    P1
_symmetry_Int_Tables_number       1
_space_group_crystal_system       triclinic
_cell_length_a                    15.017099
_cell_length_b                    15.193732
_cell_length_c                    14.942111
_cell_angle_alpha                 108.919345
_cell_angle_beta                  109.833053
_cell_angle_gamma                 110.001413
_cell_volume                      2613.18681642

loop_
_atom_site_label
_atom_site_type_symbol
_atom_type_description
_atom_site_fract_x
_atom_site_fract_y
_atom_site_fract_z
_atom_type_partial_charge
C1    C     C_R   0.909063 0.973268 0.722057 0.700827
C2    C     C_R   0.996482 0.320024 0.543890 0.113093
C3    C     C_R   0.367025 0.297567 0.798841 0.120580
C4    C     C_R   0.628093 0.924147 0.422026 0.022392
C5    C     C_R   0.730810 0.687193 0.277274 -0.113965
C6    C     C_R   0.250149 0.030878 0.436924 -0.117270
C7    C     C_R   0.092071 0.786854 0.581550 -0.149071
C8    C     C_R   0.908028 0.995550 0.197274 -0.106663
C9    C     C_R   0.090195 0.087338 0.286772 -0.125493
C10   C     C_R   0.909256 0.698677 0.497206 -0.023725
C11   C     C_R   0.734012 0.779410 0.185759 -0.142606
C12   C     C_R   0.090527 0.313381 0.559993 -0.066173
C13   C     C_R   0.260725 0.946498 0.535104 -0.120472
C14   C     C_R   0.694703 0.677411 0.174520 0.144388
C15   C     C_R   0.289282 0.967137 0.461549 0.061397
C16   C     C_R   0.000979 0.692225 0.546795 0.123858
C17   C     C_R   0.997205 0.049091 0.188999 0.080785
C18   C     C_R   0.488481 0.597839 0.407493 0.802655
C19   C     C_R   0.460793 0.664769 0.372847 -0.350398
C20   C     C_R   0.468531 0.756317 0.447772 0.019813
C21   C     C_R   0.501793 0.778613 0.556380 -0.129803
C22   C     C_R   0.530074 0.712117 0.590249 -0.131490
C23   C     C_R   0.303589 0.206541 0.797823 -0.148382
C24   C     C_R   0.524632 0.622749 0.516588 -0.263533
C25   C     C_R   0.363942 0.847775 0.425000 -0.241579
C26   C     C_R   0.356871 0.936501 0.423474 0.052824
C27   C     C_R   0.421304 0.999737 0.393610 0.071902
C28   C     C_R   0.488205 0.970951 0.363946 -0.221995
C29   C     C_R   0.514886 0.899735 0.390988 0.054268
C30   C     C_R   0.446984 0.832103 0.415596 0.084775
C31   C     C_R   0.404997 0.134966 0.337727 -0.240464
C32   C     C_R   0.421894 0.238653 0.365662 -0.200316
C33   C     C_R   0.481324 0.319189 0.475681 -0.242028
C34   C     C_R   0.694508 0.988329 0.396985 -0.150933
C35   C     C_R   0.524642 0.296872 0.558564 0.784889
C36   C     C_R   0.506523 0.192908 0.531332 -0.296160
C37   C     C_R   0.444686 0.110829 0.420744 0.043190
C38   C     C_R   0.735544 0.143236 0.199363 -0.304882
C39   C     C_R   0.823454 0.242886 0.287560 0.811982
C40   C     C_R   0.807689 0.304699 0.366883 -0.006975
C41   C     C_R   0.701416 0.269805 0.351365 -0.166862
C42   C     C_R   0.613083 0.171923 0.260312 -0.134733
C43   C     C_R   0.630419 0.107733 0.185345 -0.215985
C44   C     C_R   0.908648 0.498922 0.468821 0.692491
C45   C     C_R   0.302998 0.297532 0.707387 -0.128270
C46   C     C_R   0.997489 0.599721 0.556448 -0.169524
C47   C     C_R   0.081181 0.607670 0.644587 0.026817
C48   C     C_R   0.074682 0.513816 0.641937 -0.255229
C49   C     C_R   0.987428 0.413708 0.553153 0.011444
C50   C     C_R   0.901594 0.406096 0.466581 -0.097376
C51   C     C_R   0.277850 0.743874 0.729819 -0.174818
C52   C     C_R   0.364761 0.850220 0.800612 -0.253014
C53   C     C_R   0.360155 0.920863 0.884347 -0.286077
C54   C     C_R   0.266780 0.886956 0.894457 0.804166
C55   C     C_R   0.176114 0.782903 0.818455 -0.315745
C56   C     C_R   0.693168 0.899723 0.488787 -0.030058
C57   C     C_R   0.180760 0.711241 0.734896 0.088070
C58   C     C_2   0.539059 0.463043 0.878822 -0.021861
C59   C     C_2   0.483487 0.371767 0.877131 -0.177783
C60   C     C_2   0.628181 0.559281 0.983630 -0.135055
C61   C     C_2   0.619968 0.576911 0.073119 -0.203209
C62   C     C_R   0.396464 0.254609 0.109891 -0.079510
C63   C     C_R   0.290049 0.194405 0.087615 -0.168415
C64   C     C_R   0.212181 0.226093 0.054813 0.091425
C65   C     C_R   0.242364 0.319430 0.045244 -0.125186
C66   C     C_R   0.349877 0.381131 0.069487 -0.062890
C67   C     C_R   0.907916 0.217209 0.481060 -0.135803
C68   C     C_R   0.426809 0.348780 0.102090 -0.009130
C69   C     C_R   0.093248 0.152858 0.120522 -0.196719
C70   C     C_R   0.994293 0.077453 0.103098 0.085375
C71   C     C_R   0.896830 0.029130 0.002120 -0.014820
C72   C     C_R   0.902990 0.059408 0.925901 -0.168790
C73   C     C_R   0.003613 0.102463 0.929957 0.067403
C74   C     C_R   0.100754 0.162079 0.033837 0.044888
C75   C     C_R   0.792584 0.829228 0.922257 -0.083965
C76   C     C_R   0.695350 0.732829 0.878091 -0.148603
C77   C     C_R   0.602870 0.735825 0.877672 -0.123487
C78   C     C_R   0.091908 0.066612 0.811848 -0.204806
C79   C     C_R   0.605184 0.834413 0.913840 -0.140179
C80   C     C_R   0.698392 0.929072 0.947105 -0.188638
C81   C     C_R   0.795112 0.928402 0.959213 0.123497
C82   C     C_R   0.001905 0.054379 0.825317 -0.116698
H1    H     H_    0.250818 0.056036 0.377953 0.123596
H2    H     H_    0.177065 0.814671 0.630524 0.129581
H3    H     H_    0.824411 0.972382 0.148316 0.105871
H4    H     H_    0.825870 0.646127 0.474146 0.142592
H5    H     H_    0.716004 0.799778 0.121481 0.118445
H6    H     H_    0.281522 0.901765 0.573348 0.096720
H7    H     H_    0.550275 0.574246 0.545172 0.144931
H8    H     H_    0.434862 0.646297 0.288605 0.155032
H9    H     H_    0.174523 0.378918 0.603946 0.086631
H10   H     H_    0.509119 0.849404 0.615314 0.128083
H11   H     H_    0.558652 0.731400 0.674636 0.169146
H12   H     H_    0.312518 0.797389 0.445100 0.138112
H13   H     H_    0.536091 0.022529 0.342663 0.133968
H14   H     H_    0.357247 0.072720 0.252328 0.164684
H15   H     H_    0.387908 0.256964 0.302737 0.182438
H16   H     H_    0.493065 0.398638 0.496372 0.154387
H17   H     H_    0.539050 0.175585 0.596055 0.156854
H18   H     H_    0.333699 0.175134 0.849194 0.109747
H19   H     H_    0.749633 0.092983 0.143193 0.145508
H20   H     H_    0.687319 0.317631 0.410407 0.158489
H21   H     H_    0.531737 0.145377 0.248594 0.152265
H22   H     H_    0.140402 0.518807 0.707161 0.140387
H23   H     H_    0.281938 0.690266 0.664378 0.140366
H24   H     H_    0.427947 0.002418 0.939332 0.147285
H25   H     H_    0.668685 0.008043 0.333024 0.112560
H26   H     H_    0.101537 0.758831 0.822809 0.156075
H27   H     H_    0.508621 0.474272 0.808869 0.133187
H28   H     H_    0.519134 0.360098 0.945772 0.133283
H29   H     H_    0.693607 0.620929 0.986131 0.145505
H30   H     H_    0.553481 0.518170 0.071654 0.125654
H31   H     H_    0.510393 0.396399 0.122456 0.104187
H32   H     H_    0.455727 0.228909 0.134208 0.136720
H33   H     H_    0.268058 0.123089 0.096351 0.183350
H34   H     H_    0.183634 0.345407 0.021145 0.118234
H35   H     H_    0.373683 0.454638 0.064254 0.099585
H36   H     H_    0.330899 0.348154 0.674686 0.098086
H37   H     H_    0.168071 0.197221 0.198476 0.126050
H38   H     H_    0.827022 0.028426 0.853556 0.202490
H39   H     H_    0.865035 0.826375 0.925723 0.120636
H40   H     H_    0.529276 0.661847 0.848423 0.112631
H41   H     H_    0.534911 0.837334 0.916340 0.135507
H42   H     H_    0.666546 0.839304 0.510749 0.172227
H43   H     H_    0.823254 0.192215 0.456991 0.105839
H44   H     H_    0.177641 0.118744 0.871221 0.166984
H45   H     H_    0.711172 0.623306 0.297198 0.146179
N1    N     N_R   0.941940 0.944580 0.650780 -0.107421
N2    N     N_R   0.206190 0.054080 0.497260 -0.044298
N3    N     N_R   0.056380 0.847410 0.553580 -0.047512
N4    N     N_R   0.944890 0.999100 0.292900 -0.043491
N5    N     N_R   0.058060 0.055420 0.349220 -0.043751
N6    N     N_R   0.943200 0.791100 0.497260 -0.062169
N7    N     N_R   0.795540 0.849750 0.292910 -0.047625
N8    N     N_R   0.205730 0.996760 0.553580 -0.038625
N9    N     N_R   0.056800 0.208900 0.502740 -0.040124
N10   N     N_R   0.204460 0.150250 0.707090 -0.042424
N11   N     N_R   0.794270 0.003240 0.446420 -0.051355
N12   N     N_R   0.204920 0.207570 0.650770 -0.049865
N13   N     N_R   0.793810 0.945920 0.502740 -0.055863
N14   N     N_R   0.943620 0.152590 0.446420 -0.034973
N15   N     N_R   0.055110 0.000900 0.707100 -0.077385
N16   N     N_R   0.795080 0.792430 0.349230 -0.053739
Ni1   Ni    Ni4+2 0.869690 0.869690 0.500000 0.233011
Ni2   Ni    Ni4+2 0.130310 0.130310 0.500000 0.226872
Ni3   Ni    Ni4+2 0.129250 0.998840 0.629170 0.214377
Ni4   Ni    Ni4+2 0.870750 0.001160 0.370830 0.216703
F1    F     F_    0.804138 0.920312 0.697257 -0.761004
H46   H     H_    0.173609 0.146333 0.317130 0.099684
F2    F     F_    0.481576 0.509564 0.336014 -0.725278
F3    F     F_    0.583506 0.375803 0.665341 -0.727213
H47   H     H_    0.562709 0.030415 0.116831 0.155940
F4    F     F_    0.924870 0.276113 0.299482 -0.707381
F5    F     F_    0.833277 0.489680 0.378406 -0.716715
H48   H     H_    0.434735 0.877937 0.788986 0.153660
F6    F     F_    0.262075 0.956059 0.975069 -0.751839
H49   H     H_    0.692554 0.656157 0.846088 0.144903
H50   H     H_    0.696506 0.003128 0.965764 0.123235

loop_
_geom_bond_atom_site_label_1
_geom_bond_atom_site_label_2
_ccdc_geom_bond_type
C45   H36   S    
C66   C68   A    
C40   C41   A    
C80   C81   A    
N3    Ni3   S    
C58   H27   S    
C41   C42   A    
N15   Ni3   S    
C12   H9    S    
C3    C23   A    
C35   C36   A    
C10   N6    A    
C2    C12   A    
C42   H21   S    
C20   C30   S    
C53   C54   A    
C41   H20   S    
C52   H48   S    
N7    Ni4   S    
N10   N12   A    
C9    H46   S    
C26   C27   A    
C29   C30   A    
C39   F4    S    
C28   H13   S    
C18   C24   A    
C34   H25   S    
C56   H42   S    
C28   C29   A    
C62   H32   S    
C38   H19   S    
C67   H43   S    
C54   F6    S    
C38   C39   A    
C56   N13   A    
C11   C14   A    
C5    N16   A    
C58   C60   S    
N16   Ni1   S    
C48   H22   S    
C45   N12   A    
C59   H28   S    
C32   H15   S    
C18   C19   A    
C73   C74   A    
C7    N3    A    
C77   H40   S    
N7    N16   A    
N2    N8    A    
C53   H24   S    
N12   Ni2   S    
C4    C29   S    
C33   H16   S    
C11   H5    S    
C66   H35   S    
C8    H3    S    
C1    N1    A    
N4    Ni4   S    
C70   C71   A    
C51   C57   A    
N2    Ni2   S    
N9    Ni2   S    
C68   H31   S    
C63   H33   S    
C7    H2    S    
C6    C15   A    
C17   C70   S    
C21   C22   A    
C4    C56   A    
C13   N8    A    
C72   H38   S    
C35   F3    S    
C6    N2    A    
C24   H7    S    
C44   C46   A    
C77   C79   A    
C4    C34   A    
C76   H49   S    
C51   C52   A    
C47   C48   A    
N10   Ni3   S    
C76   C77   A    
C2    C67   A    
C11   N7    A    
C16   C46   S    
C39   C40   A    
C75   C81   A    
C15   C26   S    
C22   H11   S    
C25   C26   A    
C63   C64   A    
C14   C61   S    
C79   H41   S    
C69   H37   S    
C31   C37   A    
C60   C61   D    
C75   C76   A    
C62   C63   A    
C2    C49   S    
C47   C57   S    
C78   C82   A    
C80   H50   S    
C31   C32   A    
N11   Ni4   S    
C51   H23   S    
N8    Ni3   S    
C5    H45   S    
C8    N4    A    
C69   C74   A    
N1    Ni1   S    
C5    C14   A    
N11   N13   A    
C9    C17   A    
C48   C49   A    
C49   C50   A    
C55   C57   A    
C65   H34   S    
C22   C24   A    
C58   C59   D    
N3    N6    A    
C42   C43   A    
N5    Ni2   S    
N4    N5    A    
C78   H44   S    
C73   C82   S    
C52   C53   A    
C9    N5    A    
C44   C50   A    
C25   C30   A    
C46   C47   A    
C36   C37   A    
N6    Ni1   S    
C6    H1    S    
C75   H39   S    
C23   N10   A    
C7    C16   A    
N13   Ni1   S    
C72   C73   A    
C78   N15   A    
C54   C55   A    
C8    C17   A    
C62   C68   A    
C55   H26   S    
C44   F5    S    
C64   C65   A    
C19   C20   A    
C13   C15   A    
C1    C82   A    
C38   C43   A    
C60   H29   S    
C10   C16   A    
C32   C33   A    
C34   N11   A    
C10   H4    S    
C27   C37   S    
C40   C50   S    
C13   H6    S    
C33   C35   A    
N9    N14   A    
C3    C45   A    
C23   H18   S    
C36   H17   S    
C69   C70   A    
N14   Ni4   S    
C79   C80   A    
C25   H12   S    
C71   C72   A    
C20   C21   A    
C65   C66   A    
C12   N9    A    
C27   C28   A    
C19   H8    S    
C64   C74   S    
C1    F1    S    
C18   F2    S    
C61   H30   S    
N1    N15   A    
C43   H47   S    
C31   H14   S    
C3    C59   S    
C71   C81   S    
C21   H10   S    
C67   N14   A    
