data_mof_unit_61590.cif
_audit_creation_date              2012-12-10T18:09:56-0500
_audit_creation_method            fapswitch 2.2
_symmetry_space_group_name_H-M    P1
_symmetry_Int_Tables_number       1
_space_group_crystal_system       triclinic
_cell_length_a                    18.372612
_cell_length_b                    18.372859
_cell_length_c                    31.996607
_cell_angle_alpha                 89.993833
_cell_angle_beta                  90.024993
_cell_angle_gamma                 90.017525
_cell_volume                      10800.6901841

loop_
_atom_site_label
_atom_site_type_symbol
_atom_type_description
_atom_site_fract_x
_atom_site_fract_y
_atom_site_fract_z
_atom_type_partial_charge
C1    C     C_R   0.639865 0.500028 0.999994 0.842732
C2    C     C_R   0.360135 0.500010 0.000006 0.844842
C3    C     C_R   0.139865 0.000028 0.499994 0.848645
C4    C     C_R   0.860135 0.000010 0.500006 0.837297
C5    C     C_3   0.528283 0.561979 0.736103 0.038155
C6    C     C_3   0.453076 0.550868 0.263657 0.040506
C7    C     C_3   0.046925 0.050926 0.236335 0.040496
C8    C     C_3   0.046755 0.050474 0.763630 0.036968
C9    C     C_1   0.500780 0.499695 0.837243 0.023760
C10   C     C_1   0.499790 0.499885 0.162767 0.025128
C11   C     C_1   0.000203 0.999924 0.337234 0.025121
C12   C     C_1   0.999339 0.000144 0.662757 0.023829
C13   C     C_1   0.500110 0.499080 0.662758 -0.061029
C14   C     C_1   0.499457 0.500077 0.337254 -0.061299
C15   C     C_1   0.000543 0.000098 0.162746 -0.061296
C16   C     C_1   0.999826 0.000502 0.837242 -0.060989
C17   C     C_1   0.717324 0.500075 0.999983 -0.163126
C18   C     C_1   0.282676 0.500027 0.000017 -0.161201
C19   C     C_1   0.217324 0.000075 0.499983 -0.156340
C20   C     C_1   0.782676 0.000027 0.500017 -0.169220
C21   C     C_1   0.782572 0.500063 0.999980 -0.164179
C22   C     C_1   0.217428 0.500024 0.000020 -0.162747
C23   C     C_1   0.282572 0.000063 0.499980 -0.158383
C24   C     C_1   0.717428 0.000022 0.500020 -0.170469
C25   C     C_R   0.499991 0.360013 0.499997 0.840605
C26   C     C_R   0.999991 0.860013 0.999999 0.841451
C27   C     C_R   0.500012 0.499740 0.580224 0.820805
C28   C     C_R   0.499962 0.499909 0.419778 0.821027
C29   C     C_R   0.000038 0.999910 0.080221 0.821137
C30   C     C_R   0.999985 0.999967 0.919776 0.821341
C31   C     C_R   0.500009 0.639718 0.500002 0.841395
C32   C     C_R   0.000009 0.139718 0.000002 0.841123
C33   C     C_R   0.999995 0.639926 0.999998 0.843571
C34   C     C_R   0.499993 0.139926 0.499998 0.843497
C35   C     C_R   0.860033 0.500023 0.999993 0.842480
C36   C     C_R   0.139967 0.500010 0.000007 0.842814
C37   C     C_R   0.360033 0.000023 0.499993 0.844205
C38   C     C_R   0.639967 0.000009 0.500007 0.842090
C39   C     C_R   0.500127 0.500001 0.919776 0.819196
C40   C     C_R   0.499970 0.499997 0.080227 0.817839
C41   C     C_R   0.000029 0.000004 0.419774 0.817662
C42   C     C_R   0.999903 0.000010 0.580224 0.817712
C43   C     C_R   0.000008 0.360017 0.000002 0.841947
C44   C     C_R   0.500007 0.860016 0.500002 0.843027
C45   C     C_1   0.499976 0.282585 0.499995 -0.172365
C46   C     C_1   0.999977 0.782585 0.999996 -0.171420
C47   C     C_1   0.999982 0.717355 0.999995 -0.168385
C48   C     C_1   0.499980 0.217355 0.499995 -0.169809
C49   C     C_1   0.500024 0.717228 0.500005 -0.170775
C50   C     C_1   0.000025 0.217228 0.000004 -0.171337
C51   C     C_1   0.000021 0.282505 0.000005 -0.168406
C52   C     C_1   0.500020 0.782505 0.500006 -0.168096
C53   C     C_3   0.541457 0.443329 0.736233 0.055137
C54   C     C_3   0.566923 0.514829 0.263885 0.052438
C55   C     C_3   0.431747 0.491538 0.736386 0.054564
C56   C     C_3   0.478341 0.434113 0.263810 0.056549
C57   C     C_3   0.021644 0.934162 0.236203 0.056557
C58   C     C_3   0.019247 0.934262 0.763821 0.055061
C59   C     C_3   0.933076 0.014838 0.236111 0.052431
C60   C     C_3   0.932177 0.016551 0.763834 0.054481
C61   C     C_3   0.569723 0.506700 0.763821 0.123416
C62   C     C_3   0.520599 0.566072 0.236049 0.123068
C63   C     C_3   0.459690 0.555048 0.763926 0.119872
C64   C     C_3   0.431803 0.485089 0.235962 0.119895
C65   C     C_3   0.068184 0.985164 0.264042 0.119786
C66   C     C_3   0.066837 0.984304 0.735987 0.122769
C67   C     C_3   0.979406 0.066107 0.263940 0.123137
C68   C     C_3   0.979490 0.066823 0.735995 0.120052
C69   C     C_1   0.500496 0.499936 0.874917 -0.132034
C70   C     C_1   0.499871 0.499956 0.125090 -0.131397
C71   C     C_1   0.000125 0.999982 0.374911 -0.131293
C72   C     C_1   0.999596 0.000055 0.625083 -0.131459
C73   C     C_1   0.500041 0.499374 0.625085 -0.167967
C74   C     C_1   0.499771 0.500012 0.374924 -0.168347
C75   C     C_1   0.000229 0.000023 0.125076 -0.168445
C76   C     C_1   0.999935 0.000266 0.874915 -0.168048
C77   C     C_3   0.472725 0.435535 0.763925 0.059596
C78   C     C_3   0.546341 0.448538 0.236381 0.059972
C79   C     C_3   0.953645 0.948560 0.263627 0.059964
C80   C     C_3   0.951568 0.949854 0.736352 0.060139
C81   C     C_3   0.500850 0.499156 0.791355 -0.006156
C82   C     C_3   0.499793 0.499762 0.208657 -0.004587
C83   C     C_3   0.000198 0.999810 0.291344 -0.004651
C84   C     C_3   0.999131 0.000142 0.708645 -0.006000
C85   C     C_3   0.500297 0.498931 0.708717 -0.003554
C86   C     C_3   0.499253 0.500047 0.291300 -0.003359
C87   C     C_3   0.000746 0.000080 0.208699 -0.003298
C88   C     C_3   0.999582 0.000601 0.791283 -0.002975
Cu1   Cu    Cu3+1 0.500000 0.427500 0.000000 0.971748
Cu2   Cu    Cu3+1 0.000000 0.927500 0.500000 0.975529
Cu3   Cu    Cu3+1 0.500000 0.572500 0.000000 1.001485
Cu4   Cu    Cu3+1 0.000000 0.072500 0.500000 1.000801
Cu5   Cu    Cu3+1 0.572520 0.499840 0.500000 0.970812
Cu6   Cu    Cu3+1 0.427480 0.499840 0.500000 0.973669
Cu7   Cu    Cu3+1 0.072520 0.999840 0.000000 0.974559
Cu8   Cu    Cu3+1 0.927480 0.999840 0.000000 0.968305
Cu9   Cu    Cu3+1 0.000000 0.500000 0.958560 0.983471
Cu10  Cu    Cu3+1 0.000000 0.500000 0.041440 0.979872
Cu11  Cu    Cu3+1 0.500000 0.000000 0.458560 0.980020
Cu12  Cu    Cu3+1 0.500000 1.000000 0.541440 0.977999
O1    O     O_R   0.605840 0.438770 0.000000 -0.583769
O2    O     O_R   0.394160 0.438770 0.000000 -0.582824
O3    O     O_R   0.105840 0.938770 0.500000 -0.578885
O4    O     O_R   0.894160 0.938770 0.500000 -0.585787
O5    O     O_R   1.000000 0.394210 0.965010 -0.582265
O6    O     O_R   1.000000 0.394210 0.034990 -0.582017
O7    O     O_R   0.500000 0.894210 0.465010 -0.581848
O8    O     O_R   0.500000 0.894210 0.534990 -0.582273
O9    O     O_R   0.605760 0.561230 0.000000 -0.578173
O10   O     O_R   0.394240 0.561230 0.000000 -0.577266
O11   O     O_R   0.105760 0.061230 0.500000 -0.579384
O12   O     O_R   0.894240 0.061230 0.500000 -0.577531
O13   O     O_R   0.500000 0.438780 0.939540 -0.587463
O14   O     O_R   0.500000 0.438780 0.060460 -0.585105
O15   O     O_R   0.000000 0.938780 0.439540 -0.585085
O16   O     O_R   0.000000 0.938780 0.560460 -0.584241
O17   O     O_R   0.500000 0.561230 0.939540 -0.568807
O18   O     O_R   0.500000 0.561230 0.060460 -0.569195
O19   O     O_R   0.000000 0.061230 0.439540 -0.569098
O20   O     O_R   0.000000 0.061230 0.560460 -0.569845
O21   O     O_R   0.561200 0.394070 0.500000 -0.580858
O22   O     O_R   0.438800 0.394070 0.500000 -0.581117
O23   O     O_R   0.061200 0.894070 0.000000 -0.579631
O24   O     O_R   0.938800 0.894070 0.000000 -0.581688
O25   O     O_R   0.561230 0.499860 0.560460 -0.580062
O26   O     O_R   0.561230 0.499860 0.439540 -0.582058
O27   O     O_R   0.438770 0.499860 0.560460 -0.580862
O28   O     O_R   0.438770 0.499860 0.439540 -0.579456
O29   O     O_R   0.061230 0.999860 0.060460 -0.579484
O30   O     O_R   0.061230 0.999860 0.939540 -0.579278
O31   O     O_R   0.938770 0.999860 0.060460 -0.582150
O32   O     O_R   0.938770 0.999860 0.939540 -0.582224
O33   O     O_R   0.561270 0.605640 0.500000 -0.582353
O34   O     O_R   0.438730 0.605640 0.500000 -0.579609
O35   O     O_R   0.061270 0.105640 0.000000 -0.581371
O36   O     O_R   0.938730 0.105640 0.000000 -0.581551
O37   O     O_R   0.000000 0.605780 0.965000 -0.582170
O38   O     O_R   1.000000 0.605780 0.035000 -0.583984
O39   O     O_R   0.500000 0.105780 0.465000 -0.583455
O40   O     O_R   0.500000 0.105780 0.535000 -0.583936
O41   O     O_R   0.894200 0.500000 0.965010 -0.576323
O42   O     O_R   0.894200 0.500000 0.034990 -0.585964
O43   O     O_R   0.105800 0.500000 0.965010 -0.584449
O44   O     O_R   0.105800 0.500000 0.034990 -0.577379
O45   O     O_R   0.394200 0.000000 0.465010 -0.578662
O46   O     O_R   0.394200 0.000000 0.534990 -0.578476
O47   O     O_R   0.605800 0.000000 0.465010 -0.583744
O48   O     O_R   0.605800 0.000000 0.534990 -0.584899
I1    I     I_    0.678105 0.517058 0.788103 -0.436625
I2    I     I_    0.554955 0.669352 0.211697 -0.439475
I3    I     I_    0.396167 0.643967 0.787567 -0.423111
I4    I     I_    0.325069 0.462163 0.212038 -0.439765
I5    I     I_    0.174941 0.962363 0.287956 -0.439814
I6    I     I_    0.172203 0.957444 0.711552 -0.425567
I7    I     I_    0.945074 0.169365 0.288288 -0.439203
I8    I     I_    0.948928 0.171574 0.712058 -0.431965
C89   C     C_3   0.589783 0.384429 0.716538 -0.371508
C90   C     C_3   0.620600 0.330481 0.748618 -0.352850
C91   C     C_3   0.678678 0.282003 0.728964 -0.792697
H1    H     H_    0.655310 0.250632 0.702482 0.249862
H2    H     H_    0.724950 0.315451 0.717536 0.272074
H3    H     H_    0.699480 0.243111 0.752673 0.245779
H4    H     H_    0.644958 0.359818 0.775468 0.255761
H5    H     H_    0.576679 0.294967 0.760706 0.218208
H6    H     H_    0.557876 0.354309 0.692657 0.185035
H7    H     H_    0.635287 0.412334 0.700187 0.222435
C92   C     C_3   0.640244 0.535358 0.283667 -0.371793
C93   C     C_3   0.701997 0.542440 0.251628 -0.338542
C94   C     C_3   0.769929 0.575179 0.271629 -0.829263
H8    H     H_    0.758024 0.630454 0.283894 0.259693
H9    H     H_    0.789290 0.540044 0.297610 0.257334
H10   H     H_    0.813819 0.579558 0.247912 0.246816
H11   H     H_    0.716446 0.488272 0.238930 0.219720
H12   H     H_    0.685152 0.577464 0.225148 0.252461
H13   H     H_    0.632902 0.588047 0.300207 0.219348
H14   H     H_    0.655068 0.493815 0.307399 0.189240
C95   C     C_3   0.355540 0.486678 0.716914 -0.371886
C96   C     C_3   0.295004 0.476096 0.749394 -0.346870
C97   C     C_3   0.220152 0.477613 0.728758 -0.816173
H15   H     H_    0.210791 0.530998 0.713364 0.261238
H16   H     H_    0.215707 0.433497 0.705150 0.254213
H17   H     H_    0.177408 0.469303 0.752819 0.247367
H18   H     H_    0.301292 0.423149 0.765489 0.218291
H19   H     H_    0.297237 0.519559 0.773350 0.255031
H20   H     H_    0.345548 0.537829 0.699272 0.219573
H21   H     H_    0.354553 0.440992 0.694198 0.189186
C98   C     C_3   0.451129 0.362972 0.283542 -0.374100
C99   C     C_3   0.437119 0.302581 0.251390 -0.345590
C100  C     C_3   0.402079 0.236359 0.271969 -0.816171
H22   H     H_    0.438599 0.213845 0.296442 0.254922
H23   H     H_    0.349195 0.251502 0.286342 0.259584
H24   H     H_    0.392150 0.193639 0.248087 0.247734
H25   H     H_    0.400678 0.322299 0.226229 0.255094
H26   H     H_    0.488888 0.285060 0.236837 0.219082
H27   H     H_    0.491609 0.343950 0.306892 0.187010
H28   H     H_    0.399807 0.375190 0.300530 0.219193
C101  C     C_3   0.048863 0.863027 0.216495 -0.374155
C102  C     C_3   0.062867 0.802670 0.248671 -0.345537
C103  C     C_3   0.097985 0.736483 0.228129 -0.815951
H29   H     H_    0.061525 0.713917 0.203639 0.254900
H30   H     H_    0.150888 0.751685 0.213786 0.259575
H31   H     H_    0.107895 0.693783 0.252028 0.247779
H32   H     H_    0.099256 0.822448 0.273845 0.255121
H33   H     H_    0.011087 0.785090 0.263203 0.219068
H34   H     H_    0.008390 0.843962 0.193148 0.186965
H35   H     H_    0.100189 0.875269 0.199508 0.219233
C104  C     C_3   0.045312 0.862590 0.783428 -0.373612
C105  C     C_3   0.055554 0.801402 0.751303 -0.348303
C106  C     C_3   0.095510 0.736754 0.770536 -0.788833
H36   H     H_    0.150842 0.753265 0.780861 0.272030
H37   H     H_    0.064668 0.715267 0.797729 0.250930
H38   H     H_    0.100942 0.692785 0.746931 0.244573
H39   H     H_    0.001950 0.782087 0.739978 0.218935
H40   H     H_    0.086963 0.821065 0.723970 0.255238
H41   H     H_    0.097845 0.873623 0.799472 0.223623
H42   H     H_    0.005591 0.844960 0.807546 0.185511
C107  C     C_3   0.859758 0.035340 0.216329 -0.371898
C108  C     C_3   0.798008 0.042387 0.248369 -0.338373
C109  C     C_3   0.730100 0.075160 0.228378 -0.829345
H43   H     H_    0.742040 0.130457 0.216140 0.259708
H44   H     H_    0.710722 0.040070 0.202381 0.257235
H45   H     H_    0.686208 0.079497 0.252095 0.246846
H46   H     H_    0.783522 0.988203 0.261049 0.219712
H47   H     H_    0.814877 0.077373 0.274861 0.252504
H48   H     H_    0.867110 0.088037 0.199787 0.219370
H49   H     H_    0.844924 0.993798 0.192598 0.189172
C110  C     C_3   0.859251 0.037731 0.783813 -0.372041
C111  C     C_3   0.797982 0.048624 0.751812 -0.339021
C112  C     C_3   0.728052 0.073344 0.773226 -0.839684
H50   H     H_    0.709238 0.031301 0.795720 0.255559
H51   H     H_    0.737178 0.125354 0.790129 0.257689
H52   H     H_    0.684878 0.081907 0.749428 0.246223
H53   H     H_    0.813694 0.090141 0.728393 0.254705
H54   H     H_    0.786570 0.997200 0.735025 0.218984
H55   H     H_    0.843337 0.994958 0.806570 0.190463
H56   H     H_    0.867574 0.089118 0.801513 0.217298
C113  C     C_3   0.557381 0.632305 0.716371 -0.364453
C114  C     C_3   0.587630 0.686295 0.748563 -0.303758
C115  C     C_3   0.604170 0.759649 0.728316 -0.844046
H57   H     H_    0.643730 0.752754 0.702376 0.254316
H58   H     H_    0.553428 0.784476 0.715937 0.267765
H59   H     H_    0.628022 0.797020 0.751915 0.248647
H60   H     H_    0.548234 0.694801 0.774320 0.257166
H61   H     H_    0.638758 0.664904 0.762181 0.246416
H62   H     H_    0.601086 0.618062 0.693808 0.204202
H63   H     H_    0.512092 0.658058 0.698702 0.215441
C116  C     C_3   0.400440 0.606180 0.283060 -0.366318
C117  C     C_3   0.362732 0.654607 0.250538 -0.315260
C118  C     C_3   0.303367 0.700897 0.270674 -0.805295
H64   H     H_    0.260153 0.665563 0.284022 0.256791
H65   H     H_    0.326748 0.735415 0.295827 0.263752
H66   H     H_    0.278484 0.736885 0.246738 0.251467
H67   H     H_    0.402888 0.691648 0.235923 0.252990
H68   H     H_    0.337862 0.621125 0.225523 0.255200
H69   H     H_    0.358833 0.575492 0.301102 0.215149
H70   H     H_    0.431243 0.641107 0.305236 0.205004
C119  C     C_3   0.099631 0.106214 0.216938 -0.366408
C120  C     C_3   0.137160 0.154797 0.249458 -0.314917
C121  C     C_3   0.196990 0.200662 0.229422 -0.805589
H71   H     H_    0.240246 0.165034 0.216409 0.256834
H72   H     H_    0.174101 0.234977 0.204031 0.263665
H73   H     H_    0.221681 0.236832 0.253337 0.251532
H74   H     H_    0.096981 0.192140 0.263774 0.252807
H75   H     H_    0.161547 0.121461 0.274693 0.255224
H76   H     H_    0.141326 0.075484 0.199004 0.215304
H77   H     H_    0.068939 0.141036 0.194663 0.204747
C122  C     C_3   0.098117 0.107080 0.782970 -0.364851
C123  C     C_3   0.143649 0.148099 0.750393 -0.300876
C124  C     C_3   0.185017 0.211142 0.770409 -0.848306
H78   H     H_    0.146329 0.251380 0.783725 0.263933
H79   H     H_    0.221241 0.190692 0.795607 0.254876
H80   H     H_    0.218846 0.238830 0.746437 0.249984
H81   H     H_    0.183814 0.110809 0.736013 0.248475
H82   H     H_    0.108488 0.169963 0.725213 0.255408
H83   H     H_    0.064488 0.146381 0.800971 0.213611
H84   H     H_    0.135218 0.079020 0.805177 0.206282
C125  C     C_3   0.442812 0.365680 0.783756 -0.385460
C126  C     C_3   0.416533 0.310209 0.751213 -0.360795
C127  C     C_3   0.391969 0.239866 0.772234 -0.840095
H85   H     H_    0.438356 0.214020 0.788842 0.256383
H86   H     H_    0.347681 0.251198 0.794929 0.255535
H87   H     H_    0.371280 0.201365 0.748256 0.252946
H88   H     H_    0.370196 0.332550 0.733162 0.222714
H89   H     H_    0.460598 0.297238 0.728800 0.224098
H90   H     H_    0.486139 0.341204 0.803440 0.198243
H91   H     H_    0.397287 0.380159 0.804979 0.193355
C128  C     C_3   0.597941 0.392200 0.217089 -0.390759
C129  C     C_3   0.638164 0.346887 0.250130 -0.355023
C130  C     C_3   0.689367 0.292150 0.229652 -0.831605
H92   H     H_    0.658180 0.254092 0.209460 0.250887
H93   H     H_    0.730825 0.320844 0.210492 0.259130
H94   H     H_    0.717746 0.260135 0.254177 0.257546
H95   H     H_    0.670492 0.382617 0.270944 0.225606
H96   H     H_    0.598888 0.316685 0.269836 0.223229
H97   H     H_    0.565966 0.355764 0.196371 0.196531
H98   H     H_    0.637873 0.421077 0.197017 0.195269
C131  C     C_3   0.902032 0.892201 0.282924 -0.390639
C132  C     C_3   0.861813 0.846866 0.249886 -0.355132
C133  C     C_3   0.810577 0.792125 0.270367 -0.831590
H99   H     H_    0.841737 0.754085 0.290576 0.250932
H100  H     H_    0.769116 0.820817 0.289510 0.259157
H101  H     H_    0.782203 0.760092 0.245844 0.257514
H102  H     H_    0.829512 0.882580 0.229055 0.225576
H103  H     H_    0.901091 0.816666 0.230195 0.223202
H104  H     H_    0.933996 0.855781 0.303650 0.196569
H105  H     H_    0.862098 0.921063 0.302986 0.195348
C134  C     C_3   0.899504 0.894042 0.716912 -0.389060
C135  C     C_3   0.856463 0.851075 0.749799 -0.358270
C136  C     C_3   0.808523 0.793525 0.729214 -0.832978
H106  H     H_    0.769372 0.819612 0.707404 0.252546
H107  H     H_    0.842521 0.753894 0.711730 0.258727
H108  H     H_    0.777428 0.763702 0.753555 0.255732
H109  H     H_    0.893905 0.823717 0.771937 0.225070
H110  H     H_    0.821145 0.888080 0.768089 0.223691
H111  H     H_    0.861278 0.922883 0.695754 0.193138
H112  H     H_    0.931698 0.856126 0.697234 0.198243

loop_
_geom_bond_atom_site_label_1
_geom_bond_atom_site_label_2
_ccdc_geom_bond_type
C15   C75   T    
C89   C90   S    
Cu7   O29   S    
C54   C92   S    
C122  H83   S    
Cu10  O38   S    
Cu4   O19   S    
Cu5   O21   S    
C31   O34   A    
C12   C84   S    
Cu9   O37   S    
Cu1   O14   S    
C33   O37   A    
C91   H2    S    
C3    C19   S    
Cu2   O16   S    
C107  H49   S    
Cu1   O1    S    
C103  H29   S    
C101  H35   S    
C111  C112  S    
Cu1   O13   S    
C119  H76   S    
C59   C107  S    
C23   C37   S    
C10   C82   S    
C17   C21   T    
C95   H21   S    
C19   C23   T    
C112  H50   S    
C30   C76   S    
C78   C82   S    
Cu2   Cu4   S    
C110  C111  S    
C42   C72   S    
Cu3   O18   S    
C113  H62   S    
Cu2   O4    S    
Cu6   O22   S    
C42   O16   A    
C93   C94   S    
C13   C73   T    
C124  H79   S    
C102  H33   S    
C90   C91   S    
C33   C47   S    
C7    C119  S    
C34   C48   S    
C132  C133  S    
C80   C134  S    
C1    O1    A    
C3    O3    A    
Cu11  O47   S    
C62   I2    S    
Cu10  O44   S    
C120  H75   S    
C121  H72   S    
C58   C88   S    
C32   O35   A    
Cu4   O11   S    
C21   C35   S    
C22   C36   S    
Cu10  O6    S    
C36   O44   A    
C4    O4    A    
C34   O40   A    
C104  H42   S    
C128  H97   S    
C127  H86   S    
C59   C87   S    
C135  H109  S    
C38   O48   A    
C4    C20   S    
C13   C85   S    
C53   C85   S    
C27   C73   S    
C25   O21   A    
C67   C83   S    
C105  H39   S    
C130  H94   S    
Cu9   Cu10  S    
C60   C88   S    
C108  H46   S    
Cu6   O27   S    
C93   H12   S    
C118  H64   S    
C40   C70   S    
C14   C74   T    
C112  H52   S    
Cu5   O33   S    
C2    O2    A    
C56   C78   S    
C119  C120  S    
C46   C47   T    
C100  H23   S    
Cu5   O26   S    
C65   I5    S    
C59   C67   S    
C53   C61   S    
C29   O29   A    
C39   O13   A    
C55   C63   S    
C103  H31   S    
C56   C64   S    
Cu1   Cu3   S    
C41   C71   S    
C5    C85   S    
C116  H70   S    
C44   C52   S    
Cu11  O45   S    
C125  C126  S    
Cu10  O42   S    
C94   H9    S    
Cu11  O39   S    
C41   O15   A    
C8    C122  S    
C131  H104  S    
C106  H36   S    
C136  H107  S    
Cu2   O3    S    
Cu12  O8    S    
C14   C86   S    
C89   H6    S    
C54   C86   S    
C117  H67   S    
C107  C108  S    
C125  H90   S    
C114  H60   S    
C57   C87   S    
C8    C88   S    
C43   O6    A    
C56   C98   S    
C32   C50   S    
C130  H92   S    
C39   C69   S    
C5    C61   S    
C115  H58   S    
C111  H53   S    
C90   H4    S    
Cu8   O31   S    
C99   H25   S    
C129  H96   S    
C126  H88   S    
C134  H111  S    
C123  H82   S    
C25   C45   S    
C92   H13   S    
C44   O7    A    
Cu7   O23   S    
C60   C80   S    
C118  H66   S    
C16   C76   T    
C122  C123  S    
C1    C17   S    
C6    C86   S    
C120  C121  S    
Cu4   O20   S    
Cu9   O5    S    
C61   C81   S    
C109  H45   S    
C42   O20   A    
C29   O31   A    
C61   I1    S    
C30   O32   A    
C132  H102  S    
C12   C72   T    
C101  C102  S    
C133  H101  S    
C35   O42   A    
C7    C67   S    
C126  C127  S    
C107  H48   S    
C40   O18   A    
C98   H28   S    
C131  H105  S    
C101  H34   S    
C115  H57   S    
C80   C84   S    
C28   C74   S    
C79   C131  S    
Cu8   O36   S    
C110  H56   S    
C5    C113  S    
Cu3   O10   S    
C9    C69   T    
C11   C71   T    
C106  H38   S    
C95   H20   S    
C5    C63   S    
C67   I7    S    
C94   H8    S    
C6    C64   S    
C1    O9    A    
C27   O27   A    
C7    C87   S    
Cu7   Cu8   S    
C3    O11   A    
C105  C106  S    
C127  H85   S    
Cu3   O17   S    
C37   O46   A    
C96   H18   S    
C58   C80   S    
C97   H17   S    
C62   C82   S    
C18   C22   T    
C124  H78   S    
C55   C95   S    
C26   O24   A    
C31   C49   S    
C28   O26   A    
C96   C97   S    
C122  H84   S    
C134  C135  S    
C68   C84   S    
C6    C116  S    
C59   C79   S    
C109  H43   S    
C32   O36   A    
Cu4   O12   S    
C54   C62   S    
C11   C83   S    
C30   O30   A    
C104  C105  S    
C55   C85   S    
C53   C77   S    
C133  H99   S    
C7    C65   S    
C91   H1    S    
C77   C81   S    
C33   O38   A    
C49   C52   T    
C104  H41   S    
C50   C51   T    
C91   H3    S    
C129  H95   S    
C41   O19   A    
C63   I3    S    
C135  H110  S    
C10   C70   T    
C92   C93   S    
C117  C118  S    
C66   I6    S    
C45   C48   T    
C114  C115  S    
C2    O10   A    
C105  H40   S    
C119  H77   S    
C57   C65   S    
C108  H47   S    
Cu6   O28   S    
Cu11  O7    S    
C6    C62   S    
C98   C99   S    
C112  H51   S    
C39   O17   A    
C79   C83   S    
C27   O25   A    
C43   C51   S    
C113  H63   S    
C100  H22   S    
Cu5   O25   S    
C38   O47   A    
C26   C46   S    
C97   H15   S    
C123  C124  S    
C60   C68   S    
C95   C96   S    
C124  H80   S    
C102  H32   S    
C16   C88   S    
C130  H93   S    
C28   O28   A    
C54   C78   S    
C116  H69   S    
C8    C66   S    
Cu5   Cu6   S    
Cu1   O2    S    
C2    C18   S    
C131  C132  S    
C57   C79   S    
C120  H74   S    
C31   O33   A    
C121  H73   S    
C136  H106  S    
C63   C81   S    
C36   O43   A    
C55   C77   S    
C117  H68   S    
C65   C83   S    
C114  H61   S    
C34   O39   A    
C128  H98   S    
C43   O5    A    
C127  H87   S    
C77   C125  S    
Cu9   O43   S    
Cu12  O40   S    
C106  H37   S    
C56   C86   S    
C58   C66   S    
C40   O14   A    
C128  C129  S    
Cu12  O46   S    
C123  H81   S    
C24   C38   S    
C102  C103  S    
C25   O22   A    
C111  H54   S    
Cu7   O30   S    
C90   H5    S    
Cu8   O32   S    
C4    O12   A    
C99   H26   S    
C126  H89   S    
C44   O8    A    
C93   H11   S    
C118  H65   S    
Cu8   O24   S    
C20   C24   T    
Cu2   O15   S    
C66   C84   S    
C99   C100  S    
C100  H24   S    
C109  H44   S    
Cu11  Cu12  S    
Cu9   O41   S    
Cu7   O35   S    
C132  H103  S    
C133  H100  S    
C64   C82   S    
C35   O41   A    
C64   I4    S    
C8    C68   S    
C94   H10   S    
C121  H71   S    
C78   C128  S    
C135  C136  S    
C15   C87   S    
C136  H108  S    
C98   H27   S    
C68   I8    S    
C89   H7    S    
C116  C117  S    
C29   C75   S    
C110  H55   S    
C125  H91   S    
C53   C89   S    
C60   C110  S    
C129  C130  S    
Cu3   O9    S    
C108  C109  S    
C58   C104  S    
Cu12  O48   S    
Cu6   O34   S    
C115  H59   S    
C103  H30   S    
C57   C101  S    
C26   O23   A    
C134  H112  S    
C37   O45   A    
C113  C114  S    
C96   H19   S    
C9    C81   S    
C92   H14   S    
C97   H16   S    
