data_mof_unit_19713.cif
_audit_creation_date              2012-12-10T16:49:23-0500
_audit_creation_method            fapswitch 2.2
_symmetry_space_group_name_H-M    P1
_symmetry_Int_Tables_number       1
_space_group_crystal_system       triclinic
_cell_length_a                    19.205237
_cell_length_b                    8.724086
_cell_length_c                    7.503558
_cell_angle_alpha                 102.997027
_cell_angle_beta                  94.586284
_cell_angle_gamma                 93.308586
_cell_volume                      1217.36320547

loop_
_atom_site_label
_atom_site_type_symbol
_atom_type_description
_atom_site_fract_x
_atom_site_fract_y
_atom_site_fract_z
_atom_type_partial_charge
C1    C     C_R   0.497182 0.200382 0.454260 0.817675
C2    C     C_R   0.502817 0.799618 0.545740 0.817673
C3    C     C_2   0.486892 0.033873 0.433217 0.117260
C4    C     C_2   0.513107 0.966127 0.566784 0.117260
C5    C     C_R   0.367935 0.498816 0.501646 0.781494
C6    C     C_R   0.632065 0.501184 0.498354 0.781490
C7    C     C_R   0.259239 0.634551 0.553289 0.113596
C8    C     C_R   0.740764 0.365446 0.446793 0.113609
C9    C     C_R   0.186799 0.628551 0.557547 -0.177522
C10   C     C_R   0.813204 0.371445 0.442553 -0.177515
C11   C     C_R   0.146531 0.484136 0.519190 -0.019098
C12   C     C_R   0.853471 0.515861 0.480853 -0.019097
C13   C     C_R   0.179242 0.340178 0.481349 0.195036
C14   C     C_R   0.820758 0.659819 0.518621 0.195049
C15   C     C_R   0.252578 0.344834 0.467845 0.111511
C16   C     C_R   0.747420 0.655166 0.532100 0.111534
C17   C     C_R   0.291964 0.492720 0.505934 -0.033551
C18   C     C_R   0.708036 0.507279 0.494071 -0.033553
C19   C     C_R   0.929887 0.510540 0.488656 0.416342
C20   C     C_R   0.070114 0.489458 0.511392 0.416343
Cu1   Cu    Cu3+1 0.507710 0.517380 0.684380 1.149567
Cu2   Cu    Cu3+1 0.492290 0.482620 0.315620 1.149564
H1    H     H_    0.161144 0.737751 0.587436 0.162410
H2    H     H_    0.838862 0.262245 0.412721 0.162404
N1    N     N_R   0.028386 0.400663 0.366014 -0.218182
N2    N     N_R   0.971615 0.599335 0.634034 -0.218181
N3    N     N_R   0.959375 0.410082 0.355583 -0.227664
N4    N     N_R   0.040626 0.589915 0.644466 -0.227675
N5    N     N_2   0.480680 0.456420 0.038530 0.141843
N6    N     N_2   0.519320 0.543580 0.961470 0.141844
O1    O     O_R   0.505010 0.286130 0.619770 -0.531175
O2    O     O_R   0.494990 0.713870 0.380230 -0.531175
O3    O     O_R   0.491990 0.256780 0.308370 -0.522959
O4    O     O_R   0.508010 0.743220 0.691630 -0.522959
O5    O     O_R   0.406650 0.514660 0.655750 -0.550414
O6    O     O_R   0.593350 0.485340 0.344250 -0.550411
O7    O     O_R   0.393640 0.485310 0.344340 -0.556078
O8    O     O_R   0.606360 0.514690 0.655660 -0.556068
C21   C     C_3   0.300796 0.792821 0.595093 -0.789842
H3    H     H_    0.328493 0.805735 0.474405 0.246887
H4    H     H_    0.266724 0.892127 0.627647 0.232329
H5    H     H_    0.339871 0.802294 0.715162 0.263408
C22   C     C_3   0.699209 0.207178 0.405048 -0.789886
H6    H     H_    0.671510 0.194304 0.525748 0.246930
H7    H     H_    0.660135 0.197666 0.284968 0.263384
H8    H     H_    0.733283 0.107871 0.372541 0.232319
C23   C     C_3   0.137656 0.183854 0.465749 -0.811151
H9    H     H_    0.163924 0.116892 0.557879 0.228996
H10   H     H_    0.084248 0.196925 0.509901 0.239970
H11   H     H_    0.133375 0.113864 0.321595 0.243215
C24   C     C_3   0.862344 0.816138 0.534177 -0.811164
H12   H     H_    0.836089 0.883048 0.441966 0.229001
H13   H     H_    0.866600 0.886186 0.678304 0.243205
H14   H     H_    0.915763 0.803061 0.490104 0.239975
C25   C     C_3   0.290329 0.195142 0.415399 -0.780888
H15   H     H_    0.319520 0.199161 0.294458 0.265450
H16   H     H_    0.328014 0.185565 0.531800 0.247205
H17   H     H_    0.255281 0.085403 0.376736 0.241581
C26   C     C_3   0.709665 0.804858 0.584466 -0.780934
H18   H     H_    0.680482 0.800894 0.705436 0.265441
H19   H     H_    0.744708 0.914604 0.623044 0.241566
H20   H     H_    0.671971 0.814372 0.468054 0.247237
Cl1   Cl    Cl    0.429844 0.934069 0.237799 -0.558444
Cl2   Cl    Cl    0.570152 0.065931 0.762207 -0.558433
Cl3   Cl    Cl    0.416639 0.321058 0.908736 -0.438790
Cl4   Cl    Cl    0.583361 0.678943 0.091264 -0.438796

loop_
_geom_bond_atom_site_label_1
_geom_bond_atom_site_label_2
_ccdc_geom_bond_type
C2    C4    S    
C22   H6    S    
C6    O8    A    
C15   C17   A    
N5    N6    D    
Cu1   O5    S    
Cu2   N5    S    
C3    Cl1   S    
C21   H5    S    
C9    C11   A    
Cu1   N6    S    
C4    Cl2   S    
N2    N4    A    
C14   C24   S    
C8    C22   S    
C1    O1    A    
C25   H15   S    
C24   H14   S    
C10   H2    S    
C2    O4    A    
C13   C15   A    
C3    C4    D    
C1    O3    A    
C26   H18   S    
C21   H4    S    
C16   C18   A    
Cu1   Cu2   S    
C5    C17   S    
C22   H7    S    
Cu1   O1    S    
N6    Cl4   S    
C10   C12   A    
Cu2   O3    S    
N5    Cl3   S    
C5    O5    A    
C12   C19   S    
C2    O2    A    
C19   N3    A    
C12   C14   A    
C23   H11   S    
C5    O7    A    
C25   H16   S    
C6    C18   S    
C22   H8    S    
C14   C16   A    
C11   C20   S    
C26   H19   S    
N1    N3    A    
C20   N1    A    
C24   H13   S    
C24   H12   S    
C11   C13   A    
Cu2   O2    S    
Cu2   O6    S    
C23   H10   S    
C25   H17   S    
C21   H3    S    
C7    C9    A    
C19   N2    A    
C7    C21   S    
C9    H1    S    
C26   H20   S    
Cu1   O4    S    
C20   N4    A    
C1    C3    S    
Cu2   O7    S    
C13   C23   S    
C8    C10   A    
C8    C18   A    
Cu1   O8    S    
C23   H9    S    
C6    O6    A    
C7    C17   A    
C16   C26   S    
C15   C25   S    
