data_mof_unit_44514.cif
_audit_creation_date              2012-12-10T17:16:38-0500
_audit_creation_method            fapswitch 2.2
_symmetry_space_group_name_H-M    P1
_symmetry_Int_Tables_number       1
_space_group_crystal_system       triclinic
_cell_length_a                    10.261658
_cell_length_b                    10.451245
_cell_length_c                    10.71368
_cell_angle_alpha                 91.30238
_cell_angle_beta                  96.2808
_cell_angle_gamma                 76.69754
_cell_volume                      1111.46676547

loop_
_atom_site_label
_atom_site_type_symbol
_atom_type_description
_atom_site_fract_x
_atom_site_fract_y
_atom_site_fract_z
_atom_type_partial_charge
C1    C     C_R   0.443420 0.503659 0.266380 0.858685
C2    C     C_R   0.557344 0.486731 0.733368 0.863521
C3    C     C_2   0.411555 0.489966 0.132330 0.110779
C4    C     C_2   0.592362 0.463444 0.866743 0.108151
C5    C     C_2   0.513319 0.433397 0.066365 -0.153077
C6    C     C_2   0.498268 0.434333 0.931528 -0.196681
C7    C     C_2   0.074268 0.487936 0.490216 -0.007475
C8    C     C_2   0.926602 0.509254 0.512508 -0.040295
C9    C     C_R   0.507484 0.255728 0.504604 0.881328
C10   C     C_R   0.487326 0.739162 0.475321 0.890933
C11   C     C_R   0.733769 0.038244 0.402830 0.144156
C12   C     C_R   0.229331 0.970640 0.480978 0.302688
C13   C     C_R   0.825580 0.918409 0.381855 0.523219
C14   C     C_R   0.143555 0.062539 0.551649 0.391175
C15   C     C_R   0.777238 0.831667 0.298408 0.297763
C16   C     C_R   0.201152 0.137738 0.644066 0.148291
C17   C     C_R   0.642634 0.828451 0.298418 -0.258563
C18   C     C_R   0.335682 0.141937 0.643425 -0.204465
C19   C     C_R   0.564644 0.912755 0.381117 -0.000374
C20   C     C_R   0.411431 0.072456 0.551097 -0.031817
C21   C     C_R   0.603355 0.027679 0.425673 -0.046631
C22   C     C_R   0.367529 0.968573 0.491578 -0.093178
C23   C     C_R   0.460743 0.875189 0.432409 -0.093460
C24   C     C_R   0.518586 0.113846 0.504434 -0.115476
H1    H     H_    0.606457 0.748084 0.251973 0.193008
H2    H     H_    0.376578 0.209221 0.706160 0.187117
H3    H     H_    0.402377 0.422335 0.884706 0.211540
H4    H     H_    0.614157 0.395709 0.112272 0.236569
H5    H     H_    0.889141 0.578669 0.584319 0.189233
H6    H     H_    0.112296 0.416588 0.420109 0.173824
H7    H     H_    0.882415 0.384414 0.381069 0.226055
H8    H     H_    0.117119 0.618427 0.616649 0.209737
N1    N     N_2   0.157300 0.551390 0.551120 -0.157831
N2    N     N_2   0.842700 0.448610 0.448880 -0.175273
O1    O     O_R   0.568940 0.489660 0.307530 -0.617657
O2    O     O_R   0.431060 0.510340 0.692470 -0.623111
O3    O     O_R   0.348880 0.522640 0.340350 -0.552369
O4    O     O_R   0.651120 0.477360 0.659650 -0.565988
O5    O     O_R   0.610030 0.300280 0.483580 -0.573542
O6    O     O_R   0.389970 0.699720 0.516420 -0.581074
O7    O     O_R   0.389970 0.333270 0.516400 -0.619649
O8    O     O_R   0.610030 0.666730 0.483600 -0.606659
Zn1   Zn    Zn3+2 0.646940 0.477980 0.478080 1.019341
Zn2   Zn    Zn3+2 0.353060 0.522020 0.521920 1.030909
Br1   Br    Br    0.098912 0.247914 0.761995 -0.425453
Br2   Br    Br    0.896974 0.688150 0.227003 -0.313616
Br3   Br    Br    0.745192 0.167332 0.282583 -0.439585
Br4   Br    Br    0.156656 0.877055 0.344005 -0.305547
O9    O     O_3   0.920400 0.859377 0.476886 -0.718968
H9    H     H_    0.900342 0.906314 0.556525 0.358442
O10   O     O_3   0.006524 0.082594 0.522397 -0.732850
H10   H     H_    0.959810 0.160001 0.567916 0.364331
Br5   Br    Br    0.765647 0.483299 0.942792 -0.342168
Br6   Br    Br    0.230197 0.558589 0.057151 -0.327964

loop_
_geom_bond_atom_site_label_1
_geom_bond_atom_site_label_2
_ccdc_geom_bond_type
C16   Br1   S    
C19   C23   A    
C9    C24   S    
C10   C23   S    
C10   O8    A    
C5    H4    S    
O1    Zn1   S    
C2    O4    A    
C11   Br3   S    
C14   O10   S    
C18   H2    S    
C6    H3    S    
C1    O3    A    
C12   Br4   S    
C17   H1    S    
H8    N1    S    
O3    Zn2   S    
H7    N2    S    
C7    C8    S    
C7    H6    S    
C8    N2    D    
C7    N1    D    
C13   O9    S    
C2    C4    S    
C16   C18   A    
C19   C21   A    
C12   C14   A    
C18   C20   A    
C13   C15   A    
C5    C6    S    
C4    Br5   S    
C3    Br6   S    
C14   C16   A    
O2    Zn2   S    
C11   C13   A    
O7    Zn2   S    
C8    H5    S    
O10   H10   S    
C12   C22   A    
O6    Zn2   S    
C1    O1    A    
C4    C6    D    
O9    H9    S    
O8    Zn1   S    
C21   C24   A    
C2    O2    A    
C1    C3    S    
C15   C17   A    
C22   C23   A    
C10   O6    A    
O5    Zn1   S    
C15   Br2   S    
C17   C19   A    
N2    Zn1   S    
N1    Zn2   S    
C9    O7    A    
C11   C21   A    
C9    O5    A    
O4    Zn1   S    
C20   C24   A    
C20   C22   A    
C3    C5    D    
