data_mof_unit_51634.cif
_audit_creation_date              2012-12-11T14:50:50-0500
_audit_creation_method            fapswitch 2.2
_symmetry_space_group_name_H-M    P1
_symmetry_Int_Tables_number       1
_space_group_crystal_system       triclinic
_cell_length_a                    10.984173
_cell_length_b                    10.958853
_cell_length_c                    18.671129
_cell_angle_alpha                 90.293182
_cell_angle_beta                  89.681608
_cell_angle_gamma                 60.231736
_cell_volume                      1950.8258288

loop_
_atom_site_label
_atom_site_type_symbol
_atom_type_description
_atom_site_fract_x
_atom_site_fract_y
_atom_site_fract_z
_atom_type_partial_charge
C1    C     C_R   0.299135 0.619282 0.615105 0.520792
C2    C     C_R   0.537721 0.224534 0.799701 -0.131043
C3    C     C_R   0.521128 0.246749 0.727459 -0.150619
C4    C     C_R   0.654980 0.624861 0.599496 0.570383
C5    C     C_R   0.623959 0.252792 0.686754 0.010074
C6    C     C_R   0.248327 0.528431 0.728211 -0.148188
C7    C     C_R   0.214985 0.543090 0.801060 -0.131273
C8    C     C_R   0.203313 0.658599 0.839496 0.047536
C9    C     C_R   0.242981 0.748357 0.806382 -0.132515
C10   C     C_R   0.276810 0.732925 0.734023 -0.164352
C11   C     C_R   0.277623 0.624517 0.693558 -0.000463
C12   C     C_3   0.693614 0.580726 0.799584 -0.268885
C13   C     C_R   0.726384 0.525072 0.270925 -0.124176
C14   C     C_R   0.723857 0.537602 0.197647 -0.130489
C15   C     C_R   0.648319 0.670214 0.166706 0.029442
C16   C     C_R   0.595723 0.286972 0.610752 0.535296
C17   C     C_R   0.560959 0.787919 0.209602 -0.129660
C18   C     C_R   0.559445 0.774166 0.283686 -0.131774
C19   C     C_R   0.646930 0.643308 0.314715 0.034942
C20   C     C_R   0.549173 0.150299 0.289033 -0.134758
C21   C     C_R   0.546734 0.148628 0.215776 -0.137512
C22   C     C_R   0.651370 0.156730 0.176650 0.040053
C23   C     C_3   0.728658 0.701738 0.805171 0.061881
C24   C     C_R   0.755391 0.172416 0.211637 -0.145980
C25   C     C_R   0.756476 0.176353 0.285428 -0.148683
C26   C     C_R   0.650175 0.170626 0.324169 0.037103
C27   C     C_R   0.084044 0.804629 0.306544 -0.134327
C28   C     C_R   0.218190 0.650095 0.403113 0.557086
C29   C     C_R   0.065231 0.816825 0.233932 -0.121252
C30   C     C_R   0.103994 0.696661 0.191299 0.039593
C31   C     C_R   0.147583 0.566412 0.222561 -0.138687
C32   C     C_R   0.168132 0.553714 0.295714 -0.128088
C33   C     C_R   0.145415 0.671636 0.336671 0.031826
C34   C     C_3   0.678501 0.661381 0.672384 0.042487
C35   C     C_R   0.698049 0.108635 0.898534 0.550726
C36   C     C_R   0.757141 0.713088 0.882808 0.576496
C37   C     C_R   0.121756 0.704546 0.906582 0.553681
C38   C     C_R   0.674373 0.107793 0.103760 0.544968
C39   C     C_R   0.693520 0.689336 0.096479 0.553666
C40   C     C_R   0.640270 0.619866 0.390761 0.559565
C41   C     C_R   0.081522 0.715910 0.115627 0.552978
C42   C     C_R   0.618753 0.226385 0.395875 0.566199
C43   C     C_3   0.598384 0.837642 0.776125 -0.219353
C44   C     C_3   0.579327 0.819150 0.694720 -0.086366
C45   C     C_3   0.835862 0.612363 0.682726 -0.200496
C46   C     C_3   0.855760 0.673770 0.754519 0.128650
C47   C     C_2   0.596157 0.922534 0.648648 0.207500
C48   C     C_3   0.929417 0.805632 0.682520 0.001607
C49   C     C_3   0.963288 0.923228 0.684364 -0.361788
C50   C     C_3   0.646514 0.572289 0.724006 -0.288000
C51   C     C_R   0.747409 0.231875 0.720376 -0.167566
C52   C     C_R   0.769906 0.197687 0.792826 -0.139878
C53   C     C_R   0.667100 0.187239 0.831939 0.045416
Cr1   Cr    Cr6+3 0.392930 0.397900 0.502230 1.025590
Cr2   Cr    Cr6+3 0.398240 0.708600 0.501260 1.041495
Cr3   Cr    Cr6+3 0.708800 0.393470 0.496460 1.004801
Cr4   Cr    Cr6+3 0.937620 0.938540 0.007640 1.011858
Cr5   Cr    Cr6+3 0.625150 0.937450 0.994520 1.007158
Cr6   Cr    Cr6+3 0.937990 0.625080 0.001190 1.010606
H1    H     H_    0.609051 0.931708 0.786822 0.161565
H2    H     H_    0.185421 0.471920 0.825329 0.106996
H3    H     H_    0.235995 0.838318 0.834526 0.126169
H4    H     H_    0.501925 0.856098 0.805344 0.106370
H5    H     H_    0.293911 0.811321 0.708690 0.114257
H6    H     H_    0.790959 0.421769 0.293162 0.132416
H7    H     H_    0.790522 0.444978 0.165621 0.125404
H8    H     H_    0.501423 0.891459 0.186578 0.127091
H9    H     H_    0.493360 0.865478 0.316601 0.124431
H10   H     H_    0.466251 0.144542 0.317830 0.130733
H11   H     H_    0.466480 0.134182 0.190169 0.125288
H12   H     H_    0.704638 0.463988 0.705684 0.140850
H13   H     H_    0.838740 0.176068 0.182145 0.115475
H14   H     H_    0.836368 0.190091 0.311892 0.116852
H15   H     H_    0.062459 0.896880 0.337895 0.128275
H16   H     H_    0.469108 0.845375 0.687527 0.121859
H17   H     H_    0.023562 0.920407 0.211093 0.139616
H18   H     H_    0.171482 0.474484 0.190392 0.121827
H19   H     H_    0.213640 0.449789 0.318736 0.136655
H20   H     H_    0.881842 0.627934 0.633302 0.108189
H21   H     H_    0.787863 0.478357 0.812485 0.137195
H22   H     H_    0.608947 0.597571 0.838257 0.149861
H23   H     H_    0.954410 0.593399 0.779287 0.116121
H24   H     H_    0.535244 0.602524 0.723616 0.127589
H25   H     H_    0.635737 0.986991 0.671045 0.151560
H26   H     H_    0.860883 0.827819 0.635489 0.143911
H27   H     H_    0.024458 0.705184 0.671549 0.151327
H28   H     H_    0.976055 0.950292 0.740034 0.183132
H29   H     H_    0.058847 0.895857 0.653380 0.149544
H30   H     H_    0.880605 0.012347 0.655023 0.141418
H31   H     H_    0.896874 0.495591 0.687162 0.091931
H32   H     H_    0.830033 0.234820 0.689769 0.120504
H33   H     H_    0.869936 0.170549 0.816465 0.115119
H34   H     H_    0.453305 0.221284 0.828321 0.130380
H35   H     H_    0.429536 0.252899 0.703033 0.125945
H36   H     H_    0.236908 0.450856 0.697646 0.114440
O1    O     O_R   0.507430 0.255570 0.581420 -0.491644
O2    O     O_R   0.837200 0.593290 0.915250 -0.537699
O3    O     O_R   0.065330 0.635370 0.931590 -0.518511
O4    O     O_R   0.280190 0.527390 0.578910 -0.522152
O5    O     O_R   0.068300 0.828790 0.091860 -0.529374
O6    O     O_R   0.798730 0.057480 0.079370 -0.512730
O7    O     O_R   0.584680 0.080480 0.076790 -0.528850
O8    O     O_R   0.626790 0.809640 0.067050 -0.501748
O9    O     O_R   0.816010 0.596460 0.076500 -0.518380
O10   O     O_R   0.045680 0.638310 0.081070 -0.504125
O11   O     O_3   0.833590 0.833690 0.001120 -0.261546
O12   O     O_R   0.524460 0.695920 0.424060 -0.486026
O13   O     O_R   0.260310 0.739740 0.584580 -0.530133
O14   O     O_R   0.532250 0.695150 0.573830 -0.482242
O15   O     O_R   0.744930 0.503430 0.576380 -0.542310
O16   O     O_R   0.699250 0.276390 0.571950 -0.507841
O17   O     O_R   0.499020 0.256400 0.419850 -0.511630
O18   O     O_R   0.272400 0.528160 0.429140 -0.505779
O19   O     O_R   0.251910 0.740570 0.423020 -0.515407
O20   O     O_2   0.564567 0.935701 0.585460 -0.488460
O21   O     O_3   0.861219 0.801350 0.746606 -0.576289
O22   O     O_R   0.736530 0.504260 0.414810 -0.525133
O23   O     O_R   0.691460 0.277160 0.422180 -0.505868
O24   O     O_3   0.499990 0.499990 0.499980 -0.292750
O25   O     O_R   0.089490 0.825610 0.930610 -0.519875
O26   O     O_R   0.818370 0.054540 0.929880 -0.498079
O27   O     O_R   0.605870 0.077310 0.915530 -0.541581
O28   O     O_R   0.646440 0.806700 0.917570 -0.509414

loop_
_geom_bond_atom_site_label_1
_geom_bond_atom_site_label_2
_ccdc_geom_bond_type
C4    O14   A    
C35   C53   S    
Cr3   O22   S    
C49   H28   S    
C1    C11   S    
C43   C44   S    
C1    O4    A    
C43   H4    S    
C39   O9    A    
C29   H17   S    
C13   H6    S    
C45   C46   S    
C27   C33   A    
C47   O20   D    
C12   C23   S    
C24   H13   S    
Cr5   O28   S    
Cr6   O10   S    
C41   O10   A    
Cr6   O9    S    
C25   H14   S    
Cr1   O24   S    
C38   O6    A    
C28   O18   A    
C30   C31   A    
C27   C29   A    
C17   H8    S    
C18   H9    S    
C22   C38   S    
Cr1   O18   S    
C23   C43   S    
C18   C19   A    
C42   O17   A    
C7    H2    S    
C5    C16   S    
C51   H32   S    
C46   H23   S    
C8    C9    A    
C30   C41   S    
C36   O2    A    
Cr5   O7    S    
C27   H15   S    
C9    C10   A    
Cr3   O16   S    
Cr1   O1    S    
C44   C47   S    
C48   O21   S    
Cr4   O11   S    
C23   C46   S    
C13   C14   A    
Cr2   O14   S    
C49   H29   S    
Cr3   O15   S    
C37   O3    A    
C50   H24   S    
C31   H18   S    
C35   O27   A    
C4    C34   S    
C16   O1    A    
Cr6   O11   S    
Cr5   O27   S    
C13   C19   A    
C51   C52   A    
C35   O26   A    
C36   O28   A    
C34   C44   S    
C24   C25   A    
C19   C40   S    
C6    C11   A    
C42   O23   A    
Cr2   O24   S    
C25   C26   A    
Cr4   O5    S    
Cr4   O26   S    
C9    H3    S    
Cr2   O12   S    
Cr5   O11   S    
C44   H16   S    
C50   H12   S    
C29   C30   A    
C31   C32   A    
C17   C18   A    
C14   H7    S    
C41   O5    A    
Cr1   O17   S    
C45   H20   S    
C34   C45   S    
C47   H25   S    
C45   H31   S    
C15   C39   S    
C28   O19   A    
C43   H1    S    
Cr4   O25   S    
C48   C49   S    
C28   C33   S    
C23   C36   S    
C40   O12   A    
Cr6   O2    S    
Cr3   O24   S    
C22   C24   A    
Cr1   O4    S    
C52   H33   S    
C8    C37   S    
C52   C53   A    
C26   C42   S    
C15   C17   A    
C4    O15   A    
C14   C15   A    
Cr3   O23   S    
C2    H34   S    
C10   H5    S    
C49   H30   S    
C3    C5    A    
C2    C53   A    
C34   C50   S    
C12   C50   S    
C39   O8    A    
C6    C7    A    
Cr2   O19   S    
Cr4   O6    S    
C21   H11   S    
C46   O21   S    
Cr2   O13   S    
C32   C33   A    
C2    C3    A    
C38   O7    A    
C37   O25   A    
C20   C26   A    
C12   H21   S    
C12   H22   S    
C40   O22   A    
C3    H35   S    
C48   H27   S    
C20   H10   S    
C7    C8    A    
C10   C11   A    
C1    O13   A    
C32   H19   S    
C20   C21   A    
C6    H36   S    
Cr6   O3    S    
C48   H26   S    
C5    C51   A    
Cr5   O8    S    
C21   C22   A    
C16   O16   A    
