data_mof_unit_10859.cif
_audit_creation_date              2013-03-05T15:48:15-0500
_audit_creation_method            fapswitch 2.2
_symmetry_space_group_name_H-M    P1
_symmetry_Int_Tables_number       1
_space_group_crystal_system       triclinic
_cell_length_a                    15.719379
_cell_length_b                    15.698732
_cell_length_c                    34.453128
_cell_angle_alpha                 90.026056
_cell_angle_beta                  90.066052
_cell_angle_gamma                 119.974208
_cell_volume                      7364.97822515

loop_
_atom_site_label
_atom_site_type_symbol
_atom_site_description
_atom_site_fract_x
_atom_site_fract_y
_atom_site_fract_z
_atom_type_partial_charge
O1    O     O_R   0.498680 0.159540 0.541860 -0.477250
O2    O     O_R   0.840460 0.339140 0.541860 -0.466414
O3    O     O_R   0.660860 0.501320 0.541860 -0.485212
O4    O     O_R   0.159540 0.498680 0.041860 -0.475935
O5    O     O_R   0.339140 0.840460 0.041860 -0.478137
O6    O     O_R   0.501320 0.660860 0.041860 -0.479699
O7    O     O_R   0.532760 0.358060 0.540030 -0.460500
O8    O     O_R   0.641940 0.174700 0.540030 -0.485082
O9    O     O_R   0.825300 0.467240 0.540030 -0.480661
O10   O     O_R   0.358060 0.532760 0.040030 -0.474291
O11   O     O_R   0.174700 0.641940 0.040030 -0.476256
O12   O     O_R   0.467240 0.825300 0.040030 -0.476233
C1    C     C_R   0.577616 0.442006 0.554741 0.601518
C2    C     C_R   0.558172 0.136463 0.554671 0.597975
C3    C     C_R   0.866814 0.423715 0.554067 0.572432
C4    C     C_R   0.442090 0.577413 0.054745 0.580773
C5    C     C_R   0.136083 0.558272 0.054918 0.585643
C6    C     C_R   0.422841 0.865315 0.054554 0.598113
O13   O     O_R   0.498590 0.161190 0.456930 -0.513485
O14   O     O_R   0.838810 0.337400 0.456930 -0.512312
O15   O     O_R   0.662600 0.501410 0.456930 -0.511312
O16   O     O_R   0.161190 0.498590 0.956930 -0.509404
O17   O     O_R   0.337400 0.838810 0.956930 -0.510357
O18   O     O_R   0.501410 0.662600 0.956930 -0.508343
O19   O     O_R   0.532680 0.359580 0.461300 -0.464392
O20   O     O_R   0.640420 0.173100 0.461300 -0.466392
O21   O     O_R   0.826900 0.467320 0.461300 -0.463000
O22   O     O_R   0.359580 0.532680 0.961300 -0.464877
O23   O     O_R   0.173100 0.640420 0.961300 -0.465772
O24   O     O_R   0.467320 0.826900 0.961300 -0.463568
C7    C     C_R   0.576884 0.442733 0.445721 0.561545
C8    C     C_R   0.557058 0.133731 0.445929 0.562463
C9    C     C_R   0.865715 0.422981 0.445714 0.558934
C10   C     C_R   0.442853 0.576825 0.945890 0.560052
C11   C     C_R   0.133766 0.557101 0.945811 0.566665
C12   C     C_R   0.422884 0.865674 0.945731 0.562638
Cr1   Cr    Cr6+3 0.522350 0.263930 0.500020 1.132298
Cr2   Cr    Cr6+3 0.736070 0.258420 0.500020 1.118345
Cr3   Cr    Cr6+3 0.741580 0.477650 0.500020 1.128017
Cr4   Cr    Cr6+3 0.263930 0.522350 0.000020 1.128549
Cr5   Cr    Cr6+3 0.258420 0.736070 0.000020 1.110364
Cr6   Cr    Cr6+3 0.477650 0.741580 0.000020 1.125009
O25   O     O_3   0.666667 0.333333 0.499990 -0.283365
O26   O     O_3   0.333333 0.666667 0.999990 -0.289810
N1    N     N_R   0.945150 0.417902 0.769647 -0.152058
N2    N     N_R   0.586587 0.510804 0.773727 -0.153111
N3    N     N_R   0.433954 0.033690 0.769872 -0.150889
N4    N     N_R   0.410559 0.936034 0.271689 -0.149238
N5    N     N_R   0.543346 0.591620 0.269996 -0.154658
N6    N     N_R   0.056739 0.473506 0.270630 -0.160679
N7    N     N_R   0.935588 0.413411 0.731221 -0.131543
N8    N     N_R   0.593183 0.504132 0.735478 -0.148110
N9    N     N_R   0.440983 0.047240 0.731711 -0.147710
N10   N     N_R   0.404889 0.924745 0.233321 -0.123313
N11   N     N_R   0.538417 0.597540 0.231622 -0.145859
N12   N     N_R   0.067630 0.479976 0.232289 -0.169535
C13   C     C_R   0.931587 0.462129 0.589101 -0.039624
C14   C     C_R   0.542987 0.465565 0.591182 -0.023624
C15   C     C_R   0.537806 0.086648 0.592493 -0.035727
C16   C     C_R   0.459602 0.927739 0.090161 -0.020462
C17   C     C_R   0.467565 0.539619 0.090064 -0.036995
C18   C     C_R   0.075781 0.534411 0.090863 -0.033697
C19   C     C_R   0.983832 0.414930 0.601835 0.081025
C20   C     C_R   0.581361 0.565372 0.601870 0.038921
C21   C     C_R   0.451333 0.995018 0.597866 0.038253
C22   C     C_R   0.415225 0.983344 0.101912 0.068339
C23   C     C_R   0.567854 0.575641 0.099670 0.039589
C24   C     C_R   0.006776 0.434985 0.099832 0.029862
C25   C     C_R   0.014347 0.423593 0.641091 -0.016772
C26   C     C_R   0.583018 0.590615 0.641556 -0.028802
C27   C     C_R   0.420957 0.957450 0.635877 -0.033777
C28   C     C_R   0.417959 0.009018 0.141588 -0.022699
C29   C     C_R   0.594524 0.570288 0.138612 -0.033319
C30   C     C_R   0.972642 0.408336 0.138493 -0.042641
C31   C     C_R   0.993559 0.481181 0.666667 -0.004565
C32   C     C_R   0.541558 0.514158 0.669419 -0.001169
C33   C     C_R   0.480888 0.011217 0.667774 -0.003935
C34   C     C_R   0.469515 0.982948 0.168237 0.001697
C35   C     C_R   0.519821 0.526885 0.166931 -0.004427
C36   C     C_R   0.007179 0.482478 0.167319 0.003686
C37   C     C_R   0.957950 0.541721 0.652457 0.026543
C38   C     C_R   0.490183 0.414646 0.657762 0.026257
C39   C     C_R   0.571209 0.098962 0.661969 0.034939
C40   C     C_R   0.528550 0.944531 0.155170 0.034819
C41   C     C_R   0.420052 0.475966 0.155941 0.036111
C42   C     C_R   0.064219 0.582637 0.157238 0.033419
C43   C     C_R   0.928941 0.534038 0.613297 -0.024046
C44   C     C_R   0.488012 0.390167 0.618368 0.009027
C45   C     C_R   0.597478 0.138567 0.624479 0.023097
C46   C     C_R   0.524738 0.918011 0.115890 -0.000312
C47   C     C_R   0.393711 0.480533 0.117244 0.000740
C48   C     C_R   0.097658 0.608710 0.118865 0.011741
N13   N     N_R   0.093220 0.549974 0.725093 -0.218385
N14   N     N_R   0.494650 0.575170 0.726068 -0.210379
N15   N     N_R   0.445373 0.901721 0.723480 -0.206026
N16   N     N_R   0.533107 0.086658 0.225806 -0.219598
N17   N     N_R   0.555526 0.458742 0.224381 -0.213707
N18   N     N_R   0.900828 0.427889 0.224677 -0.193942
N19   N     N_R   0.102844 0.554106 0.763488 -0.198243
N20   N     N_R   0.488201 0.581946 0.764274 -0.192542
N21   N     N_R   0.437386 0.887813 0.761684 -0.199726
N22   N     N_R   0.538393 0.098003 0.264104 -0.197426
N23   N     N_R   0.560955 0.453191 0.262729 -0.196959
N24   N     N_R   0.889926 0.421199 0.263018 -0.189362
C49   C     C_R   0.028910 0.488546 0.786529 0.364102
C50   C     C_R   0.533521 0.549421 0.788791 0.367189
C51   C     C_R   0.433578 0.954561 0.785753 0.364273
C52   C     C_R   0.477763 0.022854 0.287795 0.364163
C53   C     C_R   0.554075 0.518904 0.286324 0.366913
C54   C     C_R   0.967745 0.444529 0.286722 0.365722
C55   C     C_R   0.009296 0.479647 0.708447 0.349047
C56   C     C_R   0.546961 0.535819 0.711087 0.344098
C57   C     C_R   0.448440 0.982401 0.707958 0.348776
C58   C     C_R   0.466382 0.999796 0.209872 0.342097
C59   C     C_R   0.544080 0.531000 0.208253 0.341094
C60   C     C_R   0.989983 0.457580 0.208718 0.348962
C61   C     C_R   0.995314 0.421238 0.855532 0.094680
C62   C     C_R   0.585699 0.566724 0.859485 0.088407
C63   C     C_R   0.412595 0.994793 0.855749 0.099556
C64   C     C_R   0.416697 0.989432 0.357623 0.091381
C65   C     C_R   0.581812 0.581914 0.356007 0.095046
C66   C     C_R   0.006839 0.424745 0.356701 0.093716
C67   C     C_R   0.013734 0.439782 0.896019 -0.016288
C68   C     C_R   0.560438 0.565172 0.899276 -0.017873
C69   C     C_R   0.422842 0.982946 0.896096 -0.000455
C70   C     C_R   0.438794 0.009333 0.397845 -0.010117
C71   C     C_R   0.574840 0.560565 0.396435 -0.010538
C72   C     C_R   0.988413 0.428722 0.396960 -0.007304
C73   C     C_R   0.104598 0.616800 0.882533 0.038188
C74   C     C_R   0.389207 0.503736 0.879981 0.040986
C75   C     C_R   0.499503 0.884324 0.880565 0.029396
C76   C     C_R   0.613833 0.106764 0.381806 0.034567
C77   C     C_R   0.494035 0.384710 0.381281 0.036346
C78   C     C_R   0.884477 0.499011 0.380338 0.036167
C79   C     C_R   0.087045 0.596839 0.843139 -0.114357
C80   C     C_R   0.416214 0.509521 0.841325 -0.112201
C81   C     C_R   0.488689 0.896563 0.841267 -0.121452
C82   C     C_R   0.590563 0.087066 0.342749 -0.118112
C83   C     C_R   0.500045 0.406970 0.341967 -0.117166
C84   C     C_R   0.900783 0.491304 0.341220 -0.115657
C85   C     C_R   0.037707 0.500704 0.829094 0.005658
C86   C     C_R   0.513524 0.544370 0.830648 0.005226
C87   C     C_R   0.441504 0.946729 0.828317 -0.000750
C88   C     C_R   0.493407 0.033693 0.330118 0.001418
C89   C     C_R   0.547751 0.503998 0.328819 0.005725
C90   C     C_R   0.957310 0.450691 0.328977 0.004179
C91   C     C_R   0.077776 0.538048 0.908903 0.017533
C92   C     C_R   0.462760 0.541081 0.909066 0.017289
C93   C     C_R   0.456682 0.918314 0.908208 0.015401
C94   C     C_R   0.537196 0.076933 0.409328 0.015955
C95   C     C_R   0.541005 0.462057 0.408647 0.018625
C96   C     C_R   0.919312 0.457693 0.408366 0.018109
H1    H     H_    0.111734 0.657745 0.822978 0.175781
H2    H     H_    0.359829 0.484627 0.819067 0.174305
H3    H     H_    0.519244 0.867469 0.820393 0.182499
H4    H     H_    0.649701 0.113609 0.321711 0.176187
H5    H     H_    0.466562 0.347149 0.321164 0.175704
H6    H     H_    0.870232 0.519336 0.319830 0.177814
C97   C     C_2   0.006875 0.357775 0.573566 0.603348
O27   O     O_2   0.980579 0.271367 0.579596 -0.478403
O28   O     O_R   0.054872 0.402402 0.539012 -0.717176
H7    H     H_    0.065160 0.356053 0.521725 0.338355
C98   C     C_2   0.613909 0.640559 0.570509 0.583716
O29   O     O_2   0.693257 0.716404 0.572248 -0.515940
O30   O     O_R   0.553597 0.622062 0.538077 -0.701706
H8    H     H_    0.582683 0.678102 0.518728 0.337216
C99   C     C_2   0.392658 0.940843 0.563335 0.564086
O31   O     O_2   0.428924 0.912303 0.538829 -0.541779
O32   O     O_R   0.298191 0.926372 0.558000 -0.683265
H9    H     H_    0.266634 0.889884 0.533046 0.344413
C100  C     C_2   0.369144 0.016047 0.071977 0.590943
O33   O     O_2   0.288808 0.008359 0.077469 -0.531917
O34   O     O_R   0.417584 0.053550 0.036763 -0.703897
H10   H     H_    0.378958 0.072464 0.018616 0.336752
C101  C     C_2   0.643283 0.616823 0.068455 0.582363
O35   O     O_2   0.628316 0.572317 0.037784 -0.537254
O36   O     O_R   0.729723 0.706780 0.073557 -0.708351
H11   H     H_    0.774192 0.726610 0.050011 0.355795
C102  C     C_2   0.971903 0.359776 0.068491 0.585760
O37   O     O_2   0.940589 0.374316 0.038210 -0.535465
O38   O     O_R   0.977350 0.274167 0.073056 -0.692827
H12   H     H_    0.952166 0.229576 0.049491 0.356363
C103  C     C_2   0.891304 0.598086 0.598845 0.626841
O39   O     O_2   0.929136 0.650422 0.570506 -0.462264
O40   O     O_R   0.814206 0.599981 0.618222 -0.671824
H13   H     H_    0.797750 0.649108 0.606496 0.367578
C104  C     C_2   0.423357 0.286894 0.605490 0.627385
O41   O     O_2   0.360119 0.268664 0.580996 -0.484962
O42   O     O_R   0.433894 0.210832 0.621371 -0.630448
H14   H     H_    0.383975 0.143976 0.610737 0.351723
C105  C     C_2   0.681492 0.239481 0.619516 0.633675
O43   O     O_2   0.765000 0.257038 0.626495 -0.490402
O44   O     O_R   0.663466 0.314740 0.608578 -0.655441
H15   H     H_    0.724267 0.382051 0.609830 0.337869
C106  C     C_2   0.585721 0.875782 0.102800 0.632691
O45   O     O_2   0.643786 0.914176 0.076089 -0.472725
O46   O     O_R   0.578184 0.793626 0.121700 -0.665592
H16   H     H_    0.625264 0.773632 0.110723 0.358812
C107  C     C_2   0.288290 0.426255 0.106364 0.631561
O47   O     O_2   0.259982 0.365236 0.080275 -0.461229
O48   O     O_R   0.221110 0.441927 0.127157 -0.667537
H17   H     H_    0.151161 0.395907 0.118645 0.351571
C108  C     C_2   0.153384 0.713819 0.107981 0.610911
O49   O     O_2   0.238257 0.765252 0.118799 -0.479338
O50   O     O_R   0.108449 0.752879 0.084686 -0.674649
H18   H     H_    0.153645 0.824867 0.078600 0.366806
C109  C     C_3   0.961657 0.356779 0.925470 -0.269849
C110  C     C_3   0.881408 0.366368 0.946451 -0.381908
H19   H     H_    0.913747 0.436232 0.963143 0.186645
H20   H     H_    0.827491 0.364907 0.925190 0.181825
H21   H     H_    0.842181 0.303993 0.966882 0.186175
H22   H     H_    0.927356 0.283051 0.911882 0.180890
H23   H     H_    0.012672 0.354824 0.947031 0.183655
C111  C     C_3   0.635420 0.584836 0.931225 -0.259130
C112  C     C_3   0.616886 0.488283 0.949262 -0.383384
H24   H     H_    0.544060 0.450628 0.963741 0.175342
H25   H     H_    0.619153 0.439056 0.926619 0.185248
H26   H     H_    0.674508 0.503186 0.971193 0.188901
H27   H     H_    0.711873 0.625206 0.920331 0.180965
H28   H     H_    0.634172 0.633027 0.954340 0.193009
C113  C     C_3   0.402805 0.042181 0.926237 -0.267901
C114  C     C_3   0.499242 0.123550 0.943119 -0.408416
H29   H     H_    0.537489 0.091432 0.959431 0.180282
H30   H     H_    0.547808 0.171147 0.919512 0.188886
H31   H     H_    0.484399 0.169881 0.963214 0.160330
H32   H     H_    0.362105 0.076711 0.914073 0.181918
H33   H     H_    0.355353 0.995648 0.950054 0.176857
C115  C     C_3   0.359466 0.954733 0.428366 -0.263817
C116  C     C_3   0.360844 0.862820 0.441838 -0.396017
H34   H     H_    0.348452 0.812849 0.416987 0.195192
H35   H     H_    0.432702 0.883513 0.455476 0.187656
H36   H     H_    0.301914 0.822933 0.463570 0.163615
H37   H     H_    0.368162 0.999946 0.454236 0.180763
H38   H     H_    0.285356 0.933680 0.417168 0.181778
C117  C     C_3   0.598886 0.641355 0.426262 -0.266548
C118  C     C_3   0.508747 0.651632 0.434003 -0.404444
H39   H     H_    0.479328 0.664338 0.406685 0.210445
H40   H     H_    0.450288 0.583738 0.447960 0.170231
H41   H     H_    0.528791 0.714763 0.453782 0.155317
H42   H     H_    0.622563 0.626867 0.454484 0.176707
H43   H     H_    0.661142 0.712733 0.416532 0.182481
C119  C     C_3   0.044177 0.405974 0.427755 -0.267762
C120  C     C_3   0.119206 0.500129 0.448270 -0.400640
H44   H     H_    0.169943 0.554463 0.426768 0.184419
H45   H     H_    0.081587 0.532706 0.464684 0.176937
H46   H     H_    0.163165 0.483441 0.468919 0.171520
H47   H     H_    0.994349 0.352574 0.449465 0.175867
H48   H     H_    0.083525 0.370181 0.415490 0.183697
C121  C     C_3   0.071976 0.375075 0.655477 -0.251699
C122  C     C_3   0.179504 0.433913 0.643099 -0.408909
H49   H     H_    0.186158 0.437650 0.611008 0.180285
H50   H     H_    0.213869 0.509795 0.654982 0.162473
H51   H     H_    0.220025 0.398095 0.654498 0.191879
H52   H     H_    0.070473 0.368443 0.687531 0.172665
H53   H     H_    0.038673 0.298230 0.645111 0.214895
C123  C     C_3   0.628081 0.697714 0.654275 -0.240290
C124  C     C_3   0.557763 0.736508 0.646828 -0.403991
H54   H     H_    0.542336 0.735982 0.615373 0.178706
H55   H     H_    0.487551 0.690370 0.662384 0.170622
H56   H     H_    0.590835 0.813242 0.657629 0.173931
H57   H     H_    0.647419 0.707561 0.685535 0.174054
H58   H     H_    0.699336 0.744780 0.639785 0.207836
C125  C     C_3   0.324727 0.861782 0.642426 -0.243538
C126  C     C_3   0.337307 0.772568 0.635987 -0.415933
H59   H     H_    0.363202 0.772188 0.606063 0.179412
H60   H     H_    0.391097 0.773562 0.657111 0.171996
H61   H     H_    0.265841 0.704134 0.640387 0.157770
H62   H     H_    0.295803 0.857524 0.672144 0.178270
H63   H     H_    0.266053 0.857012 0.623173 0.216096
C127  C     C_3   0.367424 0.064539 0.155858 -0.252911
C128  C     C_3   0.262768 0.993679 0.169393 -0.348121
H64   H     H_    0.219116 0.941704 0.145883 0.217494
H65   H     H_    0.263545 0.950794 0.194848 0.195865
H66   H     H_    0.226480 0.035979 0.177980 0.167018
H67   H     H_    0.409035 0.114622 0.180167 0.167718
H68   H     H_    0.366752 0.114483 0.133279 0.195100
C129  C     C_3   0.700738 0.605469 0.150062 -0.252833
C130  C     C_3   0.751180 0.709418 0.166939 -0.363339
H69   H     H_    0.752750 0.762680 0.145448 0.212506
H70   H     H_    0.712813 0.712659 0.193403 0.182965
H71   H     H_    0.828008 0.731704 0.174892 0.169927
H72   H     H_    0.703721 0.554715 0.171752 0.171815
H73   H     H_    0.744093 0.602816 0.125203 0.191886
C131  C     C_3   0.899455 0.302133 0.149224 -0.254676
C132  C     C_3   0.950362 0.249806 0.166751 -0.364178
H74   H     H_    0.004580 0.249951 0.146143 0.212375
H75   H     H_    0.988656 0.285819 0.194134 0.177504
H76   H     H_    0.894740 0.172325 0.173303 0.190053
H77   H     H_    0.844438 0.299447 0.170060 0.175220
H78   H     H_    0.855135 0.259609 0.123837 0.192508
C133  C     C_2   0.951616 0.613718 0.678778 0.628100
O51   O     O_2   0.992509 0.700750 0.669947 -0.477495
O52   O     O_R   0.898765 0.581821 0.713447 -0.630246
H79   H     H_    0.900002 0.637585 0.728765 0.353953
C134  C     C_2   0.434965 0.336821 0.687072 0.619614
O53   O     O_2   0.460676 0.277154 0.695056 -0.401136
O54   O     O_R   0.356077 0.334866 0.706552 -0.689106
H80   H     H_    0.325342 0.279850 0.726324 0.357274
C135  C     C_2   0.636660 0.150876 0.695711 0.636742
O55   O     O_2   0.666183 0.238208 0.701350 -0.406129
O56   O     O_R   0.662497 0.098583 0.721398 -0.669871
H81   H     H_    0.706058 0.141116 0.743350 0.364016
C136  C     C_2   0.595729 0.933469 0.182647 0.621663
O57   O     O_2   0.683464 0.972643 0.175406 -0.504648
O58   O     O_R   0.558542 0.877767 0.216444 -0.624578
H82   H     H_    0.611412 0.875661 0.232596 0.355346
C137  C     C_2   0.342977 0.415548 0.184947 0.624984
O59   O     O_2   0.288410 0.327695 0.179099 -0.493383
O60   O     O_R   0.332325 0.459277 0.218543 -0.624243
H83   H     H_    0.277340 0.410596 0.235841 0.355406
C138  C     C_2   0.086561 0.659792 0.187163 0.602595
O61   O     O_2   0.171204 0.724784 0.193014 -0.445247
O62   O     O_R   0.010234 0.656076 0.209264 -0.682410
H84   H     H_    0.034305 0.711399 0.228947 0.347572
C139  C     C_2   0.936147 0.319573 0.840596 0.584442
O63   O     O_2   0.848225 0.271919 0.847580 -0.496764
O64   O     O_R   0.980946 0.279399 0.817837 -0.660754
H85   H     H_    0.932991 0.209980 0.808959 0.354391
C140  C     C_2   0.687134 0.594950 0.847675 0.589545
O65   O     O_2   0.724302 0.547078 0.858950 -0.500430
O66   O     O_R   0.739147 0.675116 0.822922 -0.658809
H86   H     H_    0.806992 0.686493 0.816539 0.354493
C141  C     C_2   0.367633 0.052988 0.842410 0.593635
O67   O     O_2   0.411946 0.142366 0.846371 -0.491959
O68   O     O_R   0.275274 0.005322 0.824680 -0.646978
H87   H     H_    0.252477 0.052706 0.816489 0.355099
C142  C     C_2   0.313890 0.928180 0.344089 0.593550
O69   O     O_2   0.265814 0.841898 0.353749 -0.504276
O70   O     O_R   0.272862 0.969245 0.319667 -0.658890
H88   H     H_    0.202761 0.920242 0.312008 0.351680
C143  C     C_2   0.632750 0.685135 0.342090 0.593198
O71   O     O_2   0.600937 0.739823 0.350181 -0.507700
O72   O     O_R   0.716655 0.718996 0.319053 -0.659522
H89   H     H_    0.744564 0.790107 0.310952 0.350599
C144  C     C_2   0.074016 0.390209 0.343287 0.587237
O73   O     O_2   0.161246 0.436602 0.351697 -0.499944
O74   O     O_R   0.037635 0.305952 0.320161 -0.661749
H90   H     H_    0.090570 0.290392 0.312364 0.351216
C145  C     C_2   0.151919 0.721440 0.894470 0.606757
O75   O     O_2   0.221750 0.783994 0.876100 -0.507698
O76   O     O_R   0.113190 0.749196 0.925307 -0.661994
H91   H     H_    0.150966 0.822713 0.930236 0.341820
C146  C     C_2   0.283019 0.458274 0.888352 0.601763
O77   O     O_2   0.232621 0.483271 0.869907 -0.514638
O78   O     O_R   0.239480 0.382060 0.915426 -0.658273
H92   H     H_    0.165722 0.353061 0.917047 0.342322
C147  C     C_2   0.556179 0.835435 0.891218 0.604838
O79   O     O_2   0.544182 0.763202 0.873114 -0.514768
O80   O     O_R   0.627368 0.875330 0.920450 -0.657951
H93   H     H_    0.662468 0.836606 0.924472 0.344276
C148  C     C_2   0.719539 0.159800 0.392171 0.605491
O81   O     O_2   0.777308 0.231847 0.373451 -0.513105
O82   O     O_R   0.753890 0.123953 0.421829 -0.658484
H94   H     H_    0.827626 0.165040 0.425512 0.342412
C149  C     C_2   0.438575 0.279286 0.392154 0.603490
O83   O     O_2   0.450048 0.219121 0.373764 -0.509513
O84   O     O_R   0.369223 0.248027 0.422001 -0.658549
H95   H     H_    0.334882 0.174278 0.426164 0.343697
C150  C     C_2   0.830081 0.550524 0.390269 0.604161
O85   O     O_2   0.756450 0.532999 0.371936 -0.515123
O86   O     O_R   0.866600 0.623683 0.418821 -0.654329
H96   H     H_    0.824890 0.655867 0.421989 0.345252

loop_
_geom_bond_atom_site_label_1
_geom_bond_atom_site_label_2
_geom_bond_distance
_ccdc_geom_bond_type
N21   C51   1.360619 A    
O84   H95   1.014025 S    
C123  H58   1.106537 S    
C63   C87   1.418473 A    
C133  O51   1.223015 D    
C77   C95   1.417753 A    
C35   C41   1.409831 A    
O74   H90   1.013798 S    
C136  O58   1.397832 S    
O72   H89   1.013800 S    
C2    C15   1.470986 S    
C100  O34   1.397550 S    
C135  O56   1.398263 S    
C131  C132  1.528395 S    
C98   O30   1.397811 S    
N16   N22   1.328288 A    
C74   C146  1.479774 S    
O22   Cr4   1.956472 S    
C122  H50   1.111096 S    
C128  H64   1.109664 S    
N6    C54   1.355537 A    
C72   C119  1.527292 S    
O10   Cr4   1.967170 S    
C147  O79   1.223060 D    
O12   Cr6   1.966751 S    
O13   Cr1   2.083147 S    
C10   C92   1.482617 S    
C22   C28   1.419469 A    
C46   C106  1.482409 S    
C36   C60   1.468379 S    
C64   C88   1.414521 A    
C97   O28   1.397132 S    
N17   C59   1.353590 A    
O3    C1    1.249199 A    
C25   C121  1.528131 S    
C41   C137  1.490524 S    
C122  H51   1.110684 S    
C131  H78   1.108784 S    
C107  O47   1.223086 D    
N16   C58   1.352711 A    
O8    Cr2   1.969800 S    
C33   C57   1.467390 S    
O13   C8    1.253278 A    
C115  C116  1.526341 S    
N9    C57   1.355832 A    
O28   H7    1.013769 S    
C141  O67   1.222940 D    
C101  O36   1.397629 S    
C26   C123  1.526168 S    
C144  O74   1.397722 S    
O20   Cr2   1.953399 S    
O5    C6    1.249087 A    
C29   C129  1.524844 S    
O56   H81   1.014010 S    
O18   C10   1.251147 A    
C112  H24   1.110929 S    
C116  H34   1.110283 S    
C127  H68   1.108522 S    
C108  O50   1.396790 S    
C136  O57   1.223064 D    
N12   C60   1.357022 A    
C62   C68   1.424563 A    
N17   N23   1.329585 A    
C48   C108  1.479092 S    
C69   C93   1.423301 A    
O36   H11   1.013786 S    
O14   C9    1.251520 A    
C77   C83   1.390487 A    
C75   C93   1.415908 A    
C51   C87   1.481972 S    
C52   C88   1.474057 S    
C65   C143  1.483902 S    
O23   C11   1.252380 A    
C71   C117  1.525231 S    
C53   C89   1.478402 S    
C14   C44   1.416312 A    
C16   C46   1.418356 A    
C113  H33   1.104937 S    
N20   C50   1.358010 A    
O17   Cr5   2.086220 S    
O24   C12   1.253173 A    
O9    C3    1.253691 A    
Cr2   O25   1.963504 S    
C132  H75   1.109154 S    
C101  O35   1.222547 D    
C111  H28   1.105122 S    
N24   C54   1.359130 A    
N10   C58   1.356425 A    
C121  H52   1.108483 S    
C66   C90   1.414196 A    
C119  H48   1.106599 S    
C73   C91   1.418690 A    
O6    C4    1.250113 A    
C106  O45   1.223122 D    
O54   H80   1.013766 S    
C77   C149  1.482922 S    
O7    C1    1.249343 A    
C8    C94   1.484137 S    
C83   H5    1.085013 S    
O17   C12   1.251990 A    
O6    Cr6   2.072144 S    
C150  O85   1.222425 D    
O10   C4    1.251444 A    
C124  H55   1.110375 S    
C66   C144  1.481753 S    
O19   C7    1.253050 A    
C129  H72   1.110527 S    
C140  O66   1.397881 S    
O20   C8    1.252360 A    
O80   H93   1.014011 S    
C35   C59   1.466462 S    
C117  H42   1.104394 S    
C148  O81   1.222933 D    
O9    Cr3   1.967164 S    
O40   H13   1.012106 S    
C99   O32   1.397401 S    
O21   C9    1.252959 A    
O15   C7    1.253573 A    
C121  C122  1.527751 S    
C113  C114  1.526588 S    
C133  O52   1.398169 S    
C116  H36   1.110499 S    
C43   C103  1.484285 S    
N8    C56   1.357076 A    
C24   C30   1.419504 A    
C118  H39   1.109415 S    
C81   H3    1.084528 S    
C124  H54   1.109382 S    
C15   C45   1.411206 A    
C17   C23   1.422128 A    
C117  H43   1.109528 S    
C28   C34   1.413264 A    
C71   C95   1.424994 A    
C73   C79   1.388807 A    
C72   C96   1.426739 A    
C19   C25   1.418095 A    
C126  H59   1.109988 S    
C36   C42   1.410458 A    
O34   H10   1.013496 S    
C129  C130  1.528053 S    
C144  O73   1.222954 D    
O42   H14   1.013706 S    
C40   C46   1.408111 A    
N1    C49   1.356600 A    
C13   C19   1.422485 A    
C14   C20   1.417401 A    
C42   C138  1.492117 S    
C39   C45   1.403870 A    
C22   C100  1.490758 S    
C75   C147  1.483320 S    
C112  H26   1.110221 S    
C32   C38   1.411397 A    
C142  O70   1.397902 S    
C114  H31   1.110070 S    
N5    N11   1.330286 A    
N6    N12   1.329615 A    
C13   C43   1.420266 A    
C141  O68   1.397470 S    
O52   H79   1.013811 S    
C7    C95   1.487047 S    
O2    Cr2   2.071615 S    
N14   N20   1.328627 A    
C120  H46   1.110036 S    
C29   C35   1.413817 A    
C114  H30   1.111138 S    
C115  H37   1.104111 S    
C149  O84   1.398273 S    
O44   H15   1.011254 S    
C63   C141  1.479928 S    
C146  O78   1.397947 S    
C4    C17   1.493336 S    
C27   C33   1.417683 A    
C61   C139  1.480542 S    
C105  O43   1.222556 D    
C149  O83   1.223131 D    
O23   Cr5   1.953167 S    
C127  H67   1.109824 S    
C69   C113  1.528029 S    
C76   C148  1.482482 S    
C24   C102  1.487008 S    
C118  H41   1.110287 S    
N3    N9    1.327827 A    
C124  H56   1.110525 S    
C138  O62   1.398202 S    
C82   C88   1.394028 A    
C15   C21   1.413572 A    
C70   C94   1.425960 A    
C126  H61   1.110753 S    
C38   C44   1.406144 A    
N2    C50   1.356018 A    
N14   C56   1.353684 A    
C65   C89   1.415507 A    
C18   C24   1.420506 A    
O46   H16   1.010890 S    
C16   C22   1.421743 A    
Cr4   O26   1.962995 S    
C64   C142  1.482852 S    
C130  H69   1.108162 S    
O1    C2    1.240304 A    
C54   C90   1.473730 S    
N15   N21   1.330102 A    
C106  O46   1.396345 S    
C39   C135  1.494218 S    
C128  H66   1.110226 S    
O18   Cr6   2.084017 S    
C146  O77   1.222773 D    
O82   H94   1.013975 S    
C125  C126  1.525260 S    
O38   H12   1.013781 S    
C68   C92   1.426693 A    
Cr6   O26   1.965608 S    
C65   C71   1.424271 A    
C38   C134  1.486379 S    
C30   C131  1.524769 S    
C64   C70   1.424303 A    
C76   C82   1.387675 A    
C120  H44   1.111133 S    
O70   H88   1.013809 S    
C80   C86   1.392743 A    
C44   C104  1.486654 S    
C23   C101  1.489299 S    
C110  H19   1.110735 S    
C130  H71   1.110384 S    
O8    C2    1.249280 A    
C117  C118  1.527773 S    
C50   C86   1.470035 S    
C76   C94   1.417384 A    
C23   C29   1.420200 A    
C19   C97   1.486484 S    
N13   N19   1.329157 A    
O22   C10   1.253442 A    
C139  O63   1.222900 D    
C30   C36   1.414954 A    
C123  H57   1.108302 S    
C34   C58   1.463870 S    
C20   C98   1.490456 S    
C27   C125  1.525034 S    
C125  H62   1.109155 S    
C70   C115  1.526853 S    
C79   C85   1.393645 A    
C109  C110  1.525853 S    
C134  O54   1.397532 S    
C84   C90   1.393091 A    
C134  O53   1.222557 D    
C122  H49   1.109504 S    
O60   H83   1.013839 S    
C113  H32   1.106764 S    
C137  O59   1.222999 D    
O7    Cr1   1.966371 S    
Cr1   O25   1.965641 S    
C61   C85   1.414848 A    
C135  O55   1.223343 D    
C105  O44   1.397455 S    
C132  H74   1.109033 S    
C75   C81   1.389717 A    
C5    C18   1.490250 S    
C80   H2    1.085577 S    
C145  O75   1.222663 D    
C78   C96   1.416796 A    
C119  C120  1.526628 S    
O2    C3    1.249319 A    
C37   C133  1.490452 S    
C37   C43   1.409368 A    
N13   C55   1.352963 A    
O4    C5    1.248286 A    
C63   C69   1.422133 A    
C131  H77   1.109089 S    
Cr5   O26   1.963636 S    
C99   O31   1.222521 D    
O11   C5    1.249580 A    
C148  O82   1.398312 S    
C102  O37   1.222351 D    
C62   C140  1.483238 S    
C21   C99   1.483958 S    
C31   C55   1.462538 S    
O66   H86   1.013846 S    
N23   C53   1.359276 A    
C103  O40   1.397574 S    
C104  O41   1.223034 D    
C116  H35   1.110947 S    
C143  O71   1.222281 D    
C78   C150  1.481071 S    
C78   C84   1.388656 A    
O62   H84   1.013834 S    
N4    C52   1.356776 A    
N11   C59   1.356333 A    
C110  H21   1.110360 S    
C118  H40   1.111077 S    
C25   C31   1.412684 A    
C66   C72   1.424997 A    
O68   H87   1.013766 S    
C140  O65   1.222919 D    
C126  H60   1.109142 S    
O58   H82   1.013843 S    
C107  O48   1.396459 S    
C33   C39   1.414193 A    
C127  C128  1.528054 S    
O24   Cr6   1.954091 S    
O3    Cr3   2.073875 S    
C100  O33   1.222049 D    
O30   H8    1.013271 S    
C73   C145  1.482777 S    
O32   H9    1.013900 S    
C98   O29   1.221813 D    
C103  O39   1.223035 D    
C41   C47   1.408021 A    
C68   C111  1.526217 S    
O50   H18   1.012007 S    
N4    N10   1.330586 A    
O16   C11   1.253766 A    
C132  H76   1.110395 S    
C111  H27   1.107703 S    
C112  H25   1.110927 S    
C49   C85   1.476178 S    
C12   C93   1.483330 S    
N1    N7    1.330104 A    
N2    N8    1.330160 A    
C109  H23   1.104111 S    
O19   Cr1   1.954331 S    
C97   O27   1.222399 D    
O21   Cr3   1.955997 S    
C120  H45   1.110744 S    
C18   C48   1.416665 A    
N22   C52   1.358508 A    
C20   C26   1.419988 A    
C115  H38   1.108758 S    
C84   H6    1.085392 S    
C81   C87   1.397369 A    
C28   C127  1.524756 S    
C3    C13   1.496771 S    
O64   H85   1.013781 S    
N19   C49   1.359340 A    
C139  O64   1.397549 S    
C74   C92   1.415677 A    
O4    Cr4   2.074954 S    
C111  C112  1.525980 S    
C31   C37   1.409824 A    
Cr3   O25   1.963098 S    
C1    C14   1.487174 S    
C138  O61   1.222559 D    
C21   C27   1.418343 A    
C137  O60   1.397729 S    
C147  O80   1.398356 S    
C40   C136  1.490852 S    
O14   Cr2   2.087076 S    
N18   C60   1.353866 A    
O15   Cr3   2.084096 S    
C125  H63   1.107172 S    
C32   C56   1.467739 S    
O16   Cr4   2.084084 S    
C123  C124  1.526649 S    
C45   C105  1.480978 S    
C67   C109  1.528035 S    
C150  O86   1.398261 S    
C11   C91   1.488304 S    
C143  O72   1.397965 S    
C6    C16   1.493531 S    
C145  O76   1.398380 S    
C67   C91   1.427178 A    
N3    C51   1.354921 A    
C26   C32   1.416951 A    
C109  H22   1.106740 S    
C130  H70   1.108818 S    
N5    C53   1.356746 A    
C82   H4    1.085336 S    
C128  H65   1.109602 S    
O5    Cr5   2.071109 S    
C83   C89   1.395627 A    
N7    C55   1.355837 A    
C74   C80   1.387460 A    
C62   C86   1.413020 A    
C9    C96   1.485587 S    
C121  H53   1.106820 S    
O86   H96   1.013986 S    
C119  H47   1.105233 S    
C79   H1    1.085258 S    
C61   C67   1.424356 A    
C47   C107  1.483248 S    
C42   C48   1.406705 A    
C142  O69   1.222611 D    
N15   C57   1.353584 A    
N18   N24   1.329664 A    
O11   Cr5   1.969416 S    
C129  H73   1.108795 S    
C114  H29   1.110834 S    
C104  O42   1.396651 S    
C34   C40   1.409785 A    
O48   H17   1.011078 S    
C110  H20   1.111102 S    
O12   C6    1.253286 A    
O76   H91   1.014027 S    
C108  O49   1.221884 D    
O78   H92   1.013612 S    
C17   C47   1.418597 A    
O1    Cr1   2.072720 S    
C102  O38   1.397640 S    
