data_mof_unit_55163.cif
_audit_creation_date              2012-12-10T17:36:49-0500
_audit_creation_method            fapswitch 2.2
_symmetry_space_group_name_H-M    P1
_symmetry_Int_Tables_number       1
_space_group_crystal_system       triclinic
_cell_length_a                    10.630954
_cell_length_b                    12.345554
_cell_length_c                    13.153811
_cell_angle_alpha                 116.835912
_cell_angle_beta                  77.267857
_cell_angle_gamma                 101.217343
_cell_volume                      1493.58462311

loop_
_atom_site_label
_atom_site_type_symbol
_atom_type_description
_atom_site_fract_x
_atom_site_fract_y
_atom_site_fract_z
_atom_type_partial_charge
C1    C     C_R   0.523134 0.854413 0.285863 0.815741
C2    C     C_3   0.012246 0.914144 0.528382 0.421973
C3    C     C_3   0.954263 0.888499 0.421631 -0.191513
C4    C     C_3   0.876543 0.998154 0.498165 -0.113459
C5    C     C_R   0.298285 0.293022 0.007903 -0.160613
C6    C     C_R   0.458450 0.227440 0.836268 -0.143124
C7    C     C_R   0.685784 0.788393 0.104049 0.337338
C8    C     C_R   0.756812 0.688592 0.032783 0.349936
C9    C     C_R   0.698128 0.569701 0.011202 0.310151
C10   C     C_R   0.561495 0.549324 0.039329 -0.051368
C11   C     C_R   0.495491 0.648653 0.124658 -0.037764
C12   C     C_R   0.740216 0.998827 0.498656 0.832968
C13   C     C_R   0.489944 0.432635 0.990070 0.076817
C14   C     C_R   0.365196 0.410374 0.047606 0.083622
C15   C     C_R   0.305418 0.507132 0.139671 -0.176855
C16   C     C_R   0.366281 0.625675 0.172614 -0.089481
C17   C     C_R   0.533368 0.341905 0.880098 0.351030
C18   C     C_R   0.346239 0.201279 0.903898 -0.159118
C19   C     C_R   0.561628 0.768262 0.164392 -0.296877
C20   C     C_R   0.730064 0.358050 0.350021 0.352716
C21   C     C_R   0.327305 0.762658 0.649640 0.620258
C22   C     C_R   0.302479 0.674206 0.692627 -0.425245
C23   C     C_R   0.481937 0.145031 0.713632 0.827680
C24   C     C_R   0.375755 0.574731 0.643923 0.432454
C25   C     C_R   0.467565 0.557248 0.543011 -0.026941
C26   C     C_R   0.496367 0.654344 0.507614 0.097849
C27   C     C_R   0.538125 0.451524 0.480556 -0.108528
C28   C     C_R   0.649540 0.454134 0.398233 -0.017794
C29   C     C_R   0.675341 0.549451 0.363311 0.343998
C30   C     C_R   0.599966 0.647122 0.418627 -0.238456
C31   C     C_R   0.500117 0.340550 0.492979 0.110405
C32   C     C_R   0.689283 0.255564 0.371503 0.096629
C33   C     C_R   0.259654 0.000400 0.500274 0.867282
C34   C     C_3   0.985179 0.086274 0.468517 -0.119537
C35   C     C_3   0.065844 0.976958 0.392854 -0.249243
C36   C     C_3   0.122822 0.000300 0.499815 -0.146599
C37   C     C_3   0.042657 0.107489 0.574511 0.426583
C38   C     C_3   0.931924 0.021520 0.605758 -0.288036
Cu1   Cu    Cu3+1 0.529830 0.098270 0.475420 1.040971
Cu2   Cu    Cu3+1 0.470170 0.901730 0.524580 1.002259
H1    H     H_    0.122664 0.959325 0.306315 0.189844
H2    H     H_    0.311787 0.699255 0.237114 0.149680
H3    H     H_    0.751884 0.184559 0.337968 0.214337
H4    H     H_    0.409882 0.325577 0.543347 0.240874
H5    H     H_    0.971717 0.158127 0.444314 0.192583
H6    H     H_    0.229670 0.685895 0.767748 0.161606
H7    H     H_    0.627951 0.717645 0.390544 0.194440
H8    H     H_    0.875560 0.038749 0.692391 0.185029
H9    H     H_    0.915022 0.797919 0.360016 0.159499
H10   H     H_    0.288208 0.113673 0.870748 0.198008
H11   H     H_    0.207984 0.492190 0.181452 0.164072
H12   H     H_    0.204998 0.274125 0.053741 0.171691
N1    N     N_R   0.575030 0.246270 0.438190 -0.254485
N2    N     N_R   0.425760 0.754330 0.561190 -0.208578
O1    O     O_R   0.537510 0.972500 0.318130 -0.510015
O2    O     O_R   0.487140 0.806530 0.359650 -0.618314
O3    O     O_R   0.708330 0.082950 0.479220 -0.578063
O4    O     O_R   0.657960 0.916980 0.520740 -0.618114
O5    O     O_R   0.512860 0.193470 0.640350 -0.539091
O6    O     O_R   0.462490 0.027500 0.681870 -0.549691
O7    O     O_R   0.342040 0.083020 0.479260 -0.580077
O8    O     O_R   0.291670 0.917050 0.520780 -0.495792
O9    O     O_3   0.639448 0.371436 0.811337 -0.659211
H13   H     H_    0.684541 0.297431 0.762186 0.343419
S1    S     S_3+6 0.761979 0.936219 0.124204 0.043549
O10   O     O_2   0.663136 0.018592 0.144373 -0.286545
O11   O     O_2   0.833024 0.986081 0.225776 -0.336863
O12   O     O_3   0.869151 0.929726 0.006984 -0.460941
H14   H     H_    0.912840 0.013970 0.028623 0.374873
O13   O     O_3   0.777872 0.478764 0.974092 -0.682543
H15   H     H_    0.731108 0.414117 0.997766 0.356862
O14   O     O_3   0.886706 0.710429 0.993475 -0.643337
H16   H     H_    0.920434 0.632722 0.935797 0.366196
O15   O     O_3   0.769533 0.542473 0.269826 -0.705608
H17   H     H_    0.770252 0.612441 0.251850 0.313793
O16   O     O_3   0.851180 0.362899 0.286695 -0.677251
H18   H     H_    0.895167 0.446292 0.325469 0.358844
O17   O     O_3   0.258082 0.862525 0.699989 -0.662511
H19   H     H_    0.190304 0.855331 0.762529 0.321017
O18   O     O_3   0.367857 0.502807 0.701150 -0.681875
H20   H     H_    0.302095 0.530028 0.771531 0.358072
S2    S     S_3+6 0.098382 0.255571 0.674033 -0.002256
O19   O     O_2   0.202164 0.246785 0.730316 -0.302840
O20   O     O_2   0.151827 0.333254 0.610103 -0.306645
O21   O     O_3   0.973368 0.318106 0.775069 -0.503114
H21   H     H_    0.010344 0.400822 0.825064 0.392789
O22   O     O_3   0.028845 0.823899 0.559291 -0.673499
H22   H     H_    0.940650 0.782512 0.570510 0.328072

loop_
_geom_bond_atom_site_label_1
_geom_bond_atom_site_label_2
_ccdc_geom_bond_type
O22   H22   S    
Cu2   O6    S    
C34   C37   S    
C35   C36   S    
C3    H9    S    
C7    C8    A    
O21   H21   S    
C23   O5    A    
C11   C19   A    
C29   C30   A    
C28   C29   A    
C1    O2    A    
C33   O8    A    
C21   N2    A    
O18   H20   S    
C15   C16   A    
Cu1   O3    S    
C33   C36   S    
Cu2   O8    S    
C20   O16   S    
C34   C35   S    
C24   O18   S    
Cu1   O1    S    
C8    C9    A    
Cu2   O2    S    
C21   O17   S    
C5    H12   S    
O13   H15   S    
C15   H11   S    
C4    C12   S    
C9    C10   A    
C38   H8    S    
C12   O4    A    
C24   C25   A    
C13   C14   A    
C6    C18   A    
C26   N2    A    
C23   O6    A    
Cu1   O7    S    
C4    C34   S    
C8    O14   S    
Cu2   O4    S    
O15   H17   S    
C27   C31   A    
C30   H7    S    
O16   H18   S    
C31   H4    S    
Cu1   Cu2   S    
O17   H19   S    
O12   H14   S    
C29   O15   S    
C20   C28   A    
S1    O11   D    
C25   C26   A    
C1    C19   S    
Cu2   N2    S    
C37   C38   S    
C7    S1    S    
C11   C16   A    
C2    C38   S    
C9    O13   S    
C3    C35   S    
S1    O12   S    
Cu1   O5    S    
C2    O22   S    
C34   H5    S    
C31   N1    A    
C5    C14   A    
C12   O3    A    
C22   H6    S    
C4    C38   S    
C26   C30   A    
C7    C19   A    
C22   C24   A    
C37   S2    S    
C3    C4    S    
C16   H2    S    
C32   N1    A    
C18   H10   S    
C20   C32   A    
C2    C36   S    
C6    C17   A    
C36   C37   S    
O14   H16   S    
C10   C13   A    
C5    C18   A    
C25   C27   A    
S2    O21   S    
S2    O20   D    
C13   C17   A    
C2    C3    S    
C1    O1    A    
C17   O9    S    
Cu1   N1    S    
C6    C23   S    
C32   H3    S    
S1    O10   D    
C35   H1    S    
C10   C11   A    
O9    H13   S    
C33   O7    A    
S2    O19   D    
C27   C28   A    
C14   C15   A    
C21   C22   A    
