data_mof_unit_43654.cif
_audit_creation_date              2012-12-11T15:49:31-0500
_audit_creation_method            fapswitch 2.2
_symmetry_space_group_name_H-M    P1
_symmetry_Int_Tables_number       1
_space_group_crystal_system       triclinic
_cell_length_a                    8.241122
_cell_length_b                    19.000097
_cell_length_c                    27.028982
_cell_angle_alpha                 94.772985
_cell_angle_beta                  92.9027
_cell_angle_gamma                 85.514846
_cell_volume                      4200.51210453

loop_
_atom_site_label
_atom_site_type_symbol
_atom_type_description
_atom_site_fract_x
_atom_site_fract_y
_atom_site_fract_z
_atom_type_partial_charge
Ba1   Ba    Ba6+2 0.854000 0.466860 0.523710 1.638584
Ba2   Ba    Ba6+2 0.335820 0.533080 0.476290 1.632356
C1    C     C_3   0.706854 0.204013 0.657888 -0.365192
C2    C     C_3   0.666543 0.276465 0.638480 0.357610
C3    C     C_3   0.520321 0.632369 0.625813 0.294936
C4    C     C_3   0.524100 0.648711 0.681868 -0.356779
C5    C     C_3   0.064126 0.685806 0.338938 0.338251
C6    C     C_3   0.078691 0.706664 0.286341 -0.319126
C7    C     C_3   0.526498 0.724024 0.361771 0.364782
C8    C     C_3   0.486142 0.796572 0.342513 -0.366077
C9    C     C_R   0.006688 0.449045 0.180563 0.591180
C10   C     C_R   0.913382 0.571219 0.176985 0.573996
C11   C     C_2   0.759165 0.548670 0.272024 -0.089103
C12   C     C_3   0.128369 0.312636 0.659998 0.336295
C13   C     C_3   0.742246 0.571671 0.326342 -0.046333
C14   C     C_1   0.981747 0.490988 0.343486 0.035430
C15   C     C_2   0.021538 0.487953 0.295937 -0.108790
C16   C     C_2   0.902076 0.516009 0.256637 0.195789
C17   C     C_R   0.018684 0.505244 0.102457 -0.079432
C18   C     C_R   0.046865 0.445163 0.129867 -0.034227
C19   C     C_R   0.114111 0.382204 0.105971 -0.064983
C20   C     C_R   0.951176 0.568514 0.126390 -0.025012
C21   C     C_2   0.849935 0.527717 0.360384 -0.292820
C22   C     C_2   0.348798 0.479562 0.640933 -0.280640
C23   C     C_3   0.114677 0.290537 0.712301 -0.319582
C24   C     C_R   0.162892 0.434484 0.975996 0.020027
C25   C     C_R   0.067563 0.560480 0.972929 0.020372
C26   C     C_R   0.134214 0.495939 0.949076 0.049383
C27   C     C_R   0.228707 0.371614 0.950255 -0.102053
C28   C     C_R   0.265350 0.369247 0.900421 -0.060916
C29   C     C_R   0.238447 0.429328 0.873548 -0.024440
C30   C     C_R   0.172791 0.492799 0.897692 -0.079626
C31   C     C_R   0.146250 0.553116 0.870474 -0.035645
C32   C     C_R   0.186004 0.549270 0.819762 0.596650
C33   C     C_R   0.275820 0.426662 0.822894 0.574646
C34   C     C_3   0.180582 0.316961 0.419515 0.306188
C35   C     C_2   0.429838 0.449308 0.727583 -0.086044
C36   C     C_3   0.447657 0.429541 0.672843 -0.047574
C37   C     C_1   0.211042 0.511687 0.657099 0.029568
C38   C     C_2   0.169416 0.512340 0.704366 -0.103654
C39   C     C_2   0.287630 0.482328 0.743343 0.194611
C40   C     C_R   0.125096 0.437664 0.027333 0.020589
C41   C     C_R   0.057561 0.502103 0.051099 0.049050
C42   C     C_R   0.028265 0.563472 0.024116 0.020157
C43   C     C_R   0.152430 0.378425 0.056115 -0.099629
C44   C     C_R   0.922646 0.628366 0.099361 -0.061561
C45   C     C_3   0.157980 0.238103 0.410759 -0.385514
C46   C     C_R   0.042810 0.620062 0.944407 -0.099326
C47   C     C_R   0.081286 0.616338 0.894586 -0.060813
C48   C     C_R   0.959932 0.626042 0.049604 -0.101951
C49   C     C_R   0.400445 0.299091 0.523251 -0.291748
C50   C     C_R   0.537989 0.276453 0.496782 0.068591
C51   C     C_R   0.589289 0.204362 0.491470 -0.125953
C52   C     C_R   0.501134 0.154132 0.512021 -0.017671
C53   C     C_R   0.357927 0.177687 0.536998 -0.139032
C54   C     C_R   0.306484 0.250013 0.541526 0.010752
C55   C     C_R   0.547125 0.033845 0.544738 -0.076804
C56   C     C_3   0.007762 0.682086 0.579922 0.313627
C57   C     C_R   0.597962 0.961773 0.538768 -0.077253
C58   C     C_R   0.657164 0.931151 0.493310 0.060179
C59   C     C_R   0.666541 0.974757 0.454207 -0.077735
C60   C     C_R   0.615920 0.046970 0.460219 -0.076477
C61   C     C_R   0.555053 0.077352 0.505534 0.063481
C62   C     C_R   0.845880 0.827469 0.461317 -0.134045
C63   C     C_R   0.891270 0.754396 0.457263 0.015146
C64   C     C_R   0.658677 0.733140 0.503373 0.040182
C65   C     C_R   0.612323 0.805559 0.507791 -0.119026
C66   C     C_R   0.704671 0.853754 0.486588 -0.010689
C67   C     C_3   0.995617 0.761884 0.592183 -0.384828
C68   C     C_R   0.793286 0.707684 0.476401 -0.285336
C69   C     C_3   0.671889 0.380746 0.375341 0.313801
C70   C     C_3   0.683924 0.361542 0.319308 -0.204722
H1    H     H_    0.710412 0.274949 0.600158 0.075726
H2    H     H_    0.219548 0.215514 0.376801 0.108295
H3    H     H_    0.210635 0.209915 0.442750 0.069781
H4    H     H_    0.026081 0.229520 0.406183 0.131871
H5    H     H_    0.885897 0.664548 0.568925 0.000839
H6    H     H_    0.090296 0.669156 0.548789 0.071490
H7    H     H_    0.906897 0.776484 0.621587 0.130374
H8    H     H_    0.954863 0.789605 0.558838 0.064058
H9    H     H_    0.116737 0.779575 0.605445 0.126505
H10   H     H_    0.792202 0.396127 0.390467 -0.002652
H11   H     H_    0.580765 0.426301 0.381874 0.067224
H12   H     H_    0.839648 0.189360 0.656929 0.149511
H13   H     H_    0.766883 0.313001 0.312664 0.130490
H14   H     H_    0.740065 0.404919 0.303090 0.046582
H15   H     H_    0.531659 0.286462 0.637381 -0.063276
H16   H     H_    0.641793 0.163629 0.634214 0.067641
H17   H     H_    0.394289 0.621399 0.612966 0.018812
H18   H     H_    0.604128 0.584670 0.617373 0.070331
H19   H     H_    0.438286 0.695189 0.691743 0.134031
H20   H     H_    0.487692 0.602498 0.700093 0.074882
H21   H     H_    0.649164 0.660334 0.695710 0.132895
H22   H     H_    0.667876 0.204430 0.696652 0.120498
H23   H     H_    0.118182 0.337838 0.739037 0.124548
H24   H     H_    0.141281 0.635854 0.343320 0.092907
H25   H     H_    0.934885 0.677198 0.344191 -0.052209
H26   H     H_    0.196406 0.729776 0.282432 0.146921
H27   H     H_    0.073952 0.658948 0.260028 0.123104
H28   H     H_    0.977697 0.746135 0.276875 0.116653
H29   H     H_    0.661226 0.713633 0.362227 -0.067610
H30   H     H_    0.484695 0.725595 0.400326 0.076704
H31   H     H_    0.551066 0.836914 0.366287 0.066918
H32   H     H_    0.353286 0.811136 0.343378 0.150853
H33   H     H_    0.048180 0.361847 0.655950 0.090736
H34   H     H_    0.525262 0.796304 0.303775 0.118496
H35   H     H_    0.141381 0.465879 0.285366 0.120329
H36   H     H_    0.137839 0.335009 0.125884 0.117970
H37   H     H_    0.522054 0.428760 0.753812 0.118661
H38   H     H_    0.315469 0.319447 0.882894 0.121347
H39   H     H_    0.253638 0.322561 0.967356 0.067860
H40   H     H_    0.203929 0.327684 0.041429 0.067474
H41   H     H_    0.666270 0.567732 0.245442 0.117432
H42   H     H_    0.870591 0.677941 0.116692 0.121189
H43   H     H_    0.993978 0.671136 0.959323 0.068338
H44   H     H_    0.256770 0.323128 0.655113 -0.054062
H45   H     H_    0.059493 0.663799 0.874874 0.121898
H46   H     H_    0.049832 0.534663 0.715027 0.129831
H47   H     H_    0.932680 0.674804 0.032302 0.068119
H48   H     H_    0.835575 0.538995 0.400000 0.086330
H49   H     H_    0.380386 0.480197 0.602490 0.079112
H50   H     H_    0.506130 0.824134 0.528505 0.075709
H51   H     H_    0.592224 0.930076 0.570032 0.063799
H52   H     H_    0.503489 0.055772 0.580318 0.063373
H53   H     H_    0.696928 0.187632 0.470933 0.082886
H54   H     H_    0.709630 0.952695 0.418592 0.062523
H55   H     H_    0.997662 0.266738 0.715951 0.144765
H56   H     H_    0.621502 0.078767 0.429001 0.058612
H57   H     H_    0.923602 0.863568 0.446857 0.076854
H58   H     H_    0.283273 0.139963 0.550966 0.079281
H59   H     H_    0.829476 0.651554 0.473864 0.062868
H60   H     H_    0.359512 0.354731 0.526304 0.071475
H61   H     H_    0.216711 0.251340 0.721388 0.118141
H62   H     H_    0.311742 0.324778 0.424958 -0.007577
H63   H     H_    0.115752 0.337352 0.453403 0.072580
N1    N     N_R   0.941167 0.511841 0.203979 -0.421099
N2    N     N_R   0.249171 0.486246 0.796059 -0.421777
O1    O     O_2   0.913240 0.537010 0.617740 -0.457530
O2    O     O_3   0.630133 0.321788 0.398305 -0.646522
O3    O     O_3   0.079765 0.258175 0.625510 -0.602244
O4    O     O_2   0.276450 0.462960 0.382230 -0.469387
O5    O     O_3   0.044470 0.462980 0.442430 -0.490790
O6    O     O_3   0.519740 0.589470 0.411120 -0.473726
O7    O     O_3   0.119318 0.350108 0.377434 -0.633146
O8    O     O_3   0.632420 0.583650 0.524140 -0.475914
O9    O     O_3   0.111040 0.625070 0.435230 -0.490874
O10   O     O_2   0.228821 0.750103 0.464427 -0.483561
O11   O     O_3   0.116845 0.740080 0.372847 -0.602384
O12   O     O_3   0.145240 0.536960 0.557560 -0.491789
O13   O     O_3   0.557280 0.416300 0.475860 -0.485063
O14   O     O_2   0.376710 0.670070 0.522470 -0.457036
O15   O     O_3   0.569117 0.690851 0.603413 -0.641309
O16   O     O_2   0.411352 0.535853 0.322116 -0.510947
O17   O     O_3   0.447301 0.672441 0.331042 -0.592658
O18   O     O_2   0.027939 0.396095 0.203520 -0.607268
O19   O     O_2   0.331389 0.370690 0.802669 -0.620738
O20   O     O_2   0.856532 0.627085 0.197045 -0.620237
O21   O     O_2   0.166568 0.602484 0.797041 -0.597703
O22   O     O_3   0.669960 0.410470 0.588880 -0.480742
O23   O     O_2   0.777669 0.465525 0.677645 -0.495430
O24   O     O_3   0.067360 0.649769 0.622374 -0.625308
O25   O     O_3   0.743410 0.328381 0.669576 -0.597462
O26   O     O_2   0.812980 0.329910 0.477500 -0.460151
O27   O     O_3   0.078660 0.374870 0.564770 -0.493586
O28   O     O_2   0.969472 0.249040 0.533500 -0.484329
P1    P     P_3+3 0.082480 0.557670 0.610090 0.995365
P2    P     P_3+3 0.635220 0.340300 0.462910 0.982365
P3    P     P_3+3 0.108040 0.282523 0.565762 0.942190
P4    P     P_3+3 0.107220 0.442270 0.389900 0.984239
P5    P     P_3+3 0.087265 0.717617 0.432975 0.944560
P6    P     P_3+3 0.661269 0.411318 0.653218 0.947336
P7    P     P_3+3 0.561369 0.671587 0.538904 0.950151
P8    P     P_3+3 0.529152 0.589215 0.346843 0.940559
C71   C     C_3   0.518084 0.352605 0.291652 -0.189375
C72   C     C_3   0.450073 0.281699 0.298338 -0.351243
H64   H     H_    0.540150 0.237174 0.287632 0.120381
H65   H     H_    0.417780 0.278702 0.337307 0.162370
H66   H     H_    0.337697 0.276242 0.274311 0.132350
H67   H     H_    0.428171 0.396376 0.303706 0.151111
H68   H     H_    0.533839 0.355758 0.251308 0.119258

loop_
_geom_bond_atom_site_label_1
_geom_bond_atom_site_label_2
_ccdc_geom_bond_type
C25   C46   A    
O3    P3    S    
C38   H46   S    
C53   C54   A    
C65   H50   S    
Ba2   O13   S    
O16   P8    D    
C3    H17   S    
Ba1   O8    S    
C17   C18   A    
C70   H13   S    
C43   H40   S    
C5    C6    S    
C72   H65   S    
C2    H15   S    
C64   C68   A    
C51   C52   A    
Ba2   O8    S    
C5    H24   S    
C27   C28   A    
C3    O15   S    
O22   P6    S    
C11   C16   D    
C28   H38   S    
C62   C66   A    
Ba1   O22   S    
C64   P7    S    
C8    H31   S    
C6    H27   S    
C45   H4    S    
C49   C54   A    
C15   H35   S    
C50   P2    S    
C28   C29   A    
O15   P7    S    
C4    H20   S    
C55   C57   A    
C52   C61   S    
Ba1   P2    S    
C31   C47   A    
C4    H19   S    
C10   C20   A    
C22   C37   D    
C34   C45   S    
Ba1   Ba2   S    
C6    H26   S    
C71   C72   S    
C22   H49   S    
Ba1   O5    S    
C56   H5    S    
C52   C53   A    
C25   C42   A    
C12   H33   S    
C47   H45   S    
O25   P6    S    
C72   H64   S    
Ba1   O27   S    
C14   C15   D    
C22   C36   S    
Ba1   O12   S    
C59   H54   S    
C70   C71   S    
C10   O20   D    
C23   H61   S    
C7    C8    S    
C39   N2    S    
O24   P1    S    
O10   P5    D    
C9    O18   D    
C69   H10   S    
C53   H58   S    
Ba2   O12   S    
C13   C21   S    
C64   C65   A    
O8    P7    S    
C57   C58   A    
Ba2   O6    S    
C14   P4    S    
C17   C41   A    
C55   C61   A    
C72   H66   S    
C19   C43   A    
C57   H51   S    
C9    C18   A    
C36   P6    S    
C13   P8    S    
C49   C50   A    
C26   C30   A    
C17   C20   A    
C33   O19   D    
C21   H48   S    
C44   H42   S    
C7    H30   S    
C69   O2    S    
C1    H12   S    
O7    P4    S    
O14   P7    D    
C65   C66   A    
C58   C59   A    
C40   C43   A    
C35   C36   S    
O26   P2    D    
C41   C42   A    
C60   C61   A    
O11   P5    S    
C29   C30   A    
O27   P3    S    
O2    P2    S    
C4    H21   S    
C54   P3    S    
O4    P4    D    
C15   C16   S    
Ba1   O13   S    
C18   C19   A    
C16   N1    S    
Ba1   O26   S    
C2    H1    S    
C51   H53   S    
C46   H43   S    
C32   O21   D    
C38   C39   S    
C20   C44   A    
C12   O3    S    
C7    O17   S    
C23   H23   S    
C14   C21   D    
O9    P5    S    
Ba2   O5    S    
C2    O25   S    
C67   H7    S    
Ba2   O9    S    
C40   C41   A    
O6    P8    S    
C1    C2    S    
C8    H34   S    
C34   H63   S    
C71   H68   S    
C37   C38   D    
C50   C51   A    
C24   C40   A    
C5    O11   S    
C42   C48   A    
Ba2   O14   S    
O5    P4    S    
C46   C47   A    
C5    H25   S    
O17   P8    S    
C1    H16   S    
C35   H37   S    
C27   H39   S    
O12   P1    S    
C3    H18   S    
C45   H2    S    
C34   H62   S    
C70   H14   S    
C49   H60   S    
C56   C67   S    
O28   P3    D    
C44   C48   A    
C32   N2    Am   
C24   C26   A    
C63   P5    S    
O1    P1    D    
C30   C31   A    
C37   P1    S    
C11   C13   S    
C23   H55   S    
C45   H3    S    
C69   C70   S    
C9    N1    Am   
C62   C63   A    
C55   H52   S    
C60   H56   S    
C6    H28   S    
C3    C4    S    
Ba1   P1    S    
C12   H44   S    
O13   P2    S    
C8    H32   S    
C68   H59   S    
O23   P6    D    
C31   C32   A    
C1    H22   S    
C29   C33   A    
C12   C23   S    
C35   C39   D    
C59   C60   A    
C11   H41   S    
C19   H36   S    
C67   H9    S    
C56   H6    S    
Ba2   P4    S    
C48   H47   S    
C62   H57   S    
C58   C66   S    
C24   C27   A    
C7    H29   S    
C10   N1    Am   
C25   C26   A    
Ba2   O4    S    
C67   H8    S    
C69   H11   S    
C34   O7    S    
C56   O24   S    
C71   H67   S    
C33   N2    Am   
Ba1   O1    S    
C63   C68   A    
