data_mof_unit_10285.cif
_audit_creation_date              2013-03-05T16:01:04-0500
_audit_creation_method            fapswitch 2.2
_symmetry_space_group_name_H-M    P1
_symmetry_Int_Tables_number       1
_space_group_crystal_system       triclinic
_cell_length_a                    8.349237
_cell_length_b                    12.956163
_cell_length_c                    18.799727
_cell_angle_alpha                 100.032403
_cell_angle_beta                  91.596489
_cell_angle_gamma                 99.750801
_cell_volume                      1970.16722533

loop_
_atom_site_label
_atom_site_type_symbol
_atom_site_description
_atom_site_fract_x
_atom_site_fract_y
_atom_site_fract_z
_atom_type_partial_charge
P1    P     P_3+3 0.041040 0.394770 0.336330 0.509688
O1    O     O_2   0.873090 0.425890 0.325140 -0.292950
O2    O     O_3   0.122420 0.434370 0.414380 -0.400708
O3    O     O_3   0.659500 0.627100 0.368810 -0.371729
O4    O     O_2   0.752118 0.532934 0.246594 -0.405203
O5    O     O_3   0.993438 0.255455 0.319346 -0.558184
O6    O     O_3   0.738367 0.730640 0.251590 -0.878573
C1    C     C_3   0.688259 0.865738 0.186845 -0.694847
H1    H     H_    0.806142 0.918441 0.206409 -0.101895
H2    H     H_    0.704638 0.813535 0.135400 0.178051
P2    P     P_3+3 0.672880 0.754030 0.556100 0.561474
P3    P     P_3+3 0.128203 0.822272 0.406446 0.508343
O7    O     O_2   0.848200 0.768190 0.534530 -0.325814
O8    O     O_3   0.081160 0.685950 0.404810 -0.392039
O9    O     O_2   0.995388 0.873813 0.447407 -0.293328
O10   O     O_3   0.691384 0.791567 0.650257 -0.485277
O11   O     O_3   0.102022 0.842927 0.317373 -0.533939
C2    C     C_3   0.161334 0.762469 0.270568 -0.106358
H3    H     H_    0.079744 0.684366 0.267825 0.183362
H4    H     H_    0.284681 0.755020 0.290359 0.686089
C3    C     C_3   0.172922 0.789848 0.194529 -0.063965
H5    H     H_    0.195429 0.877433 0.197347 0.225331
C4    C     C_3   0.209664 0.827681 0.701178 1.052336
C5    C     C_3   0.150407 0.812805 0.775724 -0.849976
H6    H     H_    0.249412 0.799071 0.810715 0.258758
H7    H     H_    0.112555 0.884824 0.804811 0.339584
H8    H     H_    0.041912 0.751562 0.771651 0.158456
Ba1   Ba    Ba6+2 0.852780 0.548340 0.465070 1.721621
C6    C     C_3   0.952648 0.219302 0.383641 0.391358
H9    H     H_    0.843876 0.249905 0.404317 0.130171
H10   H     H_    0.054602 0.244582 0.425501 0.122384
C7    C     C_3   0.915859 0.098403 0.367931 -0.872100
H11   H     H_    0.814826 0.070481 0.325798 0.285684
H12   H     H_    0.880482 0.067721 0.417668 0.245355
H13   H     H_    0.025252 0.066440 0.348637 0.248195
C8    C     C_3   0.718485 0.706813 0.683111 0.276395
H14   H     H_    0.848244 0.700171 0.680302 0.001604
H15   H     H_    0.641740 0.630049 0.657704 0.081977
C9    C     C_3   0.671422 0.728155 0.761348 -0.060193
H16   H     H_    0.681412 0.659146 0.787402 0.041026
H17   H     H_    0.542289 0.738029 0.761345 0.171474
P4    P     P_3+3 0.148670 0.605320 0.663680 0.516020
O12   O     O_2   0.316610 0.574140 0.674900 -0.345219
O13   O     O_3   0.067290 0.565720 0.585630 -0.320230
O14   O     O_3   0.530210 0.372990 0.631200 -0.319872
O15   O     O_3   0.231542 0.735794 0.652682 -0.580593
P5    P     P_3+3 0.068762 0.176279 0.598853 0.626245
O16   O     O_3   0.611340 0.366290 0.463630 -0.288569
O17   O     O_3   0.108550 0.314140 0.595200 -0.241038
O18   O     O_2   0.175515 0.123995 0.542661 -0.381322
O19   O     O_3   0.152711 0.156934 0.682487 -0.499786
Ba2   Ba    Ba6+2 0.337060 0.451750 0.534940 1.719028
P6    P     P_3+3 0.639232 0.611492 0.274969 0.675071
C10   C     C_3   0.627442 0.798830 0.243026 5.358667
H18   H     H_    0.505949 0.754521 0.222934 -4.928668
H19   H     H_    0.597414 0.914653 0.175448 0.253388
O20   O     O_3   0.578370 0.633800 0.536380 -0.401678
C11   C     C_3   0.409781 0.223912 0.315042 0.728712
H20   H     H_    0.308704 0.251441 0.345553 -0.015828
C12   C     C_3   0.330130 0.146132 0.247304 -0.056426
H21   H     H_    0.243167 0.081529 0.264490 0.078544
H22   H     H_    0.259229 0.189065 0.215044 0.122722
P7    P     P_3+3 0.521938 0.228446 0.446574 0.513425
O21   O     O_2   0.341510 0.231850 0.465510 -0.414047
O22   O     O_3   0.509066 0.173414 0.354212 -0.551582
H23   H     H_    0.274183 0.757802 0.167062 0.728359
C13   C     C_3   0.052134 0.183292 0.739835 0.484758
H24   H     H_    0.939492 0.122654 0.732062 0.058476
C14   C     C_3   0.135336 0.186952 0.815279 0.410002
H25   H     H_    0.230870 0.259134 0.829007 0.150722
P8    P     P_3+3 0.550668 0.399433 0.725883 0.527379
C15   C     C_3   0.534366 0.196254 0.724845 0.381222
H26   H     H_    0.606277 0.208987 0.677576 0.104149
O23   O     O_2   0.432195 0.474217 0.752629 -0.369702
O24   O     O_3   0.466310 0.283744 0.757030 -0.512421
H27   H     H_    0.434461 0.129671 0.703115 0.187534
H28   H     H_    0.733963 0.225609 0.806450 0.229498
C16   C     C_3   0.632969 0.161077 0.782498 -0.661387
H29   H     H_    0.680142 0.089089 0.758059 0.257274
H30   H     H_    0.557699 0.141875 0.827477 0.323617
C17   C     C_R   0.984754 0.455624 0.049257 0.063975
C18   C     C_R   0.883328 0.402124 0.095110 -0.097091
C19   C     C_R   0.719819 0.358930 0.070635 0.367947
C20   C     C_R   0.657571 0.371203 0.002846 0.342438
C21   C     C_R   0.759656 0.423342 0.956689 -0.078066
C22   C     C_R   0.923577 0.464897 0.979591 0.031063
C23   C     C_R   0.702191 0.431813 0.887214 -0.155118
C24   C     C_R   0.806694 0.473867 0.837867 -0.049211
C25   C     C_R   0.969702 0.519110 0.861126 0.061218
C26   C     C_R   0.027196 0.514400 0.932342 0.087091
C27   C     C_R   0.754188 0.468559 0.765038 0.218203
C28   C     C_R   0.861551 0.510593 0.717346 -0.334938
C29   C     C_R   0.021876 0.558907 0.738482 0.162330
C30   C     C_R   0.077015 0.565237 0.812632 0.038296
C31   C     C_R   0.148228 0.498596 0.072439 0.151791
C32   C     C_R   0.208372 0.495579 0.143522 -0.169747
C33   C     C_R   0.104738 0.446760 0.191702 -0.059714
C34   C     C_R   0.946760 0.394381 0.164506 0.047346
H31   H     H_    0.819034 0.504729 0.661827 0.170648
H32   H     H_    0.575628 0.403475 0.870994 0.218243
H33   H     H_    0.870736 0.349899 0.198108 0.215130
C35   C     C_R   0.235884 0.612769 0.839754 -0.115918
C36   C     C_R   0.289294 0.614545 0.911685 -0.027730
C37   C     C_R   0.189160 0.558059 0.956114 0.041481
C38   C     C_R   0.249855 0.549683 0.025630 0.029472
C39   C     C_R   0.440203 0.673730 0.941270 0.447988
C40   C     C_R   0.506848 0.656329 0.005966 -0.183460
C41   C     C_R   0.412642 0.594040 0.048456 -0.148193
C42   C     C_R   0.372212 0.542551 0.166219 0.119759
C43   C     C_R   0.474715 0.584749 0.116294 0.459258
C44   C     C_R   0.426596 0.551485 0.239211 0.778364
C45   C     C_R   0.318608 0.511918 0.287960 -0.696020
C46   C     C_R   0.162168 0.454804 0.265565 0.218578
H34   H     H_    0.321208 0.646453 0.804746 0.152338
H35   H     H_    0.626639 0.699507 0.026042 0.192254
H36   H     H_    0.601653 0.616692 0.130978 0.115065
H37   H     H_    0.360830 0.520476 0.343976 0.205652
C47   C     C_R   0.752839 0.184669 0.543431 0.095924
C48   C     C_R   0.422232 0.810642 0.478074 -0.366533
C49   C     C_R   0.394011 0.985651 0.457424 0.005125
C50   C     C_R   0.331650 0.877593 0.450616 0.209986
C51   C     C_R   0.574449 0.850469 0.514600 0.348303
C52   C     C_R   0.637501 0.962746 0.524403 -0.011358
C53   C     C_R   0.545965 0.030400 0.494168 -0.070648
C54   C     C_R   0.608164 0.141195 0.501575 0.116393
C55   C     C_R   0.850947 0.119001 0.568839 0.099435
C56   C     C_R   0.791269 0.009036 0.560272 -0.238925
H38   H     H_    0.321257 0.033498 0.433575 0.152210
H39   H     H_    0.868045 0.960359 0.579845 0.247234
H40   H     H_    0.371893 0.726764 0.472345 0.150055
N1    N     N_R   0.613541 0.869031 0.311195 -0.025297
O25   O     O_R   0.516314 0.937939 0.313958 -0.489436
O26   O     O_R   0.703577 0.867321 0.368294 -0.640433
N2    N     N_R   0.771652 0.823677 0.803250 0.308531
O27   O     O_R   0.853221 0.817320 0.861893 -0.308188
O28   O     O_R   0.750609 0.916673 0.791962 -0.216517
Cl1   Cl    Cl    0.530402 0.336853 0.291374 -0.601644
N3    N     N_R   0.446292 0.097805 0.201291 0.311672
O29   O     O_R   0.392886 0.035938 0.140160 -0.283325
O30   O     O_R   0.601631 0.116283 0.219275 -0.293090
N4    N     N_R   0.015008 0.288028 0.739530 0.173420
O31   O     O_R   0.877864 0.295147 0.709212 -0.500707
O32   O     O_R   0.134508 0.367782 0.746315 -0.363606
N5    N     N_R   0.018534 0.190510 0.871618 0.224745
O33   O     O_R   0.907263 0.107989 0.873899 -0.265076
O34   O     O_R   0.043797 0.268032 0.926935 -0.365621
Cl2   Cl    Cl    0.236186 0.079589 0.819440 -0.499819
Cl3   Cl    Cl    0.588258 0.287757 0.123353 -0.490699
Cl4   Cl    Cl    0.450674 0.317344 0.975791 -0.533284
Cl5   Cl    Cl    0.519733 0.792556 0.913093 -0.511107
Cl6   Cl    Cl    0.810711 0.323647 0.562109 -0.560225
Cl7   Cl    Cl    0.994650 0.730971 0.138238 -0.719769
Cl8   Cl    Cl    0.406772 0.908442 0.715776 -0.589602
N6    N     N_R   0.106950 0.884782 0.663775 0.226737
O35   O     O_R   0.146858 0.907242 0.601101 -0.385108
O36   O     O_R   0.988377 0.924329 0.694999 -0.398559

loop_
_geom_bond_atom_site_label_1
_geom_bond_atom_site_label_2
_geom_bond_distance
_ccdc_geom_bond_type
C23   C24   1.406764 A    
P7    O22   1.751361 S    
C29   C30   1.439975 A    
C39   Cl5   1.746179 S    
O3    P6    1.740514 S    
O14   P8    1.750928 S    
C2    C3    1.533448 S    
Ba1   Ba2   4.650919 S    
C31   C32   1.423725 A    
C5    H8    1.089738 S    
C15   H27   1.105144 S    
C1    H19   1.106318 S    
C17   C18   1.410917 A    
C52   C53   1.432405 A    
P5    O17   1.774379 S    
Ba1   O20   2.964061 S    
C14   N5    1.459706 S    
C10   N1    1.456377 S    
C55   C56   1.406824 A    
P4    O13   1.562687 S    
C47   Cl6   1.753444 S    
O4    P6    1.540324 D    
O2    Ba1   2.985318 S    
C5    H7    1.096050 S    
P1    O1    1.542000 D    
C6    C7    1.518533 S    
N4    O32   1.295088 A    
C45   H37   1.082105 S    
C17   C31   1.409871 A    
C16   H30   1.105355 S    
O12   Ba2   2.851303 S    
C39   C40   1.392868 A    
C11   C12   1.535640 S    
P4    C29   1.903108 S    
C48   H40   1.082233 S    
C12   H22   1.112082 S    
C2    H3    1.112230 S    
P4    O15   1.764269 S    
C3    Cl7   1.778642 S    
C25   C30   1.430062 A    
C37   C38   1.416911 A    
C15   C16   1.519787 S    
C31   C38   1.409526 A    
Ba1   O16   2.826984 S    
P3    C50   1.841254 S    
C44   C45   1.403130 A    
C1    H1    1.111269 S    
P3    O11   1.754728 S    
P1    Ba1   3.446841 S    
C4    C5    1.531793 S    
C24   C27   1.412470 A    
O7    Ba1   2.926406 S    
C47   C54   1.399167 A    
N6    O36   1.298687 A    
C17   C22   1.424419 A    
H28   C16   1.105302 S    
C20   Cl4   1.774466 S    
P6    C44   1.868713 S    
C48   C50   1.395479 A    
C4    O15   1.409491 S    
C3    H5    1.109988 S    
C18   C34   1.420460 A    
Ba2   O20   2.826362 S    
C35   C36   1.407166 A    
P1    C46   1.888570 S    
C15   O24   1.404363 S    
C45   C46   1.401524 A    
O3    Ba1   2.821125 S    
C33   C34   1.414223 A    
P5    O18   1.541727 D    
C21   C23   1.407493 A    
C38   C41   1.406666 A    
P7    O21   1.563633 D    
C13   H24   1.106865 S    
C7    H13   1.109737 S    
C5    H6    1.099091 S    
N5    O34   1.298803 A    
Ba2   O21   2.926626 S    
C1    C10   1.524680 S    
C9    H16   1.105357 S    
C16   H29   1.105144 S    
N5    O33   1.299915 A    
O16   P7    1.784685 S    
N2    O28   1.298590 A    
O14   Ba2   2.820459 S    
C11   H20   1.107284 S    
C21   C22   1.408953 A    
Ba1   O13   2.802635 S    
P1    O5    1.751293 S    
C12   H21   1.110673 S    
P1    O2    1.562688 S    
C3    H23   1.105598 S    
C7    H12   1.106654 S    
C56   H39   1.071776 S    
C6    H9    1.104991 S    
C35   H34   1.073311 S    
P2    O10   1.747316 S    
C11   O22   1.405355 S    
C52   C56   1.418705 A    
C19   C20   1.407558 A    
P3    O9    1.545252 D    
C40   C41   1.397366 A    
O17   Ba2   2.788207 S    
C26   C37   1.402672 A    
C32   C33   1.423744 A    
O11   C2    1.409163 S    
O19   C13   1.415439 S    
C20   C21   1.409321 A    
C40   H35   1.082407 S    
N6    O35   1.300954 A    
P7    C54   1.872646 S    
N3    O30   1.302276 A    
C11   Cl1   1.762404 S    
P3    O8    1.737848 S    
C4    Cl8   1.780455 S    
C22   C26   1.414991 A    
C14   Cl2   1.755288 S    
P2    C51   1.870031 S    
P4    O12   1.542351 D    
O6    P6    1.756444 S    
C33   C46   1.436858 A    
N1    O25   1.300169 A    
C13   N4    1.443113 S    
C43   H36   1.079840 S    
C27   C28   1.397690 A    
C49   C50   1.390852 A    
P5    C55   1.875140 S    
C23   H32   1.075186 S    
C48   C51   1.399551 A    
C13   C14   1.551439 S    
C10   H18   1.098650 S    
C8    H14   1.103220 S    
C8    C9    1.523661 S    
C9    H17   1.107029 S    
C15   H26   1.106634 S    
N1    O26   1.298776 A    
P8    O23   1.533848 D    
P5    O19   1.778093 S    
O2    Ba2   2.803290 S    
C49   H38   1.078660 S    
N2    O27   1.301862 A    
C34   H33   1.076738 S    
C32   C42   1.420805 A    
C7    H11   1.108798 S    
C42   C44   1.412357 A    
C51   C52   1.438395 A    
C6    H10   1.108883 S    
P2    O20   1.597727 S    
N4    O31   1.289281 A    
O10   C8    1.396850 S    
P8    O24   1.748362 S    
P2    O7    1.519473 D    
O13   Ba2   2.986237 S    
P2    Ba1   3.492401 S    
C8    H15   1.108806 S    
C28   C29   1.393352 A    
C41   C43   1.395472 A    
C36   C39   1.403566 A    
C2    H4    1.110480 S    
C14   H25   1.108689 S    
N3    O29   1.300573 A    
C19   Cl3   1.753605 S    
O16   Ba2   2.963139 S    
O5    C6    1.400912 S    
P8    C27   1.848376 S    
C24   C25   1.412230 A    
C30   C35   1.405303 A    
C1    H2    1.105596 S    
C18   C19   1.416014 A    
C4    N6    1.462794 S    
P4    Ba2   3.447464 S    
C36   C37   1.406009 A    
O1    Ba1   2.850942 S    
C47   C55   1.406725 A    
O6    C10   1.408054 S    
O8    Ba1   2.787568 S    
C25   C26   1.424505 A    
C42   C43   1.406169 A    
C49   C53   1.409036 A    
C28   H31   1.078795 S    
C12   N3    1.464483 S    
C53   C54   1.422504 A    
C9    N2    1.457834 S    
