data_mof_unit_5612.cif
_audit_creation_date              2012-12-11T14:21:13-0500
_audit_creation_method            fapswitch 2.2
_symmetry_space_group_name_H-M    P1
_symmetry_Int_Tables_number       1
_space_group_crystal_system       triclinic
_cell_length_a                    11.552539
_cell_length_b                    11.582301
_cell_length_c                    19.417397
_cell_angle_alpha                 90.561471
_cell_angle_beta                  89.35235
_cell_angle_gamma                 59.403304
_cell_volume                      2235.90044174

loop_
_atom_site_label
_atom_site_type_symbol
_atom_type_description
_atom_site_fract_x
_atom_site_fract_y
_atom_site_fract_z
_atom_type_partial_charge
C1    C     C_R   0.640438 0.118424 0.598920 0.552856
C2    C     C_1   0.640974 0.703403 0.667698 0.006816
C3    C     C_1   0.150749 0.186080 0.863935 0.001349
C4    C     C_1   0.233513 0.142052 0.736099 -0.031316
C5    C     C_1   0.193629 0.161094 0.805773 -0.029826
C6    C     C_1   0.263557 0.130843 0.676018 0.001945
C7    C     C_1   0.678492 0.189827 0.861264 0.005452
C8    C     C_1   0.657156 0.168356 0.729105 -0.031906
C9    C     C_1   0.664957 0.180384 0.800657 -0.030351
C10   C     C_1   0.651646 0.151519 0.668420 0.001446
C11   C     C_R   0.693294 0.582099 0.208714 0.001617
C12   C     C_R   0.612595 0.745546 0.598337 0.532663
C13   C     C_R   0.575494 0.610123 0.247422 -0.029478
C14   C     C_R   0.587955 0.593486 0.318829 0.021348
C15   C     C_R   0.797206 0.590000 0.315576 -0.159537
C16   C     C_R   0.808230 0.557788 0.245110 -0.152150
C17   C     C_R   0.444139 0.662877 0.220878 -0.079357
C18   C     C_R   0.338885 0.676139 0.262808 0.342785
C19   C     C_R   0.364271 0.628774 0.329872 -0.081170
C20   C     C_R   0.490808 0.580736 0.356768 -0.143306
C21   C     C_R   0.678896 0.622416 0.351256 0.009289
C22   C     C_R   0.156760 0.184890 0.189408 -0.028394
C23   C     C_R   0.300029 0.119239 0.604816 0.558151
C24   C     C_R   0.197666 0.264114 0.223921 0.022034
C25   C     C_R   0.178683 0.278758 0.295476 0.029956
C26   C     C_R   0.151773 0.083538 0.298258 -0.047426
C27   C     C_R   0.137379 0.091953 0.226851 -0.139961
C28   C     C_R   0.240113 0.342199 0.188477 -0.091659
C29   C     C_R   0.232971 0.452948 0.220833 -0.117219
C30   C     C_R   0.185356 0.484780 0.288522 -0.147882
C31   C     C_R   0.158948 0.398869 0.325858 -0.103468
C32   C     C_R   0.177396 0.174648 0.333486 -0.027946
C33   C     C_R   0.649587 0.173877 0.183856 -0.004810
C34   C     C_R   0.621464 0.080544 0.393916 0.555452
C35   C     C_R   0.708697 0.038220 0.201800 0.034098
C36   C     C_R   0.715264 0.004990 0.272072 0.019040
C37   C     C_R   0.557054 0.241460 0.298585 -0.131642
C38   C     C_R   0.568695 0.274390 0.231539 -0.155892
C39   C     C_R   0.771273 0.934975 0.151216 -0.079799
C40   C     C_R   0.862098 0.805011 0.170131 -0.076950
C41   C     C_R   0.884645 0.775890 0.239285 -0.081540
C42   C     C_R   0.806324 0.870894 0.289816 -0.087202
C43   C     C_R   0.634731 0.108235 0.321068 0.002643
C44   C     C_R   0.085620 0.228951 0.929728 0.545456
C45   C     C_R   0.624960 0.723551 0.408357 0.534527
C46   C     C_R   0.683642 0.605138 0.929830 0.554548
C47   C     C_R   0.707981 0.205903 0.930520 0.541173
C48   C     C_R   0.087849 0.232163 0.123637 0.527551
C49   C     C_R   0.706532 0.553796 0.133858 0.560699
C50   C     C_R   0.702688 0.208660 0.124014 0.529247
C51   C     C_R   0.239782 0.143676 0.402178 0.542071
C52   C     C_1   0.670630 0.647452 0.860459 0.003034
C53   C     C_1   0.654681 0.683627 0.728320 -0.030458
C54   C     C_1   0.663639 0.667384 0.799798 -0.031543
Cr1   Cr    Cr6+3 0.404720 0.198220 0.499960 1.014153
Cr2   Cr    Cr6+3 0.698290 0.897110 0.500380 1.019473
Cr3   Cr    Cr6+3 0.396970 0.904720 0.499610 1.040739
Cr4   Cr    Cr6+3 0.926180 0.151990 0.028120 1.033736
Cr5   Cr    Cr6+3 0.921330 0.451820 0.027470 1.014491
Cr6   Cr    Cr6+3 0.626260 0.446870 0.028710 1.019864
H1    H     H_    0.876601 0.596012 0.341177 0.107936
H2    H     H_    0.256445 0.517702 0.191799 0.174515
H3    H     H_    0.162368 0.578849 0.311526 0.156136
H4    H     H_    0.117787 0.430123 0.377536 0.136123
H5    H     H_    0.492960 0.322833 0.333862 0.151050
H6    H     H_    0.755598 0.955910 0.096788 0.124956
H7    H     H_    0.520855 0.379103 0.218166 0.135617
H8    H     H_    0.917257 0.727670 0.131297 0.131828
H9    H     H_    0.959307 0.677102 0.253771 0.123960
H10   H     H_    0.823435 0.836475 0.341828 0.160778
H11   H     H_    0.415750 0.706708 0.170805 0.177321
H12   H     H_    0.902743 0.524358 0.218062 0.147293
H13   H     H_    0.284551 0.639853 0.363805 0.129582
H14   H     H_    0.505955 0.553698 0.410580 0.135934
H15   H     H_    0.271182 0.322366 0.134742 0.130581
H16   H     H_    0.103752 0.030928 0.201172 0.187864
O1    O     O_R   0.267740 0.231960 0.575440 -0.501686
O2    O     O_R   0.685970 0.784660 0.430010 -0.528318
O3    O     O_R   0.502530 0.767000 0.423990 -0.506007
O4    O     O_R   0.288330 0.026350 0.429250 -0.475224
O5    O     O_3   0.499990 0.000020 0.499980 -0.289579
O6    O     O_R   0.821500 0.119340 0.952830 -0.508656
O7    O     O_R   0.037130 0.162530 0.957360 -0.490119
O8    O     O_R   0.056440 0.344740 0.951340 -0.505398
O9    O     O_R   0.797900 0.560360 0.957470 -0.488586
O10   O     O_R   0.596130 0.579390 0.952730 -0.499173
O11   O     O_R   0.639060 0.321160 0.958670 -0.494746
O12   O     O_R   0.527280 0.186640 0.570530 -0.506708
O13   O     O_R   0.821240 0.124200 0.104370 -0.509166
O14   O     O_R   0.036890 0.167040 0.097840 -0.499277
O15   O     O_R   0.056180 0.349610 0.102880 -0.531485
O16   O     O_R   0.797660 0.564870 0.097950 -0.504072
O17   O     O_R   0.595880 0.584250 0.104270 -0.533997
O18   O     O_R   0.638830 0.325670 0.099150 -0.519777
O19   O     O_3   0.824590 0.350230 0.028100 -0.265179
O20   O     O_R   0.728090 0.003450 0.576380 -0.493286
O21   O     O_R   0.682970 0.789190 0.570490 -0.498317
O22   O     O_R   0.499290 0.771880 0.575530 -0.515209
O23   O     O_R   0.285330 0.030870 0.569730 -0.483324
O24   O     O_R   0.270980 0.227080 0.423890 -0.529068
O25   O     O_R   0.530280 0.182120 0.430050 -0.501538
O26   O     O_R   0.731330 0.998570 0.424830 -0.507381
F1    F     F_    0.211810 0.738133 0.238665 -0.673421
C55   C     C_1   0.122741 0.993262 0.335112 0.278343
N1    N     N_1   0.098027 0.922200 0.364940 -0.258631

loop_
_geom_bond_atom_site_label_1
_geom_bond_atom_site_label_2
_ccdc_geom_bond_type
C25   C31   A    
C23   O23   A    
C24   C25   A    
C26   C32   A    
C41   C42   A    
Cr3   O3    S    
C22   C48   S    
C35   C36   A    
C16   H12   S    
C44   O7    A    
C2    C12   S    
Cr2   O5    S    
C53   C54   S    
C26   C27   A    
C34   O26   A    
C14   C21   A    
C28   C29   A    
Cr4   O6    S    
C30   C31   A    
Cr1   O1    S    
Cr3   O22   S    
C15   C16   A    
Cr3   O23   S    
C46   C52   S    
C42   H10   S    
Cr2   O2    S    
C7    C9    T    
C18   C19   A    
C47   O6    A    
Cr1   O12   S    
C51   O4    A    
C26   C55   S    
C36   C42   A    
C19   C20   A    
C8    C9    S    
C48   O15   A    
C37   H5    S    
Cr1   O24   S    
C45   O2    A    
Cr1   O5    S    
C29   C30   A    
C12   O22   A    
Cr5   O16   S    
C46   O9    A    
Cr6   O17   S    
C25   C32   A    
C48   O14   A    
C30   H3    S    
Cr3   O4    S    
Cr5   O19   S    
Cr2   O21   S    
C55   N1    T    
Cr6   O11   S    
C52   C54   T    
C21   C45   S    
C3    C44   S    
C34   O25   A    
C34   C43   S    
C14   C20   A    
C19   H13   S    
Cr5   O8    S    
C4    C6    T    
C39   C40   A    
Cr6   O10   S    
C50   O18   A    
C44   O8    A    
C33   C50   S    
C47   O11   A    
C37   C43   A    
C35   C39   A    
Cr4   O19   S    
Cr5   O9    S    
C32   C51   S    
C37   C38   A    
C11   C49   S    
C11   C16   A    
C50   O13   A    
C17   C18   A    
C15   H1    S    
C20   H14   S    
C45   O3    A    
Cr5   O15   S    
C23   O1    A    
Cr4   O14   S    
C12   O21   A    
C40   C41   A    
C17   H11   S    
C22   C27   A    
C39   H6    S    
C22   C24   A    
C49   O16   A    
C27   H16   S    
C41   H9    S    
C51   O24   A    
Cr2   O20   S    
C29   H2    S    
C31   H4    S    
C1    C10   S    
C24   C28   A    
C4    C5    S    
C3    C5    T    
C2    C53   T    
Cr1   O25   S    
C33   C38   A    
C13   C17   A    
Cr2   O26   S    
Cr4   O7    S    
C11   C13   A    
C1    O12   A    
C1    O20   A    
C6    C23   S    
C33   C35   A    
Cr3   O5    S    
C18   F1    S    
Cr4   O13   S    
Cr6   O19   S    
C15   C21   A    
C38   H7    S    
C8    C10   T    
C40   H8    S    
C36   C43   A    
C49   O17   A    
C13   C14   A    
C28   H15   S    
C7    C47   S    
C46   O10   A    
Cr6   O18   S    
