data_mof_unit_64942.cif
_audit_creation_date              2012-12-11T17:28:25-0500
_audit_creation_method            fapswitch 2.2
_symmetry_space_group_name_H-M    P1
_symmetry_Int_Tables_number       1
_space_group_crystal_system       triclinic
_cell_length_a                    24.720195
_cell_length_b                    24.799731
_cell_length_c                    27.106242
_cell_angle_alpha                 90.860987
_cell_angle_beta                  89.31095
_cell_angle_gamma                 89.89507
_cell_volume                      16614.4837479

loop_
_atom_site_label
_atom_site_type_symbol
_atom_type_description
_atom_site_fract_x
_atom_site_fract_y
_atom_site_fract_z
_atom_type_partial_charge
Br1   Br    Br    0.191531 0.368294 0.701272 -0.234751
Br2   Br    Br    0.797757 0.370751 0.706943 -0.239723
Br3   Br    Br    0.377437 0.207805 0.271874 -0.250198
Br4   Br    Br    0.638981 0.793608 0.721845 -0.258698
Br5   Br    Br    0.793352 0.360619 0.272807 -0.256267
Br6   Br    Br    0.213437 0.625022 0.737049 -0.256043
Br7   Br    Br    0.611672 0.780240 0.272418 -0.248030
Br8   Br    Br    0.350162 0.199554 0.700780 -0.259317
Br9   Br    Br    0.698912 0.868992 0.214947 -0.244560
Br10  Br    Br    0.316921 0.172100 0.823390 -0.250825
Br11  Br    Br    0.814125 0.334184 0.143533 -0.250956
Br12  Br    Br    0.778592 0.617124 0.256705 -0.246473
Br13  Br    Br    0.183440 0.661227 0.860896 -0.250698
Br14  Br    Br    0.337838 0.174983 0.140222 -0.244652
Br15  Br    Br    0.667062 0.823352 0.853588 -0.247809
Br16  Br    Br    0.161351 0.690559 0.179394 -0.249154
Br17  Br    Br    0.848371 0.310941 0.810168 -0.243116
Br18  Br    Br    0.699081 0.138135 0.796706 -0.255271
Br19  Br    Br    0.292833 0.877295 0.213538 -0.251907
Br20  Br    Br    0.857975 0.685635 0.811940 -0.241045
Br21  Br    Br    0.167342 0.329143 0.162085 -0.249085
Br22  Br    Br    0.334359 0.831567 0.850578 -0.250795
Br23  Br    Br    0.360593 0.796695 0.721297 -0.243976
Br24  Br    Br    0.670185 0.157787 0.158358 -0.244889
Br25  Br    Br    0.127226 0.301307 0.802081 -0.248449
Br26  Br    Br    0.875667 0.719281 0.226488 -0.250319
Br27  Br    Br    0.245027 0.411899 0.599856 -0.332395
Br28  Br    Br    0.740614 0.578462 0.366732 -0.328193
Br29  Br    Br    0.410304 0.748997 0.618471 -0.324331
Br30  Br    Br    0.588250 0.247973 0.387329 -0.326769
Br31  Br    Br    0.744717 0.581025 0.624517 -0.332644
Br32  Br    Br    0.252333 0.414414 0.381070 -0.329043
Br33  Br    Br    0.583282 0.252822 0.607439 -0.333089
Br34  Br    Br    0.635979 0.197396 0.284734 -0.236482
Br35  Br    Br    0.414787 0.746163 0.390555 -0.339153
Br36  Br    Br    0.297768 0.544638 0.328955 -0.387647
Br37  Br    Br    0.703441 0.452641 0.672719 -0.381180
Br38  Br    Br    0.453344 0.283284 0.338845 -0.389097
Br39  Br    Br    0.553058 0.726907 0.656057 -0.370901
Br40  Br    Br    0.727796 0.440669 0.346656 -0.367887
Br41  Br    Br    0.274788 0.552028 0.654707 -0.382015
Br42  Br    Br    0.531762 0.687134 0.317271 -0.417563
Br43  Br    Br    0.440931 0.282931 0.656875 -0.379225
Br44  Br    Br    0.758623 0.931974 0.128024 -0.324670
Br45  Br    Br    0.769554 0.605398 0.744042 -0.243405
Br46  Br    Br    0.245852 0.073647 0.871029 -0.317525
Br47  Br    Br    0.905252 0.261075 0.086602 -0.334659
Br48  Br    Br    0.094695 0.736391 0.917736 -0.338299
Br49  Br    Br    0.263993 0.103433 0.063462 -0.352122
Br50  Br    Br    0.741444 0.895409 0.931497 -0.347353
Br51  Br    Br    0.073678 0.757435 0.122949 -0.332572
Br52  Br    Br    0.922030 0.247851 0.885103 -0.332850
Br53  Br    Br    0.785620 0.051854 0.837202 -0.378989
Br54  Br    Br    0.199062 0.957539 0.176510 -0.381054
Br55  Br    Br    0.938938 0.775313 0.853168 -0.366616
Br56  Br    Br    0.197987 0.347115 0.291393 -0.249146
Br57  Br    Br    0.076074 0.244651 0.126021 -0.352685
Br58  Br    Br    0.240553 0.922337 0.865108 -0.339261
Br59  Br    Br    0.768856 0.071869 0.145533 -0.350569
Br60  Br    Br    0.046379 0.198549 0.825510 -0.373082
Br61  Br    Br    0.957434 0.809535 0.182210 -0.382319
Br62  Br    Br    0.660125 0.187492 0.680836 -0.248716
Br63  Br    Br    0.365340 0.800587 0.294256 -0.241051
Br64  Br    Br    0.217304 0.624416 0.272735 -0.246319
C1    C     C_R   0.634428 0.427981 0.422396 -0.116826
C2    C     C_R   0.370809 0.433985 0.414943 -0.057341
C3    C     C_R   0.656788 0.269276 0.305628 0.310427
C4    C     C_R   0.712499 0.641894 0.709378 0.306009
C5    C     C_R   0.272472 0.334122 0.308509 0.304208
C6    C     C_R   0.670577 0.264323 0.672485 0.305957
C7    C     C_R   0.345055 0.727823 0.310537 0.307567
C8    C     C_R   0.284908 0.651800 0.297319 0.311383
C9    C     C_R   0.727994 0.342700 0.687148 0.309585
C10   C     C_R   0.349781 0.275263 0.298489 0.307666
C11   C     C_R   0.652048 0.718611 0.705346 0.309399
C12   C     C_R   0.722702 0.340552 0.298726 0.308873
C13   C     C_R   0.433070 0.630264 0.584481 -0.069820
C14   C     C_R   0.281332 0.649220 0.708187 0.308797
C15   C     C_R   0.639663 0.709689 0.288366 0.309460
C16   C     C_R   0.331919 0.272760 0.683833 0.311304
C17   C     C_R   0.771698 0.848700 0.195306 0.299431
C18   C     C_R   0.238207 0.177486 0.830649 0.301472
C19   C     C_R   0.804301 0.257184 0.135795 0.299449
C20   C     C_R   0.195872 0.737803 0.869605 0.300823
C21   C     C_R   0.261284 0.192009 0.130208 0.309429
C22   C     C_R   0.745753 0.809281 0.861561 0.313179
C23   C     C_R   0.169397 0.768161 0.175364 0.301931
C24   C     C_R   0.566846 0.368845 0.416640 -0.060562
C25   C     C_R   0.833433 0.235977 0.823328 0.307996
C26   C     C_R   0.770749 0.161428 0.814775 0.311720
C27   C     C_R   0.225056 0.847348 0.191279 0.308366
C28   C     C_R   0.826410 0.752075 0.840788 0.302957
C29   C     C_R   0.187705 0.256350 0.142251 0.300191
C30   C     C_R   0.260048 0.810675 0.862863 0.295664
C31   C     C_R   0.743179 0.181937 0.144446 0.294861
C32   C     C_R   0.157777 0.232583 0.819831 0.292217
C33   C     C_R   0.847186 0.786963 0.203682 0.303664
C34   C     C_R   0.288376 0.364802 0.639681 0.252966
C35   C     C_R   0.368237 0.434041 0.582484 -0.067044
C36   C     C_R   0.690832 0.619439 0.328633 0.258078
C37   C     C_R   0.365031 0.701535 0.656752 0.251555
C38   C     C_R   0.635049 0.293254 0.348407 0.253243
C39   C     C_R   0.694146 0.623548 0.663915 0.257138
C40   C     C_R   0.297367 0.362275 0.346937 0.261567
C41   C     C_R   0.637037 0.294053 0.642379 0.260478
C42   C     C_R   0.370607 0.701468 0.348826 0.274122
C43   C     C_R   0.315005 0.620300 0.329011 0.254690
C44   C     C_R   0.691811 0.376027 0.663425 0.248581
C45   C     C_R   0.378713 0.304496 0.333730 0.246349
C46   C     C_R   0.623962 0.558701 0.408637 -0.057629
C47   C     C_R   0.622105 0.693583 0.668169 0.252340
C48   C     C_R   0.698103 0.369859 0.337077 0.249202
C49   C     C_R   0.304701 0.622587 0.667727 0.246517
C50   C     C_R   0.608565 0.675896 0.317565 0.250570
C51   C     C_R   0.366004 0.302649 0.654117 0.250984
C52   C     C_R   0.800981 0.879734 0.162359 0.255993
C53   C     C_R   0.206689 0.137436 0.853031 0.250437
C54   C     C_R   0.843807 0.224169 0.113531 0.250836
C55   C     C_R   0.157416 0.772095 0.891760 0.250710
C56   C     C_R   0.227695 0.159570 0.100892 0.243085
C57   C     C_R   0.562463 0.372975 0.587508 -0.055358
C58   C     C_R   0.778784 0.843038 0.890204 0.252128
C59   C     C_R   0.132370 0.798922 0.149806 0.265705
C60   C     C_R   0.865168 0.206382 0.854981 0.259486
C61   C     C_R   0.804411 0.127461 0.840801 0.244888
C62   C     C_R   0.187496 0.880665 0.168794 0.243807
C63   C     C_R   0.861627 0.789056 0.863330 0.251493
C64   C     C_R   0.150566 0.221936 0.119824 0.244510
C65   C     C_R   0.221156 0.848653 0.877509 0.240343
C66   C     C_R   0.783520 0.145690 0.130183 0.239497
C67   C     C_R   0.123668 0.191982 0.838042 0.248751
C68   C     C_R   0.437369 0.626771 0.412445 -0.051080
C69   C     C_R   0.881053 0.822209 0.178146 0.256022
C70   C     C_R   0.138011 0.923325 0.931253 -0.091032
C71   C     C_R   0.863058 0.075481 0.071030 -0.108692
C72   C     C_R   0.925684 0.862598 0.930261 -0.069929
C73   C     C_R   0.366269 0.570023 0.579090 -0.099145
C74   C     C_R   0.076442 0.138880 0.065644 -0.075952
C75   C     C_R   0.867885 0.069075 0.919716 -0.094292
C76   C     C_R   0.129062 0.934523 0.084905 -0.093584
C77   C     C_R   0.069104 0.131149 0.918407 -0.114054
C78   C     C_R   0.932192 0.871328 0.085139 -0.112903
C79   C     C_R   0.137158 0.073559 0.072098 -0.058060
C80   C     C_R   0.865269 0.929143 0.923009 -0.050874
C81   C     C_R   0.929956 0.135175 0.077801 -0.060367
C82   C     C_R   0.071655 0.863358 0.924574 -0.055737
C83   C     C_R   0.875957 0.942260 0.090900 -0.051698
C84   C     C_R   0.430321 0.366386 0.420768 -0.101575
C85   C     C_R   0.128125 0.062284 0.912882 -0.058168
C86   C     C_R   0.061369 0.874671 0.088596 -0.058401
C87   C     C_R   0.935638 0.128769 0.915179 -0.055269
C88   C     C_R   0.284311 0.296175 0.701425 -0.278788
C89   C     C_R   0.691366 0.693595 0.272844 -0.267107
C90   C     C_R   0.305432 0.694895 0.727705 -0.277338
C91   C     C_R   0.697089 0.295912 0.279321 -0.280201
C92   C     C_R   0.691833 0.690415 0.729078 -0.278317
C93   C     C_R   0.300481 0.293539 0.282392 -0.268255
C94   C     C_R   0.714586 0.289576 0.694949 -0.279622
C95   C     C_R   0.568343 0.632575 0.580852 -0.101714
C96   C     C_R   0.302199 0.703299 0.286052 -0.282467
C97   C     C_R   0.793124 0.799938 0.211657 -0.272006
C98   C     C_R   0.212498 0.223969 0.814170 -0.266023
C99   C     C_R   0.755605 0.235248 0.152333 -0.249406
C100  C     C_R   0.245604 0.758154 0.853801 -0.251497
C101  C     C_R   0.239135 0.238208 0.153084 -0.260282
C102  C     C_R   0.771236 0.764229 0.838010 -0.280760
C103  C     C_R   0.214965 0.792800 0.195529 -0.280909
C104  C     C_R   0.787864 0.212178 0.802695 -0.280921
C105  C     C_1   0.260398 0.274319 0.743803 0.211965
C106  C     C_R   0.368343 0.568657 0.418725 -0.095365
C107  C     C_1   0.726715 0.730830 0.249509 0.211530
C108  C     C_1   0.288779 0.713959 0.775439 0.211612
C109  C     C_1   0.712916 0.277042 0.231576 0.210517
C110  C     C_1   0.717247 0.713288 0.770943 0.220689
C111  C     C_1   0.280264 0.274607 0.235878 0.215374
C112  C     C_1   0.741444 0.261829 0.732130 0.215132
C113  C     C_1   0.273377 0.733957 0.251841 0.218888
C114  C     C_1   0.757197 0.761990 0.232738 0.214082
C115  C     C_1   0.239775 0.253761 0.778369 0.213565
C116  C     C_1   0.729463 0.260647 0.193285 0.204580
C117  C     C_R   0.632036 0.430599 0.580550 -0.105423
C118  C     C_1   0.271807 0.731399 0.813328 0.207180
C119  C     C_1   0.263374 0.259308 0.197114 0.206222
C120  C     C_1   0.740666 0.734901 0.803651 0.209775
C121  C     C_1   0.248190 0.761024 0.225061 0.219922
C122  C     C_1   0.762243 0.239329 0.764692 0.216410
C123  C     C_R   0.343637 0.349154 0.630244 -0.217780
C124  C     C_R   0.636285 0.633510 0.343374 -0.213838
C125  C     C_R   0.349586 0.647752 0.642299 -0.209011
C126  C     C_R   0.651674 0.347228 0.361770 -0.210224
C127  C     C_R   0.643633 0.645108 0.645821 -0.211448
C128  C     C_R   0.566811 0.628774 0.414696 -0.101251
C129  C     C_R   0.352932 0.349553 0.358691 -0.210386
C130  C     C_R   0.646751 0.351313 0.638681 -0.218801
C131  C     C_R   0.357348 0.645541 0.356441 -0.217090
C132  C     C_R   0.857015 0.866022 0.152616 -0.215731
C133  C     C_R   0.148921 0.145735 0.859137 -0.209648
C134  C     C_R   0.834570 0.166238 0.112290 -0.212788
C135  C     C_R   0.168475 0.829829 0.893721 -0.210472
C136  C     C_R   0.169840 0.170805 0.099724 -0.205152
C137  C     C_R   0.837584 0.834969 0.888361 -0.214841
C138  C     C_R   0.142159 0.856206 0.144924 -0.207724
C139  C     C_R   0.426941 0.365506 0.575418 -0.100463
C140  C     C_R   0.851856 0.150219 0.863065 -0.212042
C141  C     C_R   0.619190 0.379995 0.398834 0.178398
C142  C     C_R   0.381504 0.617547 0.603180 0.177007
C143  C     C_R   0.383568 0.382488 0.396158 0.181482
C144  C     C_R   0.614223 0.615312 0.606039 0.176272
C145  C     C_R   0.386896 0.614036 0.393607 0.181911
C146  C     C_R   0.613668 0.384997 0.605603 0.179494
C147  C     C_R   0.609615 0.607623 0.386295 0.176200
C148  C     C_R   0.378646 0.381779 0.597881 0.177524
C149  C     C_R   0.127009 0.870911 0.913077 0.170060
C150  C     C_R   0.627312 0.564170 0.586885 -0.060564
C151  C     C_R   0.875278 0.126687 0.090613 0.178180
C152  C     C_R   0.875115 0.874874 0.911515 0.166660
C153  C     C_R   0.129374 0.129226 0.081332 0.164071
C154  C     C_R   0.884838 0.116227 0.896279 0.180264
C155  C     C_R   0.110294 0.889076 0.110009 0.182210
C156  C     C_R   0.115247 0.112145 0.892923 0.183319
C157  C     C_R   0.888666 0.893349 0.112732 0.180879
C158  C     C_R   0.261437 0.341157 0.679277 0.309911
C159  C     C_R   0.713417 0.644652 0.288029 0.298328
C160  C     C_R   0.343379 0.723847 0.700451 0.305438
H1    H     H_    0.673960 0.444217 0.427138 0.175365
H2    H     H_    0.338731 0.460677 0.406933 0.174147
H3    H     H_    0.458978 0.663170 0.592272 0.171803
H4    H     H_    0.540694 0.335936 0.408824 0.174667
H5    H     H_    0.335870 0.460638 0.591217 0.172967
H6    H     H_    0.652664 0.529543 0.395946 0.170118
H7    H     H_    0.534089 0.343147 0.598505 0.176122
H8    H     H_    0.464813 0.656856 0.401570 0.172462
H9    H     H_    0.177432 0.938076 0.941404 0.162429
H10   H     H_    0.823480 0.060275 0.062700 0.168024
H11   H     H_    0.940776 0.823605 0.939639 0.157808
H12   H     H_    0.327323 0.552655 0.574991 0.172050
H13   H     H_    0.061187 0.177062 0.053656 0.159222
H14   H     H_    0.828677 0.051408 0.922095 0.164562
H15   H     H_    0.167591 0.953767 0.085916 0.161977
H16   H     H_    0.053425 0.171215 0.920515 0.162359
H17   H     H_    0.947277 0.830993 0.085214 0.166305
H18   H     H_    0.173201 0.050217 0.076187 0.167398
H19   H     H_    0.830692 0.953575 0.916626 0.169743
H20   H     H_    0.955020 0.169661 0.083758 0.175619
H21   H     H_    0.047266 0.827907 0.919707 0.177151
H22   H     H_    0.848155 0.972822 0.102323 0.174157
H23   H     H_    0.446599 0.327030 0.424703 0.169859
H24   H     H_    0.159860 0.034454 0.905102 0.177135
H25   H     H_    0.033718 0.844060 0.097147 0.174177
H26   H     H_    0.962647 0.160607 0.908241 0.174726
H27   H     H_    0.551137 0.671446 0.577881 0.173130
H28   H     H_    0.328564 0.552065 0.420323 0.167793
H29   H     H_    0.672257 0.446171 0.577934 0.165542
H30   H     H_    0.551004 0.669105 0.414292 0.165513
H31   H     H_    0.442245 0.325563 0.569658 0.170749
H32   H     H_    0.657710 0.536281 0.596556 0.171842
N1    N     N_R   0.592620 0.447430 0.448130 -0.065255
N2    N     N_R   0.407380 0.447430 0.448130 -0.064368
N3    N     N_R   0.447430 0.592620 0.551870 -0.062714
N4    N     N_R   0.552570 0.407380 0.448130 -0.062359
N5    N     N_R   0.407380 0.447430 0.551870 -0.063135
N6    N     N_R   0.592620 0.552570 0.448130 -0.060012
N7    N     N_R   0.552570 0.407380 0.551870 -0.062031
N8    N     N_R   0.447430 0.592620 0.448130 -0.062582
N9    N     N_R   0.092620 0.947430 0.948130 -0.062406
N10   N     N_R   0.907380 0.052570 0.051870 -0.064311
N11   N     N_R   0.947430 0.907380 0.948130 -0.061496
N12   N     N_R   0.407380 0.552570 0.551870 -0.065170
N13   N     N_R   0.052570 0.092620 0.051870 -0.060747
N14   N     N_R   0.907380 0.052570 0.948130 -0.063870
N15   N     N_R   0.092620 0.947430 0.051870 -0.064906
N16   N     N_R   0.052570 0.092620 0.948130 -0.063590
N17   N     N_R   0.947430 0.907380 0.051870 -0.064646
N18   N     N_R   0.092620 0.052570 0.051870 -0.061732
N19   N     N_R   0.907380 0.947430 0.948130 -0.063084
N20   N     N_R   0.947430 0.092620 0.051870 -0.062310
N21   N     N_R   0.052570 0.907380 0.948130 -0.061613
N22   N     N_R   0.907380 0.947430 0.051870 -0.062400
N23   N     N_R   0.447430 0.407380 0.448130 -0.064647
N24   N     N_R   0.092620 0.052570 0.948130 -0.065485
N25   N     N_R   0.052570 0.907380 0.051870 -0.065896
N26   N     N_R   0.947430 0.092620 0.948130 -0.065303
N27   N     N_R   0.552570 0.592620 0.551870 -0.064938
N28   N     N_R   0.407380 0.552570 0.448130 -0.064794
N29   N     N_R   0.592620 0.447430 0.551870 -0.063864
N30   N     N_R   0.552570 0.592620 0.448130 -0.062124
N31   N     N_R   0.447430 0.407380 0.551870 -0.064655
N32   N     N_R   0.592620 0.552570 0.551870 -0.062328
Ni1   Ni    Ni4+2 0.591800 0.500000 0.500000 0.259007
Ni2   Ni    Ni4+2 0.408200 0.500000 0.500000 0.254839
Ni3   Ni    Ni4+2 0.500000 0.408200 0.500000 0.255101
Ni4   Ni    Ni4+2 0.500000 0.591800 0.500000 0.261481
Ni5   Ni    Ni4+2 0.091800 0.000000 0.000000 0.248455
Ni6   Ni    Ni4+2 0.908200 0.000000 0.000000 0.255614
Ni7   Ni    Ni4+2 0.000000 0.908200 0.000000 0.251991
Ni8   Ni    Ni4+2 0.000000 0.091800 0.000000 0.249183

loop_
_geom_bond_atom_site_label_1
_geom_bond_atom_site_label_2
_ccdc_geom_bond_type
C47   C127  A    
Br51  C59   S    
C46   C147  A    
Br57  C64   S    
Br61  C69   S    
C62   C138  A    
Br20  C28   S    
N11   N19   A    
C72   N11   A    
C129  C143  S    
Br7   C15   S    
C67   C133  A    
C131  C145  S    
C37   C125  A    
Br49  C56   S    
C103  C121  S    
C72   H11   S    
Br62  C6    S    
N8    Ni4   S    
C85   N24   A    
Br3   C10   S    
C46   H6    S    
C23   C103  A    
C22   C102  A    
C40   C129  A    
Br32  C40   S    
C107  C114  T    
C82   N21   A    
Br39  C47   S    
N28   Ni2   S    
C139  H31   S    
C101  C119  S    
C102  C120  S    
Br37  C44   S    
C110  C120  T    
C9    C44   A    
Br10  C18   S    
Br46  C53   S    
C1    N1    A    
Br12  C159  S    
C34   C123  A    
N19   Ni6   S    
C31   C99   A    
N21   Ni7   S    
C125  C142  S    
N5    Ni2   S    
Br30  C38   S    
Br45  C4    S    
C79   H18   S    
C1    H1    S    
Br38  C45   S    
Br63  C7    S    
C14   C49   A    
C111  C119  T    
C139  N31   A    
C10   C93   A    
C36   C124  A    
N27   N32   A    
N7    Ni3   S    
C68   C145  A    
Br41  C49   S    
C6    C41   A    
N27   Ni4   S    
C12   C91   A    
N17   N22   A    
C84   N23   A    
C21   C101  A    
Br5   C12   S    
C95   H27   S    
C2    C143  A    
Br52  C60   S    
C75   C154  A    
Br21  C29   S    
C20   C55   A    
C32   C98   A    
Br44  C52   S    
C7    C42   A    
N5    N31   A    
C61   C140  A    
N7    N29   A    
C4    C39   A    
C33   C69   A    
C50   C124  A    
Br40  C48   S    
C82   H21   S    
C70   C149  A    
N13   N18   A    
Br17  C25   S    
C58   C137  A    
C27   C103  A    
N18   Ni5   S    
C69   C132  A    
C77   C156  A    
N20   Ni8   S    
Br6   C14   S    
C130  C146  S    
Br58  C65   S    
N22   Ni6   S    
N29   Ni1   S    
C77   N16   A    
N3    N12   A    
C84   C143  A    
C56   C136  A    
Br42  C50   S    
C79   N18   A    
C5    C93   A    
C86   C155  A    
C45   C129  A    
C133  C156  S    
C70   N9    A    
N16   N24   A    
Br22  C30   S    
C35   H5    S    
C87   H26   S    
C73   C142  A    
C41   C130  A    
C104  C122  S    
C150  H32   S    
Br19  C27   S    
C83   H22   S    
C128  N30   A    
C80   C152  A    
C18   C98   A    
C36   C159  A    
C150  N32   A    
C84   H23   S    
C140  C154  S    
C117  C146  A    
C86   N25   A    
C106  N28   A    
C137  C152  S    
C15   C89   A    
C51   C123  A    
N9    Ni5   S    
C71   H10   S    
C106  H28   S    
C57   C146  A    
N14   N26   A    
N11   Ni7   S    
C78   N17   A    
C35   N5    A    
C65   C135  A    
Br2   C9    S    
Br53  C61   S    
C32   C67   A    
C37   C160  A    
N6    N30   A    
Br55  C63   S    
C85   H24   S    
C33   C97   A    
C39   C127  A    
C44   C130  A    
C54   C134  A    
C28   C63   A    
C26   C104  A    
C135  C149  S    
C2    N2    A    
C25   C60   A    
C128  H30   S    
C76   N15   A    
N30   Ni4   S    
N1    N4    A    
C29   C64   A    
N25   Ni7   S    
C23   C59   A    
N26   Ni8   S    
C24   H4    S    
N3    Ni4   S    
C34   C158  A    
C17   C52   A    
Br26  C33   S    
C48   C126  A    
C52   C132  A    
Br56  C5    S    
C13   N3    A    
C105  C115  T    
C57   H7    S    
C88   C158  A    
Br50  C58   S    
C24   C141  A    
Br27  C34   S    
C7    C96   A    
Br54  C62   S    
C92   C110  S    
C55   C135  A    
C73   N12   A    
N15   N25   A    
C113  C121  T    
C74   H13   S    
C3    C91   A    
N17   Ni7   S    
N15   Ni5   S    
Br4   C11   S    
Br47  C54   S    
C74   C153  A    
N10   N20   A    
C22   C58   A    
C71   N10   A    
C95   N27   A    
C78   C157  A    
C117  N29   A    
C132  C157  S    
C68   N8    A    
N2    Ni2   S    
C75   H14   S    
C136  C153  S    
C134  C151  S    
Br60  C67   S    
Br48  C55   S    
C75   N14   A    
N1    Ni1   S    
Br18  C26   S    
C81   N20   A    
Br33  C41   S    
Br24  C31   S    
C14   C90   A    
C109  C116  T    
Br11  C19   S    
C76   H15   S    
C81   H20   S    
Br1   C158  S    
C6    C94   A    
C64   C136  A    
C25   C104  A    
C79   C153  A    
C126  C141  S    
Br13  C20   S    
C16   C51   A    
C2    H2    S    
Br29  C37   S    
N14   Ni6   S    
C73   H12   S    
C117  H29   S    
N16   Ni8   S    
Br15  C22   S    
C13   H3    S    
C77   H16   S    
N8    N28   A    
C87   N26   A    
C30   C100  A    
C83   N22   A    
C19   C99   A    
C144  C150  A    
C17   C97   A    
Br34  C3    S    
N6    Ni1   S    
C42   C131  A    
C49   C125  A    
C11   C47   A    
N10   Ni6   S    
C13   C142  A    
C88   C105  S    
N9    N21   A    
C38   C126  A    
C26   C61   A    
C96   C113  S    
C82   C149  A    
C100  C118  S    
C24   N4    A    
C108  C118  T    
C1    C141  A    
C123  C148  S    
Br25  C32   S    
C18   C53   A    
C97   C114  S    
C74   N13   A    
Br59  C66   S    
C27   C62   A    
C10   C45   A    
C43   C131  A    
C95   C144  A    
C60   C140  A    
C80   N19   A    
C19   C54   A    
C89   C159  A    
C124  C147  S    
C80   H19   S    
N13   Ni8   S    
C76   C155  A    
Br43  C51   S    
C81   C151  A    
C11   C92   A    
C71   C151  A    
C83   C157  A    
Br28  C36   S    
N4    Ni3   S    
C29   C101  A    
Br36  C43   S    
C68   H8    S    
C35   C148  A    
C30   C65   A    
C9    C94   A    
C85   C156  A    
Br31  C39   S    
C138  C155  S    
C21   C56   A    
C128  C147  A    
C31   C66   A    
C8    C43   A    
C12   C48   A    
C89   C107  S    
N24   Ni5   S    
C87   C154  A    
C90   C108  S    
C63   C137  A    
C98   C115  S    
C93   C111  S    
C94   C112  S    
N23   Ni3   S    
N31   Ni3   S    
C139  C148  A    
N12   Ni2   S    
Br16  C23   S    
N2    N23   A    
C53   C133  A    
C86   H25   S    
C5    C40   A    
C16   C88   A    
C59   C138  A    
Br14  C21   S    
C4    C92   A    
C20   C100  A    
C112  C122  T    
C78   H17   S    
C8    C96   A    
N32   Ni1   S    
Br35  C42   S    
C57   N7    A    
C91   C109  S    
C106  C145  A    
C70   H9    S    
C127  C144  S    
Br64  C8    S    
C90   C160  A    
C46   N6    A    
C28   C102  A    
Br23  C160  S    
C15   C50   A    
C99   C116  S    
Br8   C16   S    
C66   C134  A    
C3    C38   A    
Br9   C17   S    
C72   C152  A    
