data_mof_unit_7419.cif
_audit_creation_date              2012-12-11T17:45:30-0500
_audit_creation_method            fapswitch 2.2
_symmetry_space_group_name_H-M    P1
_symmetry_Int_Tables_number       1
_space_group_crystal_system       triclinic
_cell_length_a                    14.962619
_cell_length_b                    14.953493
_cell_length_c                    14.95731
_cell_angle_alpha                 109.478208
_cell_angle_beta                  108.844715
_cell_angle_gamma                 109.394953
_cell_volume                      2598.02948445

loop_
_atom_site_label
_atom_site_type_symbol
_atom_type_description
_atom_site_fract_x
_atom_site_fract_y
_atom_site_fract_z
_atom_type_partial_charge
Br1   Br    Br    0.264315 0.312287 0.698263 -0.588887
C1    C     C_R   0.982774 0.264014 0.074615 -0.127496
C2    C     C_R   0.702748 0.197906 0.794591 -0.156974
C3    C     C_R   0.776019 0.590626 0.022145 -0.146624
C4    C     C_R   0.314433 0.757937 0.223549 -0.140339
C5    C     C_R   0.942388 0.411341 0.685949 -0.056367
C6    C     C_R   0.674489 0.498289 0.947735 0.017941
C7    C     C_R   0.962495 0.505596 0.677361 0.025550
C8    C     C_R   0.699444 0.137069 0.700879 0.059723
C9    C     C_R   0.042813 0.857954 0.050546 0.070504
C10   C     C_R   0.602782 0.164902 0.115197 -0.089356
C11   C     C_R   0.664335 0.267915 0.207818 -0.216858
C12   C     C_R   0.321889 0.786657 0.325148 0.047471
C13   C     C_R   0.765674 0.298346 0.288890 -0.112335
C14   C     C_R   0.804951 0.223215 0.277866 0.563029
C15   C     C_R   0.742738 0.120938 0.183619 -0.277665
C16   C     C_R   0.207489 0.408182 0.902457 -0.113509
C17   C     C_R   0.642292 0.091759 0.102810 -0.180910
C18   C     C_R   0.841945 0.418879 0.482077 -0.146179
C19   C     C_R   0.928181 0.512451 0.578226 0.069404
C20   C     C_R   0.986093 0.606867 0.574859 0.034323
C21   C     C_R   0.951939 0.604060 0.476078 -0.247813
C22   C     C_R   0.891916 0.503243 0.380410 0.070401
C23   C     C_R   0.298532 0.497864 0.929132 0.036419
C24   C     C_R   0.830306 0.409400 0.382807 0.115885
C25   C     C_R   0.119969 0.806738 0.698177 -0.192095
C26   C     C_R   0.226458 0.892021 0.770765 -0.128627
C27   C     C_R   0.310409 0.869853 0.808728 -0.093790
C28   C     C_R   0.988350 0.589932 0.294758 -0.145406
C29   C     C_R   0.288379 0.762005 0.772347 -0.129373
C30   C     C_R   0.182478 0.676313 0.697509 -0.102824
C31   C     C_R   0.096833 0.697927 0.661226 0.114346
C32   C     C_R   0.187596 0.012378 0.391952 -0.109364
C33   C     C_R   0.274722 0.992779 0.404119 -0.122066
C34   C     C_R   0.922754 0.499414 0.295407 0.103910
C35   C     C_R   0.317219 0.967212 0.484588 0.105100
C36   C     C_R   0.272169 0.962642 0.553230 -0.187564
C37   C     C_R   0.184834 0.981845 0.540486 -0.091654
C38   C     C_R   0.142738 0.006966 0.460139 -0.042710
C39   C     C_R   0.507473 0.032961 0.595858 -0.234219
C40   C     C_R   0.298143 0.589568 0.991688 -0.151037
C41   C     C_R   0.605823 0.035583 0.614045 0.059492
C42   C     C_R   0.611236 0.950662 0.542498 0.028866
C43   C     C_R   0.515284 0.866958 0.447778 -0.243492
C44   C     C_R   0.417719 0.868769 0.427079 0.072074
C45   C     C_R   0.687243 0.407769 0.931900 -0.137640
C46   C     C_R   0.413587 0.952379 0.502540 0.021820
C47   C     C_R   0.747359 0.928448 0.486530 -0.153607
C48   C     C_R   0.846466 0.929854 0.510502 -0.070236
C49   C     C_R   0.913158 0.950040 0.613364 -0.085361
C50   C     C_R   0.880629 0.968007 0.692330 -0.118547
C51   C     C_R   0.781555 0.966363 0.668721 -0.141415
C52   C     C_R   0.898941 0.409426 0.205289 -0.084633
C53   C     C_R   0.714390 0.947729 0.565871 0.106933
C54   C     C_3   0.474231 0.377893 0.863644 -0.461716
C55   C     C_3   0.368872 0.377801 0.851923 0.189409
C56   C     C_R   0.029085 0.594069 0.780329 -0.138853
C57   C     C_3   0.584781 0.549139 0.048099 -0.394325
C58   C     C_3   0.543579 0.560830 0.875959 -0.393465
C59   C     C_3   0.571209 0.496414 0.932592 0.344542
C60   C     C_3   0.394225 0.496208 0.922903 0.291044
C61   C     C_3   0.479283 0.541554 0.041698 -0.474830
C62   C     C_3   0.443858 0.569587 0.879486 -0.361033
C63   C     C_R   0.365965 0.209148 0.987522 -0.128516
C64   C     C_R   0.218908 0.748135 0.312677 -0.108455
C65   C     C_R   0.269128 0.156290 0.986476 -0.176486
C66   C     C_R   0.255596 0.203252 0.075991 0.120364
C67   C     C_R   0.790571 0.198029 0.699370 -0.132763
C68   C     C_R   0.338015 0.306117 0.164490 -0.114139
C69   C     C_R   0.435190 0.358668 0.165462 -0.135765
C70   C     C_R   0.449458 0.309286 0.077662 -0.125161
C71   C     C_R   0.152123 0.037575 0.076523 -0.236213
C72   C     C_R   0.065220 0.969140 0.080823 0.044522
C73   C     C_R   0.000499 0.008692 0.112292 -0.006945
C74   C     C_R   0.021574 0.112154 0.132079 -0.133436
C75   C     C_R   0.090977 0.169559 0.102765 0.031741
C76   C     C_R   0.070652 0.255490 0.979192 -0.131165
C77   C     C_R   0.164243 0.136869 0.084459 0.021515
C78   C     C_R   0.993087 0.797871 0.088882 -0.133276
C79   C     C_R   0.799168 0.894265 0.009369 -0.147606
C80   C     C_R   0.699981 0.849529 0.007543 -0.158761
C81   C     C_R   0.697404 0.847638 0.099556 -0.136137
C82   C     C_R   0.794244 0.894440 0.194846 -0.117639
C83   C     C_R   0.893596 0.944392 0.198569 -0.087184
C84   C     C_R   0.896967 0.941858 0.104992 0.091867
C85   C     C_R   0.059270 0.236718 0.061493 0.054641
C86   C     C_R   0.082582 0.800533 0.995742 -0.151737
H1    H     H_    0.955747 0.264179 0.133074 0.123569
H2    H     H_    0.524806 0.141874 0.052596 0.121848
H3    H     H_    0.633964 0.324747 0.216900 0.140321
H4    H     H_    0.379845 0.777866 0.204578 0.099758
H5    H     H_    0.772781 0.064209 0.172367 0.192432
H6    H     H_    0.794141 0.347503 0.483770 0.126286
H7    H     H_    0.994569 0.678584 0.476969 0.124532
H8    H     H_    0.055913 0.825253 0.669023 0.108851
H9    H     H_    0.244189 0.975237 0.795954 0.103944
H10   H     H_    0.392693 0.936214 0.865178 0.093717
H11   H     H_    0.353612 0.744758 0.800784 0.103990
H12   H     H_    0.055643 0.678559 0.804615 0.121019
H13   H     H_    0.167173 0.593144 0.667572 0.130893
H14   H     H_    0.076000 0.023101 0.451630 0.130464
H15   H     H_    0.176042 0.323547 0.846701 0.132674
H16   H     H_    0.155721 0.032751 0.330306 0.125910
H17   H     H_    0.309557 0.998249 0.351644 0.118586
H18   H     H_    0.304861 0.944273 0.616481 0.129166
H19   H     H_    0.150419 0.978145 0.593498 0.107934
H20   H     H_    0.504537 0.100118 0.650245 0.136376
H21   H     H_    0.516235 0.800655 0.389994 0.127194
H22   H     H_    0.697490 0.914431 0.406961 0.110905
H23   H     H_    0.817429 0.171242 0.641608 0.131117
H24   H     H_    0.872053 0.915976 0.449630 0.095779
H25   H     H_    0.990066 0.951839 0.631893 0.089872
H26   H     H_    0.932306 0.983486 0.771971 0.112603
H27   H     H_    0.009409 0.673564 0.341378 0.089097
H28   H     H_    0.757530 0.980287 0.730872 0.112314
H29   H     H_    0.487424 0.329435 0.903760 0.131341
H30   H     H_    0.467604 0.337324 0.782641 0.198873
H31   H     H_    0.332896 0.323739 0.881103 0.092659
H32   H     H_    0.612558 0.510165 0.094238 0.155733
H33   H     H_    0.447871 0.488630 0.073730 0.183338
H34   H     H_    0.976090 0.825593 0.154209 0.095592
H35   H     H_    0.614342 0.642480 0.916039 0.166560
H36   H     H_    0.525085 0.518753 0.790090 0.182808
H37   H     H_    0.382775 0.545267 0.797282 0.195077
H38   H     H_    0.354069 0.673494 0.020477 0.088739
H39   H     H_    0.469651 0.655732 0.933135 0.137088
H40   H     H_    0.647888 0.636803 0.095498 0.167226
H41   H     H_    0.496587 0.624412 0.095910 0.166834
H42   H     H_    0.525607 0.347926 0.079662 0.099838
H43   H     H_    0.377260 0.171615 0.919546 0.102084
H44   H     H_    0.205635 0.077137 0.917802 0.108412
H45   H     H_    0.139895 0.831085 0.969795 0.100514
H46   H     H_    0.329303 0.342698 0.234754 0.119771
H47   H     H_    0.500249 0.436566 0.235047 0.112627
H48   H     H_    0.208478 0.012248 0.062485 0.132511
H49   H     H_    0.967414 0.136776 0.151506 0.160746
H50   H     H_    0.838702 0.326077 0.169113 0.097696
H51   H     H_    0.800062 0.896352 0.937948 0.115664
H52   H     H_    0.624965 0.815999 0.934611 0.115298
H53   H     H_    0.620677 0.812424 0.098048 0.109332
H54   H     H_    0.792239 0.895426 0.266772 0.113057
H55   H     H_    0.967846 0.985809 0.274330 0.127032
H56   H     H_    0.650340 0.170185 0.826478 0.094300
H57   H     H_    0.195490 0.755335 0.374777 0.116295
H58   H     H_    0.121297 0.240894 0.945336 0.109589
H59   H     H_    0.626063 0.322879 0.881707 0.097836
H60   H     H_    0.084325 0.400204 0.501624 0.381998
H61   H     H_    0.794138 0.674558 0.056061 0.115728
H62   H     H_    0.891671 0.327655 0.621907 0.144498
H63   H     H_    0.595098 0.012324 0.030518 0.131056
N1    N     N_R   0.947080 0.293830 0.002870 -0.046312
N2    N     N_R   0.153670 0.443180 0.946090 -0.042418
N3    N     N_R   0.002360 0.556820 0.208890 -0.042061
N4    N     N_R   0.210070 0.556820 0.002870 -0.035880
N5    N     N_R   0.945960 0.443180 0.152110 -0.049850
N6    N     N_R   0.151710 0.706170 0.208890 -0.044239
N7    N     N_R   0.004320 0.293830 0.946090 -0.041224
N8    N     N_R   0.789930 0.443180 0.997130 -0.040592
N9    N     N_R   0.054040 0.556820 0.847890 -0.041547
N10   N     N_R   0.848290 0.293830 0.791110 -0.045807
N11   N     N_R   0.995680 0.706170 0.053910 -0.039062
N12   N     N_R   0.052920 0.706170 0.997130 -0.039864
N13   N     N_R   0.791050 0.293830 0.847890 -0.037229
N14   N     N_R   0.846330 0.556820 0.053910 -0.040351
N15   N     N_R   0.997640 0.443180 0.791110 -0.046119
N16   N     N_R   0.208950 0.706170 0.152110 -0.040648
Ni1   Ni    Ni4+2 0.869690 0.369690 0.000000 0.207393
Ni2   Ni    Ni4+2 0.130310 0.630310 0.000000 0.216304
Ni3   Ni    Ni4+2 0.000970 0.369690 0.869780 0.241356
Ni4   Ni    Ni4+2 0.999030 0.630310 0.130220 0.207681
O1    O     O_2   0.913713 0.232120 0.463907 -0.327772
O2    O     O_2   0.973280 0.184593 0.330161 -0.320485
O3    O     O_3   0.024188 0.386153 0.436148 -0.549076
S1    S     S_3+6 0.931046 0.254587 0.378536 -0.071352

loop_
_geom_bond_atom_site_label_1
_geom_bond_atom_site_label_2
_ccdc_geom_bond_type
C27   H10   S    
C57   C61   S    
C39   C46   A    
C12   C44   S    
C54   C55   S    
C10   C17   A    
C25   C31   A    
C23   C60   S    
C76   H58   S    
C34   C52   A    
C72   C73   A    
N14   Ni4   S    
C18   C19   A    
C42   C43   A    
C4    C12   A    
N11   N12   A    
C12   C64   A    
O3    S1    S    
C47   C53   A    
C78   H34   S    
C8    C41   S    
C7    C19   S    
C52   H50   S    
N1    N7    A    
C11   H3    S    
C35   C36   A    
Br1   C55   S    
C75   C77   A    
C40   N4    A    
C64   N6    A    
C37   C38   A    
C9    C72   S    
N1    Ni1   S    
C54   H29   S    
C57   C59   S    
C14   C15   A    
C3    H61   S    
C1    N1    A    
N9    Ni2   S    
C35   C46   S    
C63   C70   A    
C60   C62   S    
C17   H63   S    
C71   C77   A    
C28   H27   S    
N7    Ni3   S    
C5    H62   S    
C32   C38   A    
C82   C83   A    
N5    Ni1   S    
N3    Ni4   S    
C81   H53   S    
N10   Ni3   S    
C3    N14   A    
C1    H1    S    
C69   C70   A    
C83   H55   S    
N3    N5    A    
C61   H33   S    
C18   H6    S    
N8    N14   A    
C48   H24   S    
C58   H35   S    
C44   C46   A    
C47   H22   S    
C56   N9    A    
C5    N15   A    
C58   C59   S    
C73   C84   S    
C54   C59   S    
N16   Ni2   S    
C23   C40   A    
C21   H7    S    
N4    Ni2   S    
C26   H9    S    
C68   C69   A    
C66   C77   S    
C36   C37   A    
C78   N11   A    
C3    C6    A    
O1    S1    D    
C58   H36   S    
C51   C53   A    
N8    Ni1   S    
C80   C81   A    
C43   H21   S    
N15   Ni3   S    
C20   C31   S    
C9    C86   A    
C16   C23   A    
C73   C74   A    
C50   C51   A    
N10   N13   A    
C40   H38   S    
C2    H56   S    
C83   C84   A    
C82   H54   S    
C64   H57   S    
C74   H49   S    
C71   C72   A    
C71   H48   S    
C5    C7    A    
C4    N16   A    
C33   H17   S    
N9    N15   A    
C66   C68   A    
C63   C65   A    
C86   H45   S    
C37   H19   S    
N13   Ni1   S    
C16   H15   S    
C6    C45   A    
C36   H18   S    
C79   C84   A    
C2    C8    A    
C7    C56   A    
C70   H42   S    
C45   N8    A    
C10   H2    S    
C42   C53   S    
C39   C41   A    
C30   C31   A    
N6    N16   A    
C9    C78   A    
C38   H14   S    
C49   H25   S    
C49   C50   A    
C25   C26   A    
C55   C60   S    
C67   H23   S    
C30   H13   S    
C4    H4    S    
C39   H20   S    
N12   Ni2   S    
N11   Ni4   S    
C47   C48   A    
N2    N4    A    
C76   C85   A    
C15   H5    S    
C22   C34   S    
C48   C49   A    
C16   N2    A    
C41   C42   A    
C75   C85   S    
C6    C59   S    
C43   C44   A    
C28   N3    A    
C65   H44   S    
C54   H30   S    
C51   H28   S    
C25   H8    S    
C80   H52   S    
C28   C34   A    
C74   C75   A    
C68   H46   S    
C45   H59   S    
C14   S1    S    
C32   H16   S    
C55   H31   S    
C50   H26   S    
C21   C22   A    
C11   C13   A    
C79   C80   A    
C10   C11   A    
H60   O3    S    
C52   N5    A    
C1    C85   A    
C2    N13   A    
C29   H11   S    
C58   C62   S    
C27   C29   A    
C8    C67   A    
C67   N10   A    
C62   H37   S    
C61   H41   S    
N2    Ni3   S    
C29   C30   A    
C79   H51   S    
N6    Ni4   S    
C57   H32   S    
O2    S1    D    
C32   C33   A    
C65   C66   A    
C33   C35   A    
C22   C24   A    
C13   C24   S    
C60   C61   S    
C18   C24   A    
C62   H39   S    
C57   H40   S    
C86   N12   A    
C19   C20   A    
C15   C17   A    
C81   C82   A    
C63   H43   S    
C26   C27   A    
C69   H47   S    
C13   C14   A    
C20   C21   A    
C76   N7    A    
C56   H12   S    
