data_mof_unit_51387.cif
_audit_creation_date              2013-03-05T16:18:15-0500
_audit_creation_method            fapswitch 2.2
_symmetry_space_group_name_H-M    P1
_symmetry_Int_Tables_number       1
_space_group_crystal_system       triclinic
_cell_length_a                    8.379141
_cell_length_b                    19.136937
_cell_length_c                    22.986069
_cell_angle_alpha                 101.38474
_cell_angle_beta                  90.451814
_cell_angle_gamma                 92.028646
_cell_volume                      3610.63710692

loop_
_atom_site_label
_atom_site_type_symbol
_atom_site_description
_atom_site_fract_x
_atom_site_fract_y
_atom_site_fract_z
_atom_type_partial_charge
P1    P     P_3+3 0.933470 0.664380 0.557030 0.505499
O1    O     O_2   0.108070 0.674980 0.540650 -0.367064
O2    O     O_3   0.861930 0.586170 0.535430 -0.340919
O3    O     O_3   0.366390 0.628250 0.433820 -0.335467
O4    O     O_2   0.272454 0.751322 0.494152 -0.431074
O5    O     O_3   0.939208 0.685551 0.634598 -0.541787
O6    O     O_3   0.325843 0.749513 0.382032 -0.552879
H1    H     H_    0.346145 0.651971 0.324415 0.134138
C1    C     C_3   0.373020 0.739031 0.278226 -0.779370
H2    H     H_    0.245371 0.733079 0.264303 0.274527
H3    H     H_    0.411304 0.796526 0.287343 0.257958
P2    P     P_3+3 0.383600 0.440030 0.365120 0.578916
P3    P     P_3+3 0.943311 0.584069 0.324733 0.515653
O7    O     O_2   0.211060 0.461230 0.357810 -0.346062
O8    O     O_3   0.958150 0.591500 0.402390 -0.315206
O9    O     O_2   0.072989 0.533541 0.295801 -0.380110
O10   O     O_3   0.356566 0.348116 0.335247 -0.558737
O11   O     O_3   0.999867 0.666229 0.307368 -0.513723
C2    C     C_3   0.931694 0.720492 0.349040 0.289626
H4    H     H_    0.989422 0.724393 0.393479 0.094269
H5    H     H_    0.800777 0.710369 0.352672 0.032081
C3    C     C_3   0.959193 0.791943 0.329927 -0.117410
H6    H     H_    0.088546 0.807133 0.332473 0.152215
C4    C     C_3   0.918790 0.352178 0.329660 0.798678
H7    H     H_    0.957968 0.404757 0.355850 0.095460
C5    C     C_3   0.789088 0.363039 0.285262 -0.985574
H8    H     H_    0.678498 0.379435 0.308268 0.204006
H9    H     H_    0.828717 0.404869 0.260444 0.245468
H10   H     H_    0.763658 0.312588 0.252491 0.271573
Ba1   Ba    Ba6+2 0.157290 0.533910 0.474710 1.681562
C6    C     C_3   0.005204 0.630290 0.657320 0.379952
H11   H     H_    0.115758 0.612311 0.633881 0.096289
H12   H     H_    0.917200 0.584749 0.653145 0.099393
C7    C     C_3   0.045755 0.658530 0.722650 -0.815257
H13   H     H_    0.123652 0.707594 0.727548 0.277464
H14   H     H_    0.110040 0.618726 0.741839 0.207538
C8    C     C_3   0.448982 0.305404 0.363750 0.811841
H15   H     H_    0.562900 0.333219 0.378221 0.044460
C9    C     C_3   0.486345 0.236020 0.320318 -0.854695
H16   H     H_    0.387574 0.220284 0.286429 0.300751
H17   H     H_    0.503075 0.191377 0.344900 0.226629
H18   H     H_    0.600851 0.242454 0.296613 0.228659
P4    P     P_3+3 0.876840 0.335610 0.442930 0.536765
O12   O     O_2   0.702240 0.324970 0.459330 -0.369778
O13   O     O_3   0.948380 0.413820 0.464520 -0.348882
O14   O     O_3   0.443920 0.371740 0.566130 -0.329331
O15   O     O_3   0.857110 0.305007 0.365069 -0.605828
P5    P     P_3+3 0.862483 0.419552 0.675134 0.463498
O16   O     O_3   0.358830 0.538360 0.571050 -0.379756
O17   O     O_3   0.852160 0.408490 0.597560 -0.397644
O18   O     O_2   0.706601 0.454340 0.698970 -0.395785
O19   O     O_3   0.844393 0.337093 0.697042 -0.505838
Ba2   Ba    Ba6+2 0.652900 0.466090 0.525240 1.640815
P6    P     P_3+3 0.390106 0.720935 0.445661 0.426282
C10   C     C_3   0.399120 0.707353 0.333025 0.365532
H19   H     H_    0.530244 0.705775 0.340238 0.056697
H20   H     H_    0.444105 0.710269 0.241210 0.279557
O20   O     O_3   0.451480 0.461630 0.428900 -0.303609
C11   C     C_3   0.479064 0.685495 0.629538 0.240703
H21   H     H_    0.604732 0.671125 0.619818 0.099504
H22   H     H_    0.404769 0.671366 0.588337 0.084899
C12   C     C_3   0.473080 0.766299 0.650974 -0.104015
H23   H     H_    0.509425 0.792991 0.614115 0.063399
H24   H     H_    0.348166 0.780428 0.662593 0.139654
P7    P     P_3+3 0.418293 0.558375 0.646200 0.473785
O21   O     O_2   0.599240 0.538720 0.642170 -0.345598
O22   O     O_3   0.418251 0.650561 0.673294 -0.539878
H25   H     H_    0.898910 0.833879 0.360987 0.058714
C13   C     C_3   0.895394 0.283191 0.651180 0.282961
H26   H     H_    0.827784 0.282524 0.609189 0.094053
H27   H     H_    0.024766 0.291273 0.644536 0.021302
C14   C     C_3   0.865108 0.210605 0.668071 -0.099279
H28   H     H_    0.734186 0.199969 0.670270 0.158290
H29   H     H_    0.912946 0.167798 0.633432 0.069278
P8    P     P_3+3 0.402892 0.282002 0.568233 0.490777
C15   C     C_3   0.414916 0.315206 0.681615 0.341359
H30   H     H_    0.282463 0.315418 0.679927 0.072538
O23   O     O_2   0.513683 0.241030 0.520820 -0.381114
O24   O     O_3   0.473677 0.263856 0.635249 -0.535698
H31   H     H_    0.464624 0.369045 0.679183 0.136387
H32   H     H_    0.426152 0.340505 0.777614 0.226509
C16   C     C_3   0.465364 0.298153 0.740866 -0.715501
H33   H     H_    0.596989 0.295837 0.743860 0.272855
H34   H     H_    0.411296 0.245804 0.745927 0.281529
C17   C     C_R   0.948041 0.198610 0.467734 -0.212499
H35   H     H_    0.872458 0.178098 0.429456 0.154709
C18   C     C_R   0.977879 0.273113 0.482503 0.321976
C19   C     C_R   0.134358 0.183309 0.544762 -0.346756
H36   H     H_    0.190065 0.152702 0.573584 0.166182
C20   C     C_R   0.191772 0.253729 0.547641 0.249995
C21   C     C_R   0.656929 0.817737 0.461160 -0.369556
H37   H     H_    0.577773 0.846358 0.439317 0.158675
C22   C     C_R   0.589956 0.754111 0.472619 0.246917
C23   C     C_R   0.893894 0.799713 0.515933 -0.278075
H38   H     H_    0.004780 0.816984 0.539160 0.172221
C24   C     C_R   0.827854 0.732152 0.523285 0.279729
C25   C     C_R   0.015312 0.151967 0.502092 0.080513
C26   C     C_R   0.097309 0.300128 0.524166 -0.325849
H39   H     H_    0.129121 0.356490 0.532824 0.160287
C27   C     C_R   0.812059 0.844234 0.481785 0.082902
C28   C     C_R   0.671805 0.714754 0.506104 -0.358026
H40   H     H_    0.613639 0.668474 0.517911 0.158220
C29   C     C_R   0.251517 0.036842 0.502163 -0.162415
C30   C     C_R   0.359647 0.987488 0.513290 -0.116730
C31   C     C_R   0.313129 0.916310 0.504198 -0.057026
C32   C     C_R   0.159801 0.894830 0.483388 -0.153288
C33   C     C_R   0.039450 0.943911 0.485326 0.053956
C34   C     C_R   0.086362 0.018535 0.493823 0.115289
C35   C     C_R   0.879084 0.918755 0.471485 -0.076031
C36   C     C_R   0.783531 0.969063 0.450064 0.091082
C37   C     C_R   0.814198 0.043944 0.470304 0.084024
C38   C     C_R   0.970181 0.071199 0.490944 -0.054475
C39   C     C_R   0.671487 0.948885 0.403044 -0.176962
C40   C     C_R   0.563495 0.997376 0.389522 -0.061191
C41   C     C_R   0.566150 0.066496 0.422801 -0.114057
C42   C     C_R   0.688273 0.089007 0.464523 -0.209149
H41   H     H_    0.302083 0.088142 0.498599 0.155173
H42   H     H_    0.482566 0.003727 0.524996 0.146550
H43   H     H_    0.397998 0.877713 0.510655 0.144731
H44   H     H_    0.135325 0.840010 0.463156 0.178567
H45   H     H_    0.669629 0.896390 0.374990 0.141997
H46   H     H_    0.475140 0.980705 0.354512 0.142323
H47   H     H_    0.476360 0.103172 0.415288 0.162153
H48   H     H_    0.687683 0.142437 0.490125 0.175603
H49   H     H_    0.319265 0.326782 0.041233 0.185745
C43   C     C_R   0.637510 0.524005 0.333711 -0.006945
C44   C     C_R   0.383592 0.557353 0.947015 -0.067939
C45   C     C_R   0.339025 0.553052 0.887005 0.539361
O25   O     O_2   0.354157 0.605955 0.864912 -0.558282
N1    N     N_R   0.276258 0.489815 0.853304 -0.171702
C46   C     C_R   0.254504 0.430128 0.878557 0.513244
O26   O     O_2   0.195452 0.375021 0.849046 -0.549376
C47   C     C_R   0.301026 0.432279 0.938174 -0.061145
C48   C     C_R   0.365317 0.496431 0.972571 -0.010090
C49   C     C_R   0.445692 0.621308 0.982120 -0.097012
C50   C     C_R   0.488748 0.624801 0.041449 -0.086280
C51   C     C_R   0.472380 0.564291 0.067468 -0.060412
C52   C     C_R   0.411083 0.499790 0.032850 -0.014227
C53   C     C_R   0.285265 0.371735 0.964189 -0.089004
C54   C     C_R   0.332775 0.374750 0.023123 -0.089304
C55   C     C_R   0.395724 0.438647 0.058212 -0.071339
C56   C     C_R   0.444408 0.442662 0.117915 0.550044
N2    N     N_R   0.501691 0.506758 0.152313 -0.166595
C57   C     C_R   0.515546 0.567126 0.127390 0.534175
C58   C     C_2   0.079898 0.470937 0.771705 -0.134765
C59   C     C_3   0.034257 0.478197 0.709220 0.172271
C60   C     C_1   0.310955 0.506258 0.693003 0.262311
C61   C     C_2   0.354762 0.505063 0.748436 -0.213408
C62   C     C_2   0.232704 0.486842 0.791394 0.107788
C63   C     C_R   0.699932 0.541831 0.235352 -0.210711
C64   C     C_R   0.743436 0.548726 0.295204 0.072806
C65   C     C_R   0.493064 0.488944 0.313876 0.092295
C66   C     C_R   0.447056 0.483654 0.254094 -0.188805
C67   C     C_R   0.549186 0.510958 0.214194 0.109659
O27   O     O_2   0.437925 0.388777 0.138942 -0.551403
O28   O     O_2   0.564707 0.623729 0.157536 -0.574007
C68   C     C_2   0.178374 0.472741 0.669962 -0.509450
H50   H     H_    0.535585 0.675202 0.066880 0.189125
H51   H     H_    0.783532 0.559808 0.205266 0.194383
H52   H     H_    0.460875 0.669094 0.963856 0.186097
H53   H     H_    0.477121 0.518677 0.763301 0.181096
H54   H     H_    0.987576 0.460427 0.802057 0.161572
H55   H     H_    0.333665 0.457688 0.238549 0.224571
H56   H     H_    0.171227 0.445890 0.623727 0.156337
H57   H     H_    0.934610 0.671303 0.747902 0.275891
N3    N     N_R   0.360600 0.290126 0.414252 0.222790
O29   O     O_R   0.270206 0.232097 0.409320 -0.437505
O30   O     O_R   0.333564 0.343600 0.456629 -0.391381
N4    N     N_R   0.577845 0.793007 0.702404 0.290109
O31   O     O_R   0.666220 0.750662 0.725571 -0.325381
O32   O     O_R   0.584259 0.860911 0.725115 -0.325225
N5    N     N_R   0.940561 0.208766 0.725172 0.300073
O33   O     O_R   0.853121 0.200168 0.770008 -0.317749
O34   O     O_R   0.095611 0.213554 0.731104 -0.366591
H58   H     H_    0.236876 0.321549 0.938904 0.189943
N6    N     N_R   0.684586 0.527990 0.393305 0.256836
O35   O     O_R   0.658100 0.584813 0.432540 -0.408215
O36   O     O_R   0.764284 0.477348 0.407977 -0.369708
N7    N     N_R   0.897044 0.788910 0.269923 0.293940
O37   O     O_R   0.991818 0.801993 0.228463 -0.337879
O38   O     O_R   0.745219 0.776767 0.258282 -0.378370
N8    N     N_R   0.053025 0.319757 0.295059 0.248734
O39   O     O_R   0.119176 0.352249 0.255910 -0.370060
O40   O     O_R   0.086170 0.253489 0.294598 -0.341996

loop_
_geom_bond_atom_site_label_1
_geom_bond_atom_site_label_2
_geom_bond_distance
_ccdc_geom_bond_type
C10   H19   1.112211 S    
C28   H40   1.077965 S    
O2    Ba1   2.958342 S    
C33   C35   1.423228 A    
N4    O31   1.302008 A    
P2    C65   1.869890 S    
Ba1   O13   2.810122 S    
C53   H58   1.083020 S    
C60   C61   1.327966 D    
C15   O24   1.404655 S    
O6    C10   1.408583 S    
C45   O25   1.222221 D    
H32   C16   1.109645 S    
C49   C50   1.396039 A    
C9    H17   1.125431 S    
C59   C68   1.507437 S    
C17   H35   1.080089 S    
C5    H8    1.095253 S    
C12   H23   1.111470 S    
O16   P7    1.758019 S    
P3    O11   1.747578 S    
C66   H55   1.080940 S    
C61   H53   1.084536 S    
C14   N5    1.459594 S    
C2    H5    1.113837 S    
C4    C5    1.532344 S    
C7    H13   1.110874 S    
P5    O19   1.750641 S    
C13   H26   1.112977 S    
N2    C57   1.388932 Am   
C58   H54   1.085599 S    
C41   C42   1.393778 A    
C26   H39   1.080771 S    
Ba1   O20   2.967478 S    
O11   C2    1.407154 S    
C13   H27   1.105623 S    
N8    O39   1.306903 A    
C30   C31   1.378322 A    
P6    C22   1.828745 S    
C12   H24   1.111714 S    
O19   C13   1.402497 S    
P8    C20   1.861206 S    
C11   O22   1.402708 S    
C36   C37   1.429963 A    
C43   C65   1.391402 A    
O12   Ba2   2.869339 S    
P4    Ba2   3.443564 S    
P5    O18   1.542172 D    
C37   C38   1.431669 A    
P7    O22   1.751117 S    
P5    C59   1.861650 S    
P2    O10   1.763309 S    
C33   C34   1.442563 A    
C44   C48   1.409583 A    
C37   C42   1.407876 A    
C1    C10   1.519357 S    
C56   O27   1.221925 D    
P7    C60   1.826566 S    
C7    H57   1.110238 S    
C1    H2    1.109496 S    
C1    H20   1.108144 S    
C19   C25   1.423623 A    
C18   C26   1.392358 A    
C50   H50   1.083057 S    
P5    O17   1.754715 S    
O5    C6    1.397090 S    
O13   Ba2   2.959251 S    
C11   H21   1.110973 S    
C24   C28   1.373183 A    
N3    O30   1.293712 A    
N4    O32   1.300314 A    
C29   H41   1.073721 S    
O7    Ba1   2.818840 S    
H1    C10   1.114426 S    
O14   P8    1.749545 S    
N5    O34   1.303352 A    
C58   C59   1.517361 S    
C9    H18   1.122049 S    
C30   H42   1.081538 S    
C15   H30   1.110394 S    
C17   C18   1.411699 A    
H49   C54   1.083042 S    
Ba1   Ba2   4.602150 S    
C11   H22   1.111401 S    
O17   Ba2   2.752464 S    
C41   H47   1.082435 S    
C63   H51   1.082498 S    
C4    N8    1.466747 S    
P1    O5    1.748595 S    
O4    P6    1.534413 D    
C3    N7    1.460076 S    
C2    C3    1.527175 S    
C54   C55   1.407910 A    
P3    C64   1.855723 S    
C14   H29   1.111964 S    
C15   C16   1.521903 S    
C21   H37   1.058796 S    
C25   C38   1.548686 S    
C50   C51   1.407424 A    
N2    C67   1.460043 S    
P2    Ba1   3.420380 S    
O3    Ba1   2.772097 S    
C34   C38   1.436167 A    
P1    O2    1.576189 S    
C57   O28   1.220957 D    
C13   C14   1.527807 S    
P4    O12   1.530308 D    
C8    H15   1.092809 S    
C21   C22   1.395494 A    
P4    O13   1.576161 S    
C43   C64   1.393927 A    
C6    H11   1.106362 S    
C36   C39   1.411450 A    
C23   C27   1.452274 A    
Ba2   O20   2.759682 S    
N1    C62   1.455995 S    
C6    H12   1.110353 S    
C6    C7    1.523512 S    
O10   C8    1.394712 S    
C32   C33   1.397274 A    
C4    H7    1.103170 S    
C23   C24   1.429496 A    
Ba2   O21   2.818961 S    
C1    H3    1.113710 S    
C68   H56   1.085503 S    
C3    H25   1.103229 S    
C29   C34   1.417575 A    
N6    O35   1.295416 A    
C51   C57   1.411449 A    
C19   C20   1.403680 A    
C47   C53   1.407610 A    
C16   H34   1.112266 S    
P3    O8    1.765504 S    
C47   C48   1.409181 A    
C21   C27   1.421343 A    
C22   C28   1.373732 A    
C46   O26   1.221660 D    
C60   C68   1.316135 D    
C9    H16   1.123391 S    
C43   N6    1.409242 S    
N5    O33   1.302438 A    
O8    Ba1   2.751741 S    
C39   C40   1.394789 A    
C51   C52   1.407676 A    
C12   N4    1.463803 S    
C11   C12   1.530227 S    
C49   H52   1.083003 S    
C42   H48   1.074559 S    
O3    P6    1.744485 S    
C63   C64   1.400007 A    
C4    O15   1.417077 S    
Ba1   O16   2.760319 S    
C3    H6    1.110251 S    
C32   H44   1.072170 S    
C15   H31   1.109444 S    
P2    O7    1.532185 D    
C14   H28   1.112002 S    
C46   C47   1.414126 A    
C52   C55   1.409014 A    
C45   N1    1.385499 Am   
C48   C52   1.423276 A    
C53   C54   1.398549 A    
C40   C41   1.390499 A    
C8    N3    1.453860 S    
C31   C32   1.386975 A    
C5    H9    1.113974 S    
O1    Ba1   2.868585 S    
P4    C18   1.861083 S    
C2    H4    1.114690 S    
N1    C46   1.386899 Am   
P2    O20   1.540986 S    
C8    C9    1.539072 S    
C35   C36   1.430333 A    
O2    Ba2   2.810568 S    
N3    O29   1.307347 A    
P4    O15   1.774280 S    
P1    C24   1.880025 S    
O16   Ba2   2.966540 S    
P1    O1    1.530066 D    
O14   Ba2   2.771618 S    
N6    O36   1.292377 A    
P1    Ba1   3.442957 S    
C7    H14   1.105837 S    
C61   C62   1.506403 S    
P7    O21   1.574072 D    
C23   H38   1.076265 S    
C44   C49   1.406488 A    
P8    O23   1.547401 D    
N8    O40   1.305811 A    
C17   C25   1.430064 A    
N7    O37   1.301366 A    
C40   H46   1.081669 S    
C27   C35   1.576050 S    
C39   H45   1.080870 S    
C19   H36   1.080542 S    
C5    H10   1.113881 S    
C16   H33   1.107501 S    
C63   C67   1.416019 A    
P3    O9    1.545920 D    
C29   C30   1.389487 A    
C56   N2    1.389076 Am   
C31   H43   1.073352 S    
C65   C66   1.407536 A    
O6    P6    1.747094 S    
C66   C67   1.420000 A    
C55   C56   1.415270 A    
P8    O24   1.748339 S    
C20   C26   1.392212 A    
C58   C62   1.358579 D    
C44   C45   1.412022 A    
N7    O38   1.301211 A    
