data_mof_unit_51593.cif
_audit_creation_date              2012-12-10T17:34:29-0500
_audit_creation_method            fapswitch 2.2
_symmetry_space_group_name_H-M    P1
_symmetry_Int_Tables_number       1
_space_group_crystal_system       triclinic
_cell_length_a                    12.373699
_cell_length_b                    13.22408
_cell_length_c                    14.336678
_cell_angle_alpha                 78.153231
_cell_angle_beta                  100.834959
_cell_angle_gamma                 116.809171
_cell_volume                      2036.91539535

loop_
_atom_site_label
_atom_site_type_symbol
_atom_type_description
_atom_site_fract_x
_atom_site_fract_y
_atom_site_fract_z
_atom_type_partial_charge
C1    C     C_R   0.854811 0.286208 0.511484 0.785396
C2    C     C_1   0.999538 0.500081 0.228876 -0.198029
C3    C     C_R   0.289844 0.998299 0.574510 -0.274927
C4    C     C_R   0.230095 0.833235 0.496143 -0.210151
C5    C     C_R   0.813990 0.101085 0.466200 -0.295566
C6    C     C_R   0.737455 0.988695 0.452211 -0.189251
C7    C     C_R   0.617242 0.938860 0.472990 0.587085
C8    C     C_R   0.571375 0.002172 0.509730 -0.022386
C9    C     C_R   0.656290 0.110172 0.537486 0.017038
C10   C     C_R   0.445893 0.964100 0.520768 0.101516
C11   C     C_R   0.412530 0.026959 0.569825 0.080667
C12   C     C_R   0.999993 0.499675 0.668668 0.802726
C13   C     C_R   0.501939 0.118900 0.613159 -0.189771
C14   C     C_R   0.622454 0.160493 0.596878 -0.159651
C15   C     C_R   0.351758 0.867925 0.483184 -0.256007
C16   C     C_R   0.198021 0.905406 0.533059 0.468806
C17   C     C_R   0.774775 0.163286 0.508490 -0.092974
C18   C     C_R   0.353059 0.345723 0.661121 -0.311228
C19   C     C_R   0.759306 0.640651 0.371556 0.067175
C20   C     C_R   0.663092 0.670863 0.340168 -0.267394
C21   C     C_R   0.559747 0.618719 0.388671 -0.101201
C22   C     C_R   0.553084 0.537377 0.470844 -0.002149
C23   C     C_R   0.145411 0.713336 0.488879 0.815933
C24   C     C_R   0.655083 0.510941 0.501171 0.292674
C25   C     C_R   0.449451 0.480733 0.523849 -0.021820
C26   C     C_R   0.453396 0.404631 0.608619 0.174048
C27   C     C_R   0.557132 0.386842 0.640128 -0.285377
C28   C     C_R   0.652919 0.434262 0.584844 -0.172843
C29   C     C_R   0.341644 0.496314 0.497294 0.062522
C30   C     C_R   0.249250 0.363313 0.630265 0.080094
C31   C     C_R   0.999935 0.500223 0.331336 0.799026
C32   C     C_1   0.000123 0.499492 0.771135 -0.186427
C33   C     C_1   0.999987 0.499463 0.856599 -0.003309
C34   C     C_1   0.999757 0.499541 0.957294 0.006067
C35   C     C_1   0.999589 0.499675 0.042729 0.004680
C36   C     C_1   0.999480 0.499890 0.143418 -0.010372
Cu1   Cu    Cu3+1 0.098280 0.475420 0.520190 0.941983
Cu2   Cu    Cu3+1 0.901720 0.524580 0.479810 0.942389
H1    H     H_    0.563059 0.332781 0.706967 0.144734
H2    H     H_    0.355035 0.286722 0.725535 0.138196
H3    H     H_    0.331587 0.554800 0.435655 0.126003
H4    H     H_    0.838724 0.680756 0.332830 0.121346
H5    H     H_    0.487418 0.644545 0.360991 0.161552
H6    H     H_    0.668306 0.734194 0.277733 0.147514
H7    H     H_    0.723383 0.407821 0.609880 0.188727
H8    H     H_    0.477257 0.159212 0.658463 0.139989
H9    H     H_    0.264860 0.049876 0.608239 0.156054
H10   H     H_    0.368855 0.816970 0.443529 0.230824
H11   H     H_    0.903961 0.140421 0.442928 0.187713
H12   H     H_    0.770620 0.939966 0.423236 0.162173
H13   H     H_    0.690286 0.230144 0.633181 0.121260
H14   H     H_    0.171696 0.319639 0.671120 0.129885
N1    N     N_R   0.246290 0.438200 0.550780 -0.182867
N2    N     N_R   0.754310 0.561180 0.449760 -0.195038
O1    O     O_R   0.972510 0.318130 0.525390 -0.580170
O2    O     O_R   0.806530 0.359650 0.491290 -0.580973
O3    O     O_R   0.083010 0.479240 0.641000 -0.559233
O4    O     O_R   0.917030 0.520750 0.606900 -0.571853
O5    O     O_R   0.193470 0.640350 0.508710 -0.560346
O6    O     O_R   0.027490 0.681870 0.474610 -0.558598
O7    O     O_R   0.082970 0.479250 0.393100 -0.568353
O8    O     O_R   0.916990 0.520760 0.359000 -0.567306
O9    O     O_3   0.077983 0.884386 0.533212 -0.592287
C37   C     C_3   0.032138 0.917308 0.439465 0.098061
H15   H     H_    0.052273 0.882793 0.383480 0.123281
H16   H     H_    0.931428 0.878965 0.436652 0.168701
C38   C     C_3   0.079889 0.047929 0.415614 -0.398581
H17   H     H_    0.058519 0.081187 0.471374 0.229472
H18   H     H_    0.180359 0.088247 0.415296 0.220663
C39   C     C_3   0.024431 0.082242 0.316945 -0.920388
H19   H     H_    0.051918 0.055074 0.260439 0.259012
H20   H     H_    0.057509 0.176656 0.303382 0.265009
H21   H     H_    0.923557 0.042245 0.312706 0.250368
F1    F     F_    0.552199 0.826601 0.463713 -0.713539

loop_
_geom_bond_atom_site_label_1
_geom_bond_atom_site_label_2
_ccdc_geom_bond_type
C31   O7    A    
C19   C20   A    
C18   C26   A    
C7    C8    A    
C23   O5    A    
C26   C27   A    
C1    O2    A    
C10   C15   A    
C5    C6    A    
C5    C17   A    
C24   N2    A    
C34   C35   T    
C18   H2    S    
Cu2   O4    S    
C35   C36   S    
C27   H1    S    
C8    C9    A    
C22   C25   A    
C39   H19   S    
C18   C30   A    
C16   O9    S    
C19   H4    S    
Cu1   N1    S    
C21   H5    S    
C13   C14   A    
C12   C32   S    
C31   O8    A    
C5    H11   S    
C15   H10   S    
C20   H6    S    
C7    F1    S    
C25   C29   A    
C23   O6    A    
C30   N1    A    
C28   H7    S    
C38   H17   S    
C37   C38   S    
C4    C23   S    
C25   C26   A    
C2    C31   S    
C38   H18   S    
C37   H16   S    
C4    C16   A    
C9    C14   A    
Cu1   Cu2   S    
C14   H13   S    
Cu2   N2    S    
C39   H21   S    
C33   C34   S    
C6    H12   S    
Cu1   O5    S    
Cu2   O6    S    
C12   O3    A    
C19   N2    A    
C9    C17   A    
C22   C24   A    
C2    C36   T    
C30   H14   S    
C29   H3    S    
C24   C28   A    
Cu1   O7    S    
C6    C7    A    
C1    C17   S    
C38   C39   S    
C32   C33   T    
C4    C15   A    
C1    O1    A    
C12   O4    A    
C37   H15   S    
C11   C13   A    
C13   H8    S    
C29   N1    A    
C3    H9    S    
C3    C11   A    
C10   C11   A    
O9    C37   S    
Cu1   O1    S    
Cu2   O2    S    
C20   C21   A    
C8    C10   A    
C27   C28   A    
C39   H20   S    
C21   C22   A    
Cu1   O3    S    
C3    C16   A    
Cu2   O8    S    
