data_mof_unit_31105.cif
_audit_creation_date              2013-03-05T16:09:37-0500
_audit_creation_method            fapswitch 2.2
_symmetry_space_group_name_H-M    P1
_symmetry_Int_Tables_number       1
_space_group_crystal_system       triclinic
_cell_length_a                    14.522173
_cell_length_b                    7.277739
_cell_length_c                    13.641214
_cell_angle_alpha                 90.000736
_cell_angle_beta                  99.5831
_cell_angle_gamma                 90.001031
_cell_volume                      1421.60165713

loop_
_atom_site_label
_atom_site_type_symbol
_atom_site_description
_atom_site_fract_x
_atom_site_fract_y
_atom_site_fract_z
_atom_type_partial_charge
O1    O     O_R   0.398210 0.494340 0.401550 -0.583649
O2    O     O_R   0.601790 0.994340 0.598450 -0.583651
O3    O     O_R   0.586310 0.821730 0.403360 -0.540211
O4    O     O_R   0.413690 0.321730 0.596640 -0.540200
C1    C     C_R   0.615509 0.656488 0.381991 0.849582
C2    C     C_R   0.384491 0.156490 0.618009 0.849598
O5    O     O_R   0.397970 0.823900 0.389580 -0.585119
O6    O     O_R   0.602030 0.323900 0.610420 -0.585117
O7    O     O_R   0.412100 0.996500 0.584560 -0.580662
O8    O     O_R   0.587900 0.496500 0.415440 -0.580680
C3    C     C_R   0.364469 0.655319 0.363963 0.951731
C4    C     C_R   0.635530 0.155322 0.636037 0.951725
O9    O     O_3   0.504860 0.661550 0.563990 -0.250613
O10   O     O_3   0.495140 0.161550 0.436010 -0.250638
V1    V     V_3+5 0.499100 0.935510 0.488130 1.246987
V2    V     V_3+5 0.500900 0.435510 0.511870 1.246994
C5    C     C_1   0.717918 0.144869 0.714527 -0.225188
C6    C     C_1   0.282083 0.644865 0.285473 -0.225206
C7    C     C_1   0.786211 0.134501 0.780545 -0.225899
C8    C     C_1   0.213789 0.634503 0.219454 -0.225905
C9    C     C_3   0.248687 0.309273 0.832840 -0.478777
C10   C     C_3   0.751289 0.809226 0.167132 -0.478768
H1    H     H_    0.201696 0.429581 0.815554 0.198106
H2    H     H_    0.798271 0.929560 0.184402 0.198087
H3    H     H_    0.279946 0.322885 0.912393 0.126028
H4    H     H_    0.720018 0.822788 0.087575 0.126034
C11   C     C_3   0.325219 0.314086 0.766033 0.344400
C12   C     C_3   0.674765 0.814042 0.233950 0.344417
H5    H     H_    0.393574 0.295326 0.814612 0.003593
H6    H     H_    0.606407 0.795246 0.185380 0.003605
H7    H     H_    0.093398 0.266437 0.692670 0.173347
H8    H     H_    0.906584 0.766536 0.307312 0.173362
H9    H     H_    0.197212 0.268987 0.581129 0.196037
H10   H     H_    0.802780 0.769037 0.418867 0.196038
C13   C     C_3   0.138851 0.142557 0.704237 -0.390748
C14   C     C_3   0.861150 0.642618 0.295761 -0.390717
C15   C     C_3   0.253786 0.958282 0.823313 -0.102550
C16   C     C_3   0.746231 0.458230 0.176710 -0.102533
C17   C     C_3   0.188825 0.132700 0.814536 0.013016
C18   C     C_3   0.811173 0.632688 0.185462 0.012987
H11   H     H_    0.206991 0.841861 0.794645 0.154329
H12   H     H_    0.793040 0.341840 0.205398 0.154347
C19   C     C_3   0.313013 0.151657 0.689195 -0.098477
C20   C     C_3   0.686987 0.651647 0.310805 -0.098522
C21   C     C_3   0.211003 0.148798 0.631372 -0.310891
C22   C     C_3   0.788998 0.648839 0.368627 -0.310863
C23   C     C_3   0.325794 0.973463 0.751009 -0.404793
C24   C     C_3   0.674218 0.473422 0.249009 -0.404741
H13   H     H_    0.399251 0.962307 0.790076 0.164413
H14   H     H_    0.600763 0.462237 0.209940 0.164428
H15   H     H_    0.313828 0.858826 0.697951 0.271016
H16   H     H_    0.686185 0.358805 0.302080 0.271013
H17   H     H_    0.092359 0.021326 0.686488 0.153821
H18   H     H_    0.907663 0.521419 0.313524 0.153793
H19   H     H_    0.200969 0.025802 0.582255 0.156840
H20   H     H_    0.799044 0.525851 0.417748 0.156815
O11   O     O_R   0.912140 0.786650 0.084610 -0.591759
O12   O     O_R   0.087860 0.286650 0.915390 -0.591751
O13   O     O_R   0.102040 0.454810 0.110430 -0.585812
O14   O     O_R   0.897960 0.954810 0.889570 -0.585822
C25   C     C_R   0.133706 0.623758 0.138156 0.946875
C26   C     C_R   0.866294 0.123756 0.861843 0.946861
O15   O     O_R   0.913690 0.457060 0.096650 -0.603650
O16   O     O_R   0.086310 0.957060 0.903350 -0.603641
O17   O     O_R   0.898200 0.284560 0.901540 -0.573681
O18   O     O_R   0.101800 0.784560 0.098460 -0.573679
C27   C     C_R   0.883721 0.624951 0.116242 0.878208
C28   C     C_R   0.116277 0.124954 0.883756 0.878210
O19   O     O_3   0.995160 0.617270 0.936040 -0.287960
O20   O     O_3   0.004840 0.117270 0.063960 -0.287966
V3    V     V_3+5 0.000900 0.343280 0.011870 1.154295
V4    V     V_3+5 0.999100 0.843280 0.988130 1.154295
N1    N     N_R   0.326743 0.494306 0.719178 0.228526
O21   O     O_R   0.254406 0.555469 0.658685 -0.478116
O22   O     O_R   0.403616 0.589585 0.733648 -0.448535
N2    N     N_R   0.673239 0.994278 0.280790 0.228547
O23   O     O_R   0.745575 0.055461 0.341281 -0.478134
O24   O     O_R   0.596371 0.089561 0.266302 -0.448601
C29   C     C_R   0.302224 0.903831 0.927426 0.154637
C30   C     C_R   0.280804 0.732939 0.966252 -0.097062
C31   C     C_R   0.336046 0.660581 0.050955 -0.157269
C32   C     C_R   0.409485 0.763208 0.102536 -0.067139
C33   C     C_R   0.429611 0.936130 0.067417 -0.103346
C34   C     C_R   0.377436 0.005103 0.979993 -0.180216
H21   H     H_    0.222418 0.653205 0.929718 0.106358
H22   H     H_    0.321235 0.525144 0.077160 0.114943
H23   H     H_    0.450570 0.708120 0.169507 0.084451
H24   H     H_    0.487383 0.015308 0.105944 0.165238
H25   H     H_    0.399647 0.133019 0.952303 0.115386
C35   C     C_R   0.697797 0.403701 0.072603 0.154628
C36   C     C_R   0.719254 0.232801 0.033795 -0.097091
C37   C     C_R   0.664003 0.160362 0.949105 -0.157145
C38   C     C_R   0.590516 0.262921 0.897516 -0.067147
C39   C     C_R   0.570358 0.435852 0.932615 -0.103418
C40   C     C_R   0.622549 0.504904 0.020029 -0.180106
H26   H     H_    0.777678 0.153125 0.070329 0.106387
H27   H     H_    0.678845 0.024921 0.922914 0.114923
H28   H     H_    0.549423 0.207774 0.830551 0.084402
H29   H     H_    0.512545 0.514971 0.894082 0.165130
H30   H     H_    0.600324 0.632825 0.047708 0.115377

loop_
_geom_bond_atom_site_label_1
_geom_bond_atom_site_label_2
_geom_bond_distance
_ccdc_geom_bond_type
C3    C6    1.468710 S    
C38   C39   1.394833 A    
C13   H17   1.112854 S    
H9    C21   1.108726 S    
C17   C28   1.528398 S    
O1    C3    1.338628 A    
O2    C4    1.338621 A    
C2    O7    1.336271 A    
C31   C32   1.393002 A    
C35   C40   1.410689 A    
C23   H13   1.113220 S    
O5    C3    1.344401 A    
C15   C29   1.528496 S    
H8    C14   1.113036 S    
C10   H2    1.111047 S    
N2    O24   1.301007 A    
C16   H12   1.115432 S    
C29   C34   1.410520 A    
O12   V3    2.012501 S    
C11   H5    1.106412 S    
O14   V4    1.991563 S    
C7    C26   1.469397 S    
C32   H23   1.081587 S    
O14   C26   1.344776 A    
N1    O21   1.301540 A    
C8    C25   1.469393 S    
C36   H26   1.078751 S    
C25   O18   1.339380 A    
O18   V4    1.981107 S    
C18   C27   1.528399 S    
C4    C5    1.468713 S    
C14   C22   1.560359 S    
O20   V3    1.788906 S    
H10   C22   1.108727 S    
C15   C23   1.556257 S    
C16   C24   1.556268 S    
C31   H22   1.082218 S    
O5    V1    1.991597 S    
C33   H24   1.079493 S    
C9    C11   1.550557 S    
O6    V2    1.991634 S    
C10   C12   1.550559 S    
N1    O22   1.301015 A    
O11   C27   1.341887 A    
C20   C22   1.558243 S    
C37   H27   1.082301 S    
O15   C27   1.338857 A    
O13   C25   1.344768 A    
C14   C18   1.559558 S    
N2    O23   1.301547 A    
O4    C2    1.323674 A    
C36   C37   1.395606 A    
C40   H30   1.074261 S    
C23   H15   1.099192 S    
O17   V3    1.981086 S    
C12   C20   1.570206 S    
O4    V2    2.028408 S    
O19   V4    1.788887 S    
C13   C17   1.559522 S    
C30   H21   1.078558 S    
C33   C34   1.395518 A    
C9    C17   1.548256 S    
O6    C4    1.344408 A    
C10   C18   1.548276 S    
O1    V2    1.981103 S    
O2    V1    1.981083 S    
C19   C21   1.558233 S    
O12   C28   1.341874 A    
C1    C20   1.535339 S    
O15   V3    2.028508 S    
C2    C19   1.535336 S    
C9    H1    1.111017 S    
H7    C13   1.112996 S    
C34   H25   1.074216 S    
C12   N2    1.460833 S    
O16   C28   1.338866 A    
O3    V1    2.028416 S    
C9    H3    1.108837 S    
C26   O17   1.339371 A    
C30   C31   1.395484 A    
O3    C1    1.323690 A    
C16   C35   1.528536 S    
C12   H6    1.106417 S    
O7    V1    2.019151 S    
C1    O8    1.336259 A    
C15   C17   1.574180 S    
O8    V2    2.019149 S    
C16   C18   1.574223 S    
C35   C36   1.406848 A    
C39   H29   1.079726 S    
C24   H14   1.113227 S    
C37   C38   1.393289 A    
C5    C7    1.225947 T    
C6    C8    1.225946 T    
O16   V4    2.028499 S    
O11   V4    2.012501 S    
C15   H11   1.115403 S    
C39   C40   1.395691 A    
C14   H18   1.112890 S    
C29   C30   1.406751 A    
C11   C19   1.570208 S    
C24   H16   1.099204 S    
C21   H19   1.113059 S    
C32   C33   1.394750 A    
C10   H4    1.108904 S    
O9    V2    1.789238 S    
C22   H20   1.113064 S    
O10   V1    1.789258 S    
C11   N1    1.460831 S    
C19   C23   1.541178 S    
C38   H28   1.081720 S    
C20   C24   1.541202 S    
O13   V3    1.991527 S    
C13   C21   1.560354 S    
