data_mof_unit_22737.cif
_audit_creation_date              2012-12-10T18:10:53-0500
_audit_creation_method            fapswitch 2.2
_symmetry_space_group_name_H-M    P1
_symmetry_Int_Tables_number       1
_space_group_crystal_system       triclinic
_cell_length_a                    12.631458
_cell_length_b                    13.07455
_cell_length_c                    15.743755
_cell_angle_alpha                 90.60681
_cell_angle_beta                  102.702032
_cell_angle_gamma                 82.279219
_cell_volume                      2512.98123571

loop_
_atom_site_label
_atom_site_type_symbol
_atom_type_description
_atom_site_fract_x
_atom_site_fract_y
_atom_site_fract_z
_atom_type_partial_charge
C1    C     C_R   0.438883 0.691469 0.492471 0.839054
C2    C     C_R   0.599202 0.201084 0.532930 -0.057458
C3    C     C_R   0.303212 0.838624 0.426125 -0.186362
C4    C     C_R   0.501011 0.500226 0.661423 0.884797
C5    C     C_R   0.277161 0.943697 0.406590 -0.142090
C6    C     C_R   0.351628 0.010794 0.441409 -0.185647
C7    C     C_R   0.451938 0.973515 0.498852 0.080979
C8    C     C_R   0.467394 0.871375 0.530775 0.096398
C9    C     C_R   0.534745 0.036035 0.529428 0.066124
C10   C     C_R   0.614011 0.006411 0.607305 0.130665
C11   C     C_R   0.619517 0.909558 0.645487 -0.209424
C12   C     C_3   0.392560 0.463476 0.029267 -0.515434
C13   C     C_R   0.548959 0.841527 0.606301 -0.210963
C14   C     C_R   0.541635 0.127433 0.485839 0.123867
C15   C     C_R   0.673823 0.174283 0.611862 -0.245739
C16   C     C_R   0.561218 0.308867 0.510879 0.868139
C17   C     C_R   0.400024 0.801736 0.486360 -0.109176
C18   C     C_R   0.086681 0.349204 0.377169 -0.372924
C19   C     C_R   0.799710 0.629726 0.602764 -0.097649
C20   C     C_R   0.904244 0.657943 0.624889 0.597319
C21   C     C_R   0.985855 0.608539 0.586327 -0.298659
C22   C     C_R   0.962926 0.529915 0.525335 -0.042577
C23   C     C_3   0.499246 0.498611 0.082771 0.134301
C24   C     C_R   0.854875 0.503866 0.505270 0.193927
C25   C     C_R   0.042153 0.476774 0.483205 0.035932
C26   C     C_R   0.011181 0.400171 0.421377 0.089668
C27   C     C_R   0.905098 0.375215 0.403930 -0.210627
C28   C     C_R   0.499057 0.499622 0.338559 0.892686
C29   C     C_R   0.828446 0.425833 0.445853 -0.148055
C30   C     C_R   0.151438 0.496400 0.499403 -0.169337
C31   C     C_R   0.192476 0.373658 0.394872 0.758567
C32   C     C_3   0.390850 0.468140 0.930496 -0.019999
C33   C     C_3   0.514974 0.609931 0.955719 -0.026313
C34   C     C_3   0.598833 0.423247 0.067485 0.471585
C35   C     C_3   0.507627 0.609137 0.052798 -0.361932
C36   C     C_1   0.497174 0.498759 0.249296 -0.143967
C37   C     C_3   0.502299 0.499546 0.917650 0.250655
C38   C     C_3   0.505746 0.141650 0.387803 -0.900365
C39   C     C_3   0.287831 0.538108 0.881033 -0.883781
C40   C     C_3   0.619842 0.652209 0.945037 -0.908487
C41   C     C_3   0.599295 0.308364 0.935618 -1.011017
C42   C     C_3   0.599222 0.419975 0.968810 -0.084099
C43   C     C_1   0.497317 0.498435 0.173979 -0.021511
C44   C     C_1   0.503583 0.500149 0.826037 -0.057712
C45   C     C_1   0.503249 0.500398 0.750670 -0.191725
C46   C     C_R   0.685293 0.075070 0.646637 -0.179338
F1    F     F_    0.695747 0.454033 0.113822 -0.674318
F2    F     F_    0.265699 0.327193 0.350761 -0.684761
F3    F     F_    0.926449 0.733171 0.683515 -0.669478
H1    H     H_    0.320330 0.512615 0.044737 0.222883
H2    H     H_    0.555576 0.766942 0.637634 0.152356
H3    H     H_    0.881112 0.316111 0.357541 0.162460
H4    H     H_    0.063828 0.291565 0.329058 0.175974
H5    H     H_    0.182905 0.551939 0.545844 0.159479
H6    H     H_    0.736116 0.667444 0.632774 0.158739
H7    H     H_    0.065422 0.633562 0.605306 0.170018
H8    H     H_    0.748826 0.402314 0.430317 0.205488
H9    H     H_    0.446277 0.665963 0.919452 0.179412
H10   H     H_    0.434053 0.662369 0.060838 0.151663
H11   H     H_    0.579614 0.638358 0.095297 0.228700
H12   H     H_    0.382221 0.389902 0.903799 0.185549
H13   H     H_    0.677705 0.442769 0.959646 0.220686
H14   H     H_    0.594249 0.345156 0.092955 0.100160
H15   H     H_    0.571654 0.170414 0.362055 0.229138
H16   H     H_    0.491408 0.067722 0.354861 0.248574
H17   H     H_    0.431106 0.198600 0.369823 0.304287
H18   H     H_    0.287871 0.544814 0.810834 0.251672
H19   H     H_    0.213519 0.503808 0.885991 0.254808
H20   H     H_    0.280803 0.616400 0.908838 0.247886
H21   H     H_    0.615809 0.734306 0.964551 0.246635
H22   H     H_    0.694501 0.609194 0.986774 0.282761
H23   H     H_    0.387317 0.382922 0.048547 0.168583
H24   H     H_    0.627711 0.649250 0.876195 0.249298
H25   H     H_    0.529944 0.272694 0.949626 0.243599
H26   H     H_    0.595850 0.305783 0.864596 0.269937
H27   H     H_    0.676289 0.260277 0.968907 0.269423
H28   H     H_    0.719614 0.231111 0.648135 0.168839
H29   H     H_    0.679473 0.885764 0.704830 0.170339
H30   H     H_    0.744303 0.054505 0.707137 0.158985
H31   H     H_    0.249352 0.786074 0.392601 0.161760
H32   H     H_    0.328730 0.091899 0.424837 0.182926
H33   H     H_    0.201317 0.972651 0.361653 0.152975
N1    N     N_R   0.222200 0.444690 0.455710 -0.149788
N2    N     N_R   0.776960 0.554780 0.543830 -0.159851
O1    O     O_R   0.366740 0.627160 0.478850 -0.619012
O2    O     O_R   0.544830 0.662520 0.507140 -0.606253
O3    O     O_R   0.410920 0.482310 0.608710 -0.615068
O4    O     O_R   0.589010 0.517670 0.637000 -0.620118
O5    O     O_R   0.455170 0.337480 0.492860 -0.564380
O6    O     O_R   0.633260 0.372840 0.521150 -0.644467
O7    O     O_R   0.410990 0.482330 0.363000 -0.558325
O8    O     O_R   0.589080 0.517690 0.391290 -0.622297
Zn1   Zn    Zn3+2 0.381090 0.476390 0.481110 0.992750
Zn2   Zn    Zn3+2 0.618910 0.523610 0.518890 0.937083

loop_
_geom_bond_atom_site_label_1
_geom_bond_atom_site_label_2
_ccdc_geom_bond_type
C16   O6    A    
C33   H9    S    
C40   H22   S    
C27   C29   A    
C39   H19   S    
C19   C20   A    
C18   C26   A    
C34   F1    S    
C23   C43   S    
C7    C8    A    
C4    O3    A    
C27   H3    S    
C30   H5    S    
C12   C23   S    
C26   C27   A    
C8    C13   A    
C40   H21   S    
C5    C6    A    
C32   H12   S    
C46   H30   S    
O7    Zn1   S    
N1    Zn1   S    
C30   N1    A    
C31   N1    A    
C40   H24   S    
C35   H10   S    
C41   C42   S    
C32   C39   S    
C37   C42   S    
C24   C29   A    
O2    Zn2   S    
C18   H4    S    
C41   H25   S    
C13   H2    S    
O1    Zn1   S    
C38   H17   S    
C22   C25   A    
C34   C42   S    
C10   C46   A    
C2    C16   S    
C9    C10   A    
C42   H13   S    
C12   H23   S    
C16   O5    A    
C6    H32   S    
C21   C22   A    
C12   C32   S    
C3    H31   S    
O6    Zn2   S    
C38   H15   S    
C4    C45   S    
C1    O1    A    
O4    Zn2   S    
C33   C40   S    
C25   C30   A    
C25   C26   A    
C33   C37   S    
C35   H11   S    
C9    C14   A    
C20   F3    S    
C11   H29   S    
C41   H26   S    
C38   H16   S    
C23   C34   S    
O8    Zn2   S    
C39   H20   S    
C28   O8    A    
N2    Zn2   S    
C32   C37   S    
C2    C15   A    
C29   H8    S    
C23   C35   S    
C31   F2    S    
C22   C24   A    
C14   C38   S    
C44   C45   T    
C19   H6    S    
C1    O2    A    
C7    C9    A    
C39   H18   S    
C3    C5    A    
C21   H7    S    
C12   H1    S    
C6    C7    A    
C4    O4    A    
C1    C17   S    
C8    C17   A    
C37   C44   S    
C24   N2    A    
C41   H27   S    
C5    H33   S    
C11   C13   A    
C15   H28   S    
O3    Zn1   S    
C34   H14   S    
C33   C35   S    
C3    C17   A    
C28   O7    A    
O5    Zn1   S    
C2    C14   A    
C10   C11   A    
C20   C21   A    
C28   C36   S    
C36   C43   T    
C18   C31   A    
C15   C46   A    
C19   N2    A    
