data_mof_unit_22198.cif
_audit_creation_date              2012-12-10T17:53:18-0500
_audit_creation_method            fapswitch 2.2
_symmetry_space_group_name_H-M    P1
_symmetry_Int_Tables_number       1
_space_group_crystal_system       triclinic
_cell_length_a                    23.438184
_cell_length_b                    10.634595
_cell_length_c                    9.915929
_cell_angle_alpha                 91.375337
_cell_angle_beta                  89.641826
_cell_angle_gamma                 93.311681
_cell_volume                      2466.73320393

loop_
_atom_site_label
_atom_site_type_symbol
_atom_type_description
_atom_site_fract_x
_atom_site_fract_y
_atom_site_fract_z
_atom_type_partial_charge
C1    C     C_R   0.510517 0.264261 0.498643 0.956382
C2    C     C_R   0.966304 0.284160 0.538113 -0.146580
C3    C     C_R   0.025488 0.287827 0.544883 -0.136358
C4    C     C_R   0.057490 0.403343 0.540422 -0.018475
C5    C     C_R   0.029804 0.517309 0.530961 -0.048024
C6    C     C_R   0.061908 0.634651 0.527193 -0.045588
C7    C     C_R   0.032487 0.748024 0.518650 0.153120
C8    C     C_R   0.972737 0.740923 0.511576 -0.131317
C9    C     C_R   0.116867 0.407176 0.542346 0.618593
C10   C     C_R   0.122080 0.632009 0.529904 0.622892
C11   C     C_R   0.241011 0.521155 0.640853 0.420893
C12   C     C_R   0.389187 0.502106 0.500139 1.013958
C13   C     C_R   0.299737 0.515897 0.630010 -0.246314
C14   C     C_R   0.326561 0.508000 0.502965 -0.276523
C15   C     C_R   0.292901 0.507572 0.384290 0.320100
C16   C     C_R   0.233510 0.512678 0.396164 0.355040
C17   C     C_R   0.207971 0.518959 0.524176 0.051974
C18   C     C_R   0.760439 0.481264 0.623330 -0.098100
C19   C     C_R   0.701301 0.480553 0.621607 -0.214576
C20   C     C_R   0.672729 0.498700 0.500147 -0.031084
C21   C     C_R   0.704041 0.516383 0.380263 -0.192816
C22   C     C_R   0.763344 0.517493 0.382490 -0.095025
C23   C     C_R   0.499352 0.741499 0.502496 0.896934
C24   C     C_R   0.791356 0.500287 0.504101 0.316122
C25   C     C_R   0.557249 0.139627 0.735656 -0.144218
C26   C     C_R   0.553977 0.085321 0.861624 -0.101240
C27   C     C_R   0.524983 0.968723 0.876183 -0.141887
C28   C     C_R   0.504165 0.901373 0.762537 -0.165808
C29   C     C_R   0.513649 0.948801 0.630910 0.115284
C30   C     C_R   0.533158 0.075286 0.621425 0.072602
C31   C     C_R   0.526841 0.134938 0.497698 -0.217603
C32   C     C_R   0.524996 0.063656 0.377545 0.386344
C33   C     C_R   0.513908 0.936038 0.383329 -0.242660
C34   C     C_R   0.610581 0.500033 0.499728 0.848160
C35   C     C_R   0.505286 0.877742 0.507809 -0.182927
C36   C     C_R   0.436418 0.315097 0.144483 -0.012482
C37   C     C_R   0.416035 0.204111 0.083679 -0.181566
C38   C     C_R   0.418869 0.191102 0.946067 -0.166835
C39   C     C_R   0.436862 0.293700 0.867637 0.411154
C40   C     C_R   0.468559 0.402784 0.927552 0.058793
C41   C     C_R   0.468674 0.406751 0.072690 0.148525
C42   C     C_R   0.529865 0.589741 0.073047 -0.085045
C43   C     C_R   0.529672 0.590051 0.930184 -0.128166
C44   C     C_R   0.881764 0.618359 0.504954 0.518026
C45   C     C_R   0.878604 0.394028 0.518432 0.508653
C46   C     C_R   0.938083 0.395982 0.526905 -0.005370
C47   C     C_R   0.969780 0.512931 0.523988 -0.011676
C48   C     C_R   0.941403 0.625008 0.513250 -0.059070
H1    H     H_    0.942826 0.193469 0.540990 0.193240
H2    H     H_    0.678081 0.465995 0.715251 0.164356
H3    H     H_    0.682863 0.530606 0.285530 0.166581
H4    H     H_    0.787588 0.532202 0.290326 0.144040
H5    H     H_    0.578953 0.231879 0.727658 0.150643
H6    H     H_    0.572188 0.136191 0.948108 0.202177
H7    H     H_    0.518951 0.929762 0.975486 0.173116
H8    H     H_    0.479274 0.815498 0.782192 0.179584
H9    H     H_    0.512317 0.882821 0.288702 0.196709
H10   H     H_    0.554461 0.663115 0.128055 0.140281
H11   H     H_    0.046094 0.199705 0.552478 0.188768
H12   H     H_    0.426145 0.325973 0.248357 0.219177
H13   H     H_    0.394995 0.130649 0.142962 0.191828
H14   H     H_    0.398491 0.106342 0.900543 0.204179
H15   H     H_    0.554180 0.663390 0.878019 0.147303
H16   H     H_    0.950472 0.827019 0.504238 0.193148
H17   H     H_    0.324285 0.517907 0.722294 0.244986
H18   H     H_    0.782399 0.468093 0.717277 0.142854
N1    N     N_R   0.852031 0.504172 0.507624 -0.360119
N2    N     N_R   0.147391 0.519715 0.534993 -0.321034
N3    N     N_R   0.499460 0.498800 0.142780 -0.106454
N4    N     N_R   0.499440 0.498720 0.857170 -0.111837
O1    O     O_R   0.500000 0.316780 0.614690 -0.596160
O2    O     O_2   0.847418 0.283315 0.520674 -0.539212
O3    O     O_2   0.144286 0.299285 0.549395 -0.509127
O4    O     O_2   0.155640 0.739110 0.525697 -0.522265
O5    O     O_R   0.500000 0.316750 0.385360 -0.599294
O6    O     O_R   0.416160 0.499970 0.614690 -0.570917
O7    O     O_R   0.416150 0.499950 0.385360 -0.601853
O8    O     O_R   0.500000 0.683250 0.614640 -0.640104
O9    O     O_R   0.500000 0.683220 0.385310 -0.620695
O10   O     O_R   0.583850 0.500050 0.614640 -0.640735
O11   O     O_R   0.583840 0.500030 0.385310 -0.613308
O12   O     O_2   0.853514 0.724859 0.495362 -0.542416
Zn1   Zn    Zn3+2 0.500000 0.500020 0.653130 0.977029
Zn2   Zn    Zn3+2 0.500000 0.499980 0.346870 0.998314
Cl1   Cl    Cl    0.541076 0.127447 0.218836 -0.688740
Cl2   Cl    Cl    0.395546 0.280183 0.721013 -0.576665
C49   C     C_3   0.062358 0.877783 0.516102 -0.703430
H19   H     H_    0.087665 0.895835 0.609543 0.275744
H20   H     H_    0.090281 0.886299 0.425567 0.280170
H21   H     H_    0.031684 0.953352 0.511155 0.193310
Cl3   Cl    Cl    0.209372 0.529529 0.802019 -0.446181
Cl4   Cl    Cl    0.322500 0.501103 0.219723 -0.491110
Cl5   Cl    Cl    0.190039 0.510060 0.250885 -0.432095

loop_
_geom_bond_atom_site_label_1
_geom_bond_atom_site_label_2
_ccdc_geom_bond_type
C49   H19   S    
C10   O4    S    
C19   C20   A    
C42   H10   S    
C28   H8    S    
C43   H15   S    
C7    C8    A    
C13   H17   S    
C45   C46   A    
C2    C46   A    
C5    C47   A    
C16   Cl5   S    
C29   C30   A    
C40   N4    A    
C18   C24   A    
C41   N3    A    
C36   C37   A    
C25   H5    S    
C44   O12   S    
C5    C6    A    
C27   H7    S    
O5    Zn2   S    
C15   C16   A    
C1    C31   S    
C18   C19   A    
C24   N1    S    
C34   O10   A    
C15   Cl4   S    
O8    Zn1   S    
C11   C17   A    
C47   C48   A    
C16   C17   A    
C45   N1    A    
C34   O11   A    
C20   C34   S    
C21   C22   A    
C45   O2    S    
O9    Zn2   S    
C36   C41   A    
C9    O3    S    
O10   Zn1   S    
C26   H6    S    
O6    Zn1   S    
O1    Zn1   S    
C38   C39   A    
C7    C49   S    
C1    O5    A    
C39   C40   A    
O7    Zn2   S    
C25   C26   A    
C42   N3    A    
C8    C48   A    
C37   C38   A    
C2    H1    S    
C31   C32   A    
C12   O7    A    
C26   C27   A    
C1    O1    A    
N4    Zn1   S    
C8    H16   S    
C40   C41   A    
C12   C14   S    
C43   N4    A    
C23   C35   S    
C49   H20   S    
C22   C24   A    
C42   C43   A    
C3    C4    A    
C21   H3    S    
O11   Zn2   S    
C22   H4    S    
C25   C30   A    
C46   C47   A    
C28   C29   A    
C17   N2    S    
C33   H9    S    
C4    C5    A    
C36   H12   S    
C6    C10   A    
C37   H13   S    
C6    C7    A    
C10   N2    A    
C18   H18   S    
C29   C35   A    
C32   C33   A    
C12   O6    A    
C2    C3    A    
C9    N2    A    
N3    Zn2   S    
C11   C13   A    
C19   H2    S    
C30   C31   A    
C32   Cl1   S    
C33   C35   A    
C23   O8    A    
C11   Cl3   S    
C20   C21   A    
C49   H21   S    
C27   C28   A    
C14   C15   A    
C44   N1    A    
C39   Cl2   S    
C23   O9    A    
C4    C9    A    
C13   C14   A    
C44   C48   A    
C38   H14   S    
C3    H11   S    
