data_mof_unit_55197.cif
_audit_creation_date              2013-03-05T15:55:17-0500
_audit_creation_method            fapswitch 2.2
_symmetry_space_group_name_H-M    P1
_symmetry_Int_Tables_number       1
_space_group_crystal_system       triclinic
_cell_length_a                    14.744507
_cell_length_b                    14.762924
_cell_length_c                    33.246107
_cell_angle_alpha                 95.89353
_cell_angle_beta                  96.134892
_cell_angle_gamma                 61.198042
_cell_volume                      6294.28100163

loop_
_atom_site_label
_atom_site_type_symbol
_atom_site_description
_atom_site_fract_x
_atom_site_fract_y
_atom_site_fract_z
_atom_type_partial_charge
O1    O     O_R   0.679450 0.499830 0.463150 -0.549669
O2    O     O_R   0.480650 0.664000 0.464630 -0.533132
C1    C     C_R   0.390179 0.701563 0.446446 0.754474
O3    O     O_R   0.323930 0.675950 0.455370 -0.558280
O4    O     O_R   0.354700 0.475360 0.451930 -0.547775
C2    C     C_R   0.405524 0.386546 0.434112 0.862044
O5    O     O_R   0.494470 0.320860 0.448390 -0.512786
O6    O     O_R   0.662580 0.357570 0.460050 -0.538063
C3    C     C_R   0.700726 0.409983 0.447510 0.776706
O7    O     O_R   0.680900 0.502040 0.551870 -0.550630
O8    O     O_R   0.481990 0.666040 0.546870 -0.536215
C4    C     C_R   0.392862 0.702660 0.560771 0.785895
O9    O     O_R   0.325370 0.678160 0.544080 -0.551194
O10   O     O_R   0.356040 0.477400 0.534170 -0.540480
C5    C     C_R   0.407208 0.388687 0.548942 0.789080
O11   O     O_R   0.495910 0.323070 0.537100 -0.542025
O12   O     O_R   0.663920 0.359620 0.542290 -0.538326
C6    C     C_R   0.701698 0.413403 0.562577 0.763638
Cr1   Cr    Cr6+3 0.576280 0.580550 0.506370 0.938675
Cr2   Cr    Cr6+3 0.346780 0.572400 0.496520 0.924614
Cr3   Cr    Cr6+3 0.576960 0.347070 0.497150 0.974946
O13   O     O_3   0.500010 0.500010 0.500010 -0.333998
H1    H     H_    0.454032 0.174795 0.107005 0.150409
H2    H     H_    0.474776 0.206070 0.180233 0.137223
H3    H     H_    0.412648 0.186922 0.314550 0.171391
C7    C     C_R   0.370862 0.370822 0.392035 -0.176344
C8    C     C_R   0.318517 0.458962 0.369020 -0.240641
C9    C     C_R   0.303071 0.449013 0.327291 -0.132918
C10   C     C_R   0.339531 0.351039 0.307801 0.052180
C11   C     C_R   0.386956 0.262527 0.330166 -0.190813
C12   C     C_R   0.402151 0.271231 0.372558 0.376272
C13   C     C_R   0.401556 0.254280 0.164085 -0.107104
C14   C     C_R   0.389564 0.236954 0.122353 -0.146516
C15   C     C_R   0.211268 0.374710 0.122286 -0.161345
C16   C     C_R   0.223505 0.391772 0.164056 -0.123472
C17   C     C_R   0.317567 0.329354 0.185026 0.115434
C18   C     C_1   0.325523 0.336875 0.228263 -0.032846
C19   C     C_1   0.331758 0.342296 0.264575 -0.004444
C20   C     C_R   0.293060 0.294395 0.101321 -0.058462
H4    H     H_    0.294219 0.536092 0.382983 0.166299
H5    H     H_    0.158301 0.450351 0.180208 0.126047
H6    H     H_    0.136011 0.420053 0.106940 0.142186
H7    H     H_    0.265895 0.517793 0.310071 0.140668
N1    N     N_R   0.814236 0.397085 0.229234 -0.269529
N2    N     N_R   0.811674 0.402518 0.269290 -0.278175
C21   C     C_R   0.759819 0.370893 0.410961 -0.073900
C22   C     C_R   0.811322 0.420826 0.398420 -0.168355
C23   C     C_R   0.852952 0.395447 0.360284 0.100771
C24   C     C_R   0.835871 0.323201 0.333440 0.003898
C25   C     C_R   0.792953 0.266878 0.347643 -0.155187
C26   C     C_R   0.755968 0.289909 0.386145 -0.172985
N3    N     N_R   0.882054 0.222720 0.268237 -0.282056
N4    N     N_R   0.884478 0.217312 0.228119 -0.286245
C27   C     C_R   0.850644 0.304415 0.207812 0.519112
C28   C     C_R   0.847282 0.315350 0.289619 0.496174
C29   C     C_R   0.842466 0.385745 0.144315 -0.114381
C30   C     C_R   0.868495 0.376299 0.104449 -0.150585
C31   C     C_R   0.920632 0.193163 0.101400 -0.155783
C32   C     C_R   0.895306 0.202461 0.141381 -0.131504
C33   C     C_R   0.860126 0.297970 0.163749 0.009295
C34   C     C_R   0.911963 0.279079 0.083231 -0.050414
H8    H     H_    0.817172 0.481432 0.417989 0.132582
H9    H     H_    0.717611 0.249198 0.395222 0.158268
H10   H     H_    0.860185 0.444013 0.091085 0.144614
H11   H     H_    0.780996 0.209965 0.327858 0.152335
H12   H     H_    0.814071 0.460805 0.160536 0.169443
H13   H     H_    0.953757 0.117169 0.085784 0.136433
H14   H     H_    0.908200 0.133714 0.155315 0.144575
N5    N     N_R   0.293397 0.783065 0.218240 -0.297378
N6    N     N_R   0.293577 0.780967 0.258129 -0.289996
C35   C     C_R   0.372229 0.756343 0.409007 -0.075215
C36   C     C_R   0.273968 0.806181 0.387104 0.092334
C37   C     C_R   0.271589 0.820018 0.345689 -0.152176
C38   C     C_R   0.362227 0.796568 0.327335 -0.001262
C39   C     C_R   0.455602 0.763479 0.350845 -0.111450
C40   C     C_R   0.460851 0.742429 0.391035 -0.157792
N7    N     N_R   0.427471 0.824472 0.267333 -0.258065
N8    N     N_R   0.426347 0.827685 0.227416 -0.197194
C41   C     C_R   0.360030 0.806023 0.201946 0.563557
C42   C     C_R   0.360328 0.802052 0.283407 0.512311
C43   C     C_R   0.258511 0.832640 0.135880 -0.185042
C44   C     C_R   0.232820 0.870843 0.097529 -0.155759
C45   C     C_R   0.393813 0.877956 0.100194 -0.223642
C46   C     C_R   0.422191 0.836419 0.138523 0.402297
C47   C     C_R   0.350131 0.820532 0.157905 -0.096652
C48   C     C_R   0.297568 0.898939 0.080222 -0.107083
H15   H     H_    0.536675 0.707967 0.407072 0.152317
H16   H     H_    0.158683 0.884552 0.082616 0.146541
H17   H     H_    0.198530 0.849503 0.327619 0.136604
H18   H     H_    0.526307 0.746456 0.337403 0.152993
H19   H     H_    0.202597 0.819048 0.149221 0.164120
H20   H     H_    0.446392 0.895293 0.086261 0.171627
N9    N     N_R   0.238887 0.422106 0.766422 -0.294540
N10   N     N_R   0.242149 0.422040 0.726565 -0.291104
C49   C     C_R   0.370898 0.368494 0.584842 -0.045654
C50   C     C_R   0.283927 0.447700 0.603543 -0.156262
C51   C     C_R   0.264308 0.438046 0.642539 -0.133161
C52   C     C_R   0.331445 0.349115 0.663356 0.021351
C53   C     C_R   0.412426 0.266119 0.643119 -0.133976
C54   C     C_R   0.431913 0.275662 0.604165 -0.148680
N11   N     N_R   0.402600 0.271996 0.728798 -0.294150
N12   N     N_R   0.399522 0.272278 0.768588 -0.294532
C55   C     C_R   0.317898 0.347482 0.788235 0.525173
C56   C     C_R   0.323832 0.346495 0.706953 0.532907
C57   C     C_R   0.218229 0.403674 0.850367 -0.137683
C58   C     C_R   0.207228 0.384212 0.889224 -0.157600
C59   C     C_R   0.386363 0.249158 0.892947 -0.158031
C60   C     C_R   0.397315 0.268556 0.854174 -0.138063
C61   C     C_R   0.311918 0.342436 0.831788 0.022246
C62   C     C_R   0.289795 0.303248 0.909969 -0.041532
H21   H     H_    0.234962 0.519885 0.589218 0.138712
H22   H     H_    0.498714 0.212755 0.590290 0.141894
H23   H     H_    0.131986 0.427662 0.901728 0.135309
H24   H     H_    0.200445 0.502768 0.657194 0.141732
H25   H     H_    0.464195 0.195663 0.658101 0.140627
H26   H     H_    0.151424 0.462086 0.834021 0.137081
H27   H     H_    0.451786 0.187274 0.908485 0.133120
H28   H     H_    0.471233 0.221641 0.840968 0.136441
H29   H     H_    0.948784 0.124932 0.877117 0.132646
H30   H     H_    0.802530 0.199714 0.669433 0.123464
H31   H     H_    0.749181 0.235407 0.598000 0.136272
C63   C     C_R   0.755975 0.379903 0.602553 -0.052084
C64   C     C_R   0.781375 0.446772 0.628681 -0.168345
C65   C     C_R   0.811195 0.426232 0.669392 -0.128551
C66   C     C_R   0.816607 0.338506 0.684308 0.136896
C67   C     C_R   0.798144 0.268029 0.658062 -0.095202
C68   C     C_R   0.768182 0.288406 0.617323 -0.160817
C69   C     C_R   0.894318 0.207209 0.821914 0.101797
C70   C     C_R   0.918711 0.198815 0.864019 -0.166217
C71   C     C_R   0.872520 0.380665 0.872883 -0.167961
C72   C     C_R   0.846630 0.390626 0.831495 -0.148564
C73   C     C_R   0.860275 0.304307 0.805900 0.093621
C74   C     C_1   0.844832 0.315755 0.762925 -0.053378
C75   C     C_1   0.833026 0.325261 0.727001 -0.029979
C76   C     C_R   0.912009 0.284030 0.889338 -0.076583
H32   H     H_    0.772591 0.517908 0.618294 0.140755
H33   H     H_    0.820054 0.465116 0.819134 0.121394
H34   H     H_    0.866497 0.447542 0.891658 0.138594
H35   H     H_    0.825652 0.481033 0.689575 0.118798
H36   H     H_    0.414133 0.954300 0.889436 0.137341
H37   H     H_    0.444782 0.905323 0.817660 0.118007
H38   H     H_    0.510279 0.684043 0.693921 0.140802
H39   H     H_    0.532242 0.634030 0.622406 0.146772
C77   C     C_R   0.378888 0.751201 0.602196 -0.092879
C78   C     C_R   0.284807 0.837358 0.614409 -0.047631
C79   C     C_R   0.273143 0.866091 0.656461 0.409971
C80   C     C_R   0.354099 0.808140 0.684929 -0.014533
C81   C     C_R   0.447541 0.727702 0.672095 -0.211668
C82   C     C_R   0.460141 0.700055 0.631221 -0.177314
C83   C     C_R   0.386628 0.894680 0.830789 -0.134255
C84   C     C_R   0.369452 0.921793 0.871778 -0.160061
C85   C     C_R   0.233645 0.872016 0.864788 -0.182502
C86   C     C_R   0.251141 0.844783 0.823802 -0.121150
C87   C     C_R   0.325518 0.858975 0.806590 0.120920
C88   C     C_1   0.335389 0.842111 0.763749 -0.021285
C89   C     C_1   0.343150 0.828245 0.727767 0.066407
C90   C     C_R   0.290274 0.914100 0.888850 -0.041790
H40   H     H_    0.204031 0.816422 0.805241 0.129549
H41   H     H_    0.172415 0.864915 0.877110 0.132055
O14   O     O_R   0.170070 0.978950 0.027680 -0.552644
O15   O     O_R   0.001760 0.175230 0.026640 -0.538415
C91   C     C_R   0.964201 0.263791 0.045829 0.773650
O16   O     O_R   0.984760 0.333570 0.037150 -0.548911
O17   O     O_R   0.183410 0.309240 0.041890 -0.538059
C92   C     C_R   0.273032 0.259529 0.059881 0.778756
O18   O     O_R   0.340240 0.172500 0.045430 -0.546799
O19   O     O_R   0.309670 0.000990 0.032050 -0.534830
C93   C     C_R   0.259080 0.959576 0.043843 0.799877
O20   O     O_R   0.168330 0.982130 0.939200 -0.552443
O21   O     O_R   0.000140 0.178170 0.944610 -0.539561
C94   C     C_R   0.962772 0.267558 0.930677 0.780762
O22   O     O_R   0.983010 0.336750 0.948660 -0.549104
O23   O     O_R   0.181800 0.312190 0.959860 -0.538152
C95   C     C_R   0.270907 0.264163 0.945393 0.770318
O24   O     O_R   0.338500 0.175680 0.956950 -0.551276
O25   O     O_R   0.308050 0.003930 0.950020 -0.537999
C96   C     C_R   0.256229 0.964914 0.929036 0.771974
Cr4   Cr    Cr6+3 0.087320 0.083240 0.984860 0.928669
Cr5   Cr    Cr6+3 0.087720 0.316210 0.996740 0.935999
Cr6   Cr    Cr6+3 0.317350 0.090340 0.995890 0.941691
O26   O     O_3   0.164130 0.163270 0.992500 -0.328037
C97   C     C_3   0.914953 0.446151 0.349731 -0.361636
C98   C     C_3   0.012832 0.415056 0.378381 -0.328554
C99   C     C_3   0.077875 0.462308 0.367067 -0.716712
H42   H     H_    0.105830 0.432689 0.336272 0.237430
H43   H     H_    0.031707 0.548082 0.367936 0.229280
H44   H     H_    0.145897 0.440706 0.389180 0.229111
H45   H     H_    0.991417 0.441641 0.410124 0.198103
H46   H     H_    0.060698 0.329297 0.376873 0.213334
H47   H     H_    0.940385 0.423279 0.318427 0.201767
H48   H     H_    0.865439 0.531656 0.351911 0.191330
C100  C     C_3   0.170969 0.845609 0.405885 -0.370129
C101  C     C_3   0.103605 0.963426 0.403094 -0.317112
C102  C     C_3   0.996487 0.001503 0.418508 -0.740424
H49   H     H_    0.954013 0.966228 0.399236 0.239296
H50   H     H_    0.003213 0.981191 0.450308 0.224835
H51   H     H_    0.951179 0.087001 0.417266 0.227958
H52   H     H_    0.142755 0.003486 0.421504 0.207873
H53   H     H_    0.092657 0.985447 0.371294 0.209066
H54   H     H_    0.129384 0.804986 0.389935 0.183800
H55   H     H_    0.181131 0.830936 0.438419 0.195374
N13   N     N_R   0.523802 0.810382 0.156906 0.099616
O27   O     O_R   0.579433 0.721875 0.173269 -0.356455
O28   O     O_R   0.567470 0.866152 0.151365 -0.370410
C103  C     C_3   0.907744 0.114763 0.793159 -0.344392
C104  C     C_3   0.946536 0.011800 0.812991 -0.346756
C105  C     C_3   0.958350 0.924976 0.781314 -0.715123
H56   H     H_    0.882531 0.943591 0.764687 0.231511
H57   H     H_    0.015377 0.913582 0.759428 0.263519
H58   H     H_    0.986631 0.851662 0.796514 0.210690
H59   H     H_    0.023357 0.989817 0.829261 0.205104
H60   H     H_    0.890631 0.020015 0.834851 0.197388
H61   H     H_    0.831711 0.134271 0.776449 0.179876
H62   H     H_    0.963653 0.103283 0.770685 0.216523
N14   N     N_R   0.448319 0.179497 0.395087 0.092995
O29   O     O_R   0.417217 0.182012 0.430572 -0.379141
O30   O     O_R   0.511572 0.090438 0.378148 -0.367654
C106  C     C_3   0.198262 0.897246 0.583063 -0.333235
C107  C     C_3   0.227457 0.961951 0.559148 -0.284697
C108  C     C_3   0.144148 0.016679 0.525822 -0.754069
H63   H     H_    0.135691 0.958651 0.504008 0.222876
H64   H     H_    0.068621 0.068867 0.539004 0.239314
H65   H     H_    0.166846 0.063498 0.509270 0.227576
H66   H     H_    0.237213 0.020859 0.580075 0.232641
H67   H     H_    0.301953 0.911711 0.544919 0.180908
H68   H     H_    0.180532 0.843456 0.562214 0.185434
H69   H     H_    0.124405 0.949435 0.597281 0.225323
N15   N     N_R   0.180359 0.953647 0.670305 0.061874
O31   O     O_R   0.154807 0.045983 0.659935 -0.382052
O32   O     O_R   0.126407 0.942668 0.696095 -0.398678

loop_
_geom_bond_atom_site_label_1
_geom_bond_atom_site_label_2
_geom_bond_distance
_ccdc_geom_bond_type
C66   C75   1.431564 S    
C102  H50   1.109740 S    
C94   O22   1.272808 A    
N11   N12   1.327983 A    
N1    C27   1.356842 A    
C37   C38   1.401187 A    
C106  H69   1.108925 S    
C57   H26   1.082852 S    
C49   C50   1.405198 A    
C15   H6    1.083075 S    
C98   C99   1.524276 S    
C69   C70   1.410427 A    
N9    C55   1.357785 A    
C22   H8    1.083546 S    
C108  H64   1.110870 S    
O15   C91   1.276556 A    
C64   C65   1.394911 A    
O4    Cr2   1.924391 S    
C27   C33   1.475461 S    
N7    N8    1.330852 A    
C99   H42   1.110808 S    
C45   H20   1.083242 S    
O8    Cr1   1.923297 S    
C7    C8    1.408849 A    
C67   C68   1.395651 A    
C66   C67   1.397760 A    
N13   O28   1.301408 A    
O21   Cr4   1.920593 S    
C45   C46   1.405048 A    
C13   C17   1.396401 A    
C8    C9    1.385990 A    
C17   C18   1.426903 S    
H31   C68   1.083003 S    
O2    C1    1.279107 A    
N14   O30   1.301643 A    
C5    C49   1.470833 S    
C11   C12   1.405753 A    
C29   H12   1.082835 S    
C102  H51   1.110620 S    
C12   N14   1.438548 S    
O21   C94   1.276690 A    
O23   Cr5   1.923633 S    
C104  H60   1.111721 S    
C5    O11   1.270782 A    
C52   C53   1.404403 A    
C70   C76   1.407643 A    
C63   C68   1.407535 A    
C29   C30   1.393781 A    
C15   C16   1.393872 A    
C86   H40   1.083589 S    
C97   C98   1.535703 S    
N15   O31   1.301111 A    
C57   C61   1.404094 A    
C65   H35   1.083664 S    
C39   H18   1.083406 S    
C107  H66   1.111743 S    
C95   O24   1.270448 A    
C104  H59   1.109847 S    
C78   C106  1.521147 S    
C80   C81   1.391233 A    
N4    C27   1.358798 A    
C99   H43   1.110768 S    
C73   C74   1.436924 S    
H1    C14   1.083065 S    
C106  H68   1.108003 S    
C10   C19   1.426871 S    
C105  H58   1.110439 S    
C100  H55   1.105206 S    
C77   C82   1.402676 A    
C76   C94   1.477032 S    
C10   C11   1.399025 A    
O7    Cr1   2.037077 S    
C101  C102  1.526918 S    
N3    C28   1.356799 A    
C51   C52   1.403733 A    
C31   C34   1.405193 A    
O14   C93   1.269688 A    
C102  H49   1.110798 S    
C85   H41   1.083023 S    
N10   C56   1.357844 A    
C32   C33   1.404469 A    
C38   C42   1.467506 S    
Cr3   O13   1.976047 S    
N12   C55   1.356198 A    
C23   C24   1.418723 A    
C69   C73   1.412978 A    
O20   C96   1.271628 A    
C108  H63   1.109701 S    
H37   C83   1.083656 S    
C43   C44   1.387736 A    
C105  H56   1.110812 S    
C62   C95   1.470368 S    
C50   H21   1.083088 S    
O1    Cr1   2.041472 S    
C38   C39   1.394794 A    
C58   H23   1.083133 S    
N6    C42   1.355164 A    
C15   C20   1.406474 A    
C22   C23   1.404199 A    
H38   C81   1.084295 S    
Cr1   O13   1.977128 S    
C48   C93   1.473881 S    
C46   C47   1.420068 A    
N13   O27   1.301506 A    
O19   C93   1.278707 A    
C49   C54   1.403384 A    
O6    C3    1.274584 A    
C90   C96   1.474563 S    
C25   C26   1.390215 A    
C31   C32   1.394397 A    
O23   C95   1.275799 A    
C21   C26   1.402175 A    
O12   Cr3   1.921205 S    
C34   C91   1.473068 S    
C16   C17   1.397322 A    
C43   H19   1.082822 S    
C20   C92   1.471094 S    
C1    C35   1.484387 S    
C39   C40   1.388451 A    
H2    C13   1.083733 S    
C60   C61   1.404281 A    
C18   C19   1.198263 T    
C72   H33   1.083930 S    
O10   Cr2   1.921418 S    
C32   H14   1.082865 S    
C23   C97   1.516909 S    
C74   C75   1.201209 T    
C31   H13   1.083202 S    
O25   Cr6   1.922521 S    
C53   C54   1.391260 A    
C40   H15   1.083159 S    
H39   C82   1.084248 S    
C8    H4    1.083666 S    
C59   C60   1.390906 A    
C52   C56   1.471518 S    
O1    C3    1.272958 A    
C50   C51   1.393765 A    
O12   C6    1.277305 A    
C2    C7    1.472005 S    
C26   H9    1.083225 S    
N9    N10   1.330970 A    
C14   C20   1.406817 A    
N3    N4    1.331239 A    
C107  H67   1.111036 S    
O15   Cr4   1.923929 S    
C80   C89   1.434799 S    
C60   H28   1.082954 S    
O14   Cr4   2.038268 S    
C87   C88   1.431209 S    
C2    O5    1.273454 A    
O17   Cr5   1.921870 S    
C6    C63   1.475698 S    
C98   H46   1.112234 S    
O22   Cr5   2.037556 S    
O25   C96   1.276682 A    
C71   C76   1.401899 A    
Cr2   O13   1.975577 S    
C103  H62   1.112475 S    
C54   H22   1.083115 S    
N11   C56   1.356058 A    
O16   Cr5   2.040967 S    
N15   O32   1.301088 A    
C59   C62   1.403246 A    
C101  H53   1.110391 S    
N5    C41   1.358637 A    
O18   Cr6   2.040375 S    
C69   C103  1.525742 S    
C1    O3    1.275155 A    
C71   H34   1.083077 S    
C84   C90   1.407342 A    
C78   C79   1.422454 A    
C41   C47   1.483138 S    
Cr6   O26   1.975460 S    
C9    C10   1.390557 A    
C30   H10   1.083166 S    
C79   C80   1.411858 A    
C58   C62   1.405035 A    
N7    C42   1.356582 A    
C46   N13   1.436489 S    
H3    C11   1.083721 S    
C107  C108  1.525057 S    
C103  C104  1.536179 S    
C21   C22   1.401458 A    
O17   C92   1.276438 A    
O9    Cr2   2.040175 S    
O2    Cr1   1.921103 S    
C104  C105  1.526189 S    
C51   H24   1.082848 S    
C7    C12   1.417223 A    
N1    N2    1.329356 A    
C36   C37   1.406880 A    
C72   C73   1.398321 A    
O6    Cr3   1.923472 S    
C35   C40   1.410576 A    
O8    C4    1.275454 A    
O11   Cr3   2.040000 S    
C30   C34   1.403808 A    
O24   Cr6   2.039684 S    
C91   O16   1.271610 A    
C57   C58   1.394130 A    
C9    H7    1.084069 S    
C83   C84   1.394788 A    
C99   H44   1.109257 S    
C55   C61   1.471640 S    
C64   H32   1.082938 S    
C77   C78   1.421673 A    
C13   C14   1.392804 A    
C71   C72   1.391378 A    
C63   C64   1.407102 A    
C37   H17   1.083672 S    
C35   C36   1.424104 A    
C24   C28   1.470782 S    
C98   H45   1.110927 S    
C100  C101  1.539217 S    
C44   C48   1.400906 A    
N8    C41   1.357993 A    
C106  C107  1.534697 S    
O4    C2    1.272885 A    
C79   N15   1.436213 S    
O7    C6    1.272276 A    
C44   H16   1.083170 S    
O5    Cr3   2.039654 S    
C53   H25   1.082937 S    
H36   C84   1.083070 S    
H29   C70   1.079894 S    
C36   C100  1.520310 S    
C85   C90   1.406472 A    
H30   C67   1.083710 S    
C81   C82   1.383728 A    
C100  H54   1.111913 S    
N14   O29   1.301431 A    
N5    N6    1.329379 A    
C16   H5    1.083695 S    
C25   H11   1.083572 S    
O19   Cr6   1.922676 S    
Cr4   O26   1.977172 S    
O20   Cr4   2.040445 S    
C103  H61   1.112203 S    
O3    Cr2   2.038818 S    
C4    C77   1.472558 S    
C92   O18   1.269543 A    
C3    C21   1.471907 S    
C45   C48   1.402825 A    
C29   C33   1.405432 A    
C85   C86   1.395551 A    
N2    C28   1.356524 A    
C24   C25   1.402237 A    
C83   C87   1.397346 A    
C88   C89   1.201032 T    
C105  H57   1.110905 S    
O10   C5    1.275316 A    
C97   H47   1.107697 S    
C4    O9    1.271464 A    
C86   C87   1.397910 A    
C59   H27   1.083170 S    
C108  H65   1.110376 S    
C43   C47   1.405632 A    
C101  H52   1.112065 S    
C97   H48   1.111846 S    
C65   C66   1.397638 A    
Cr5   O26   1.975986 S    
