data_mof_unit_54227.cif
_audit_creation_date              2012-12-11T15:08:55-0500
_audit_creation_method            fapswitch 2.2
_symmetry_space_group_name_H-M    P1
_symmetry_Int_Tables_number       1
_space_group_crystal_system       triclinic
_cell_length_a                    19.475123
_cell_length_b                    11.467811
_cell_length_c                    18.708939
_cell_angle_alpha                 89.898806
_cell_angle_beta                  89.926361
_cell_angle_gamma                 89.484997
_cell_volume                      4178.22019143

loop_
_atom_site_label
_atom_site_type_symbol
_atom_type_description
_atom_site_fract_x
_atom_site_fract_y
_atom_site_fract_z
_atom_type_partial_charge
C1    C     C_R   0.272746 0.041631 0.854723 0.528786
C2    C     C_R   0.728179 0.043681 0.146285 0.532025
C3    C     C_R   0.772746 0.541631 0.854723 0.528790
C4    C     C_R   0.228181 0.543685 0.146287 0.532016
C5    C     C_3   0.526281 0.741886 0.959222 -0.112945
C6    C     C_3   0.489934 0.709414 0.029389 -0.108995
C7    C     C_3   0.026303 0.241939 0.959211 -0.112954
C8    C     C_3   0.989966 0.209393 0.029369 -0.109000
C9    C     C_3   0.314789 0.531816 0.043940 -0.255255
C10   C     C_3   0.693133 0.513594 0.960699 -0.250497
C11   C     C_3   0.814782 0.031793 0.043935 -0.255246
C12   C     C_3   0.193138 0.013588 0.960702 -0.250504
C13   C     C_3   0.321229 0.549400 0.962185 -0.266060
C14   C     C_3   0.690749 0.521983 0.043043 -0.273584
C15   C     C_3   0.821216 0.049359 0.962178 -0.266060
C16   C     C_3   0.190762 0.021970 0.043045 -0.273597
C17   C     C_3   0.183714 0.516963 0.026749 -0.168185
C18   C     C_3   0.824579 0.533491 0.973268 -0.165998
C19   C     C_3   0.683703 0.016971 0.026747 -0.168168
C20   C     C_3   0.324581 0.033502 0.973267 -0.166014
C21   C     C_3   0.238664 0.704140 0.056832 -0.263857
C22   C     C_3   0.748640 0.702740 0.942959 -0.255309
C23   C     C_3   0.738673 0.204134 0.056833 -0.263858
C24   C     C_3   0.248635 0.202742 0.942956 -0.255291
C25   C     C_3   0.242730 0.573488 0.070498 0.043507
C26   C     C_3   0.758926 0.571935 0.930785 0.045616
C27   C     C_3   0.742726 0.073480 0.070496 0.043512
C28   C     C_3   0.258927 0.071938 0.930785 0.045629
C29   C     C_3   0.255049 0.609281 0.931817 0.074594
C30   C     C_3   0.745981 0.609537 0.068923 0.083824
C31   C     C_3   0.755045 0.109275 0.931814 0.074592
C32   C     C_3   0.245983 0.109546 0.068921 0.083835
C33   C     C_3   0.195363 0.524668 0.944940 0.012672
C34   C     C_3   0.817815 0.556576 0.053769 0.033855
C35   C     C_3   0.695343 0.024690 0.944938 0.012701
C36   C     C_3   0.317827 0.056624 0.053766 0.033865
C37   C     C_3   0.241061 0.722749 0.975444 -0.221799
C38   C     C_3   0.735147 0.721754 0.023769 -0.215547
C39   C     C_3   0.741077 0.222747 0.975445 -0.221795
C40   C     C_3   0.235138 0.221759 0.023765 -0.215531
C41   C     C_3   0.511650 0.692838 0.461858 -0.217181
C42   C     C_3   0.505856 0.692491 0.542435 -0.224879
C43   C     C_3   0.011655 0.192840 0.461859 -0.217188
C44   C     C_3   0.005857 0.192492 0.542436 -0.224887
C45   C     C_R   0.441789 0.816832 0.861859 0.539653
C46   C     C_R   0.551105 0.817106 0.137985 0.535423
C47   C     C_R   0.941791 0.316833 0.861859 0.539662
C48   C     C_R   0.051099 0.317105 0.137987 0.535417
C49   C     C_3   0.559985 0.902084 0.472385 -0.226423
C50   C     C_3   0.430656 0.868796 0.526849 -0.234685
C51   C     C_3   0.059987 0.402088 0.472386 -0.226412
C52   C     C_3   0.930657 0.368797 0.526848 -0.234681
C53   C     C_3   0.439698 0.863778 0.445212 -0.270087
C54   C     C_3   0.552038 0.891169 0.553607 -0.250003
C55   C     C_3   0.939700 0.363776 0.445211 -0.270078
C56   C     C_3   0.052039 0.391170 0.553608 -0.249990
C57   C     C_3   0.511440 0.820128 0.431136 0.054520
C58   C     C_3   0.490627 0.818251 0.569630 0.040907
C59   C     C_3   0.011442 0.320130 0.431136 0.054518
C60   C     C_3   0.990628 0.318252 0.569631 0.040907
C61   C     C_3   0.171158 0.645916 0.459256 0.034002
C62   C     C_3   0.824788 0.656863 0.543652 0.035854
C63   C     C_3   0.671152 0.145892 0.459260 0.033954
C64   C     C_3   0.324790 0.156865 0.543652 0.035852
C65   C     C_3   0.177588 0.666209 0.539755 0.000551
C66   C     C_3   0.818213 0.677661 0.463072 -0.002774
C67   C     C_3   0.677586 0.166203 0.539756 0.000526
C68   C     C_3   0.318214 0.177671 0.463073 -0.002779
C69   C     C_3   0.250456 0.463532 0.473272 -0.250089
C70   C     C_3   0.762644 0.468041 0.528099 -0.259827
C71   C     C_3   0.750460 0.963528 0.473272 -0.250090
C72   C     C_3   0.262647 0.968041 0.528096 -0.259824
C73   C     C_3   0.298935 0.651480 0.441452 -0.263164
C74   C     C_3   0.696445 0.646248 0.556367 -0.266997
C75   C     C_3   0.798932 0.151483 0.441453 -0.263179
C76   C     C_3   0.196447 0.146245 0.556365 -0.267004
C77   C     C_3   0.236366 0.576610 0.429763 0.043799
C78   C     C_3   0.763065 0.581770 0.571197 0.036087
C79   C     C_3   0.736366 0.076606 0.429764 0.043783
C80   C     C_3   0.263067 0.081769 0.571196 0.036091
C81   C     C_3   0.246977 0.611719 0.567539 0.011069
C82   C     C_3   0.752855 0.612330 0.432574 0.018328
C83   C     C_3   0.746977 0.111719 0.567539 0.011067
C84   C     C_3   0.252859 0.112333 0.432574 0.018323
C85   C     C_3   0.246799 0.483234 0.554077 -0.271990
C86   C     C_3   0.764600 0.484255 0.446450 -0.284331
C87   C     C_3   0.746803 0.983233 0.554077 -0.271980
C88   C     C_3   0.264611 0.984261 0.446448 -0.284332
C89   C     C_R   0.262280 0.642446 0.854960 0.547663
C90   C     C_R   0.738272 0.641540 0.145722 0.542676
C91   C     C_R   0.762278 0.142441 0.854959 0.547659
C92   C     C_R   0.238271 0.141545 0.145721 0.542677
C93   C     C_3   0.305302 0.665956 0.522815 -0.263487
C94   C     C_3   0.686476 0.647068 0.474900 -0.251112
C95   C     C_3   0.805299 0.165960 0.522816 -0.263492
C96   C     C_3   0.186478 0.147064 0.474898 -0.251113
C97   C     C_R   0.272807 0.046455 0.647235 0.526953
C98   C     C_R   0.726060 0.043209 0.354168 0.530082
C99   C     C_R   0.772806 0.546457 0.647236 0.526949
C100  C     C_R   0.226060 0.543210 0.354168 0.530053
C101  C     C_R   0.469669 0.821009 0.646389 0.540058
C102  C     C_R   0.531600 0.821544 0.354433 0.543531
C103  C     C_R   0.969669 0.321009 0.646389 0.540058
C104  C     C_R   0.031602 0.321544 0.354434 0.543519
C105  C     C_R   0.260250 0.641906 0.643642 0.573484
C106  C     C_R   0.740086 0.641301 0.356154 0.563579
C107  C     C_R   0.760250 0.141906 0.643642 0.573495
C108  C     C_R   0.240087 0.141301 0.356153 0.563572
C109  C     C_3   0.460402 0.890844 0.044057 -0.123346
C110  C     C_3   0.496573 0.924297 0.973514 -0.080506
C111  C     C_3   0.960373 0.390788 0.044073 -0.123307
C112  C     C_3   0.996534 0.424320 0.973538 -0.080445
C113  C     C_3   0.427841 0.784966 0.007182 -0.166177
C114  C     C_3   0.558938 0.848540 0.994589 -0.137613
C115  C     C_3   0.927849 0.284898 0.007174 -0.166186
C116  C     C_3   0.058924 0.348608 0.994600 -0.137612
C117  C     C_3   0.464979 0.818651 0.937474 0.047650
C118  C     C_3   0.522365 0.816820 0.064602 0.047231
C119  C     C_3   0.964978 0.318659 0.937474 0.047664
C120  C     C_3   0.022360 0.316812 0.064604 0.047203
Cr1   Cr    Cr6+3 0.229620 0.836040 0.749110 1.004210
Cr2   Cr    Cr6+3 0.770380 0.836040 0.250890 1.018723
Cr3   Cr    Cr6+3 0.729620 0.336040 0.749110 1.004223
Cr4   Cr    Cr6+3 0.270380 0.336040 0.250890 1.018762
Cr5   Cr    Cr6+3 0.387630 0.990680 0.750730 0.986307
Cr6   Cr    Cr6+3 0.612370 0.990680 0.249270 0.991394
Cr7   Cr    Cr6+3 0.887630 0.490680 0.750730 0.986303
Cr8   Cr    Cr6+3 0.112370 0.490680 0.249270 0.991456
Cr9   Cr    Cr6+3 0.386020 0.676590 0.749210 0.987228
Cr10  Cr    Cr6+3 0.613980 0.676590 0.250790 0.988294
Cr11  Cr    Cr6+3 0.886020 0.176590 0.749210 0.987229
Cr12  Cr    Cr6+3 0.113980 0.176590 0.250790 0.988292
H1    H     H_    0.374109 0.763355 0.015906 0.098845
H2    H     H_    0.610510 0.858719 0.973811 0.124342
H3    H     H_    0.874122 0.263253 0.015893 0.098862
H4    H     H_    0.110495 0.358793 0.973828 0.124408
H5    H     H_    0.189668 0.740153 0.078582 0.128450
H6    H     H_    0.794055 0.752353 0.924632 0.117281
H7    H     H_    0.689680 0.240158 0.078582 0.128443
H8    H     H_    0.294051 0.252357 0.924632 0.117296
H9    H     H_    0.280871 0.750500 0.084322 0.103866
H10   H     H_    0.704064 0.735061 0.911238 0.101689
H11   H     H_    0.780883 0.250482 0.084326 0.103860
H12   H     H_    0.204060 0.235058 0.911232 0.101680
H13   H     H_    0.277584 0.790234 0.960335 0.095958
H14   H     H_    0.680781 0.745955 0.031252 0.090963
H15   H     H_    0.777608 0.290220 0.960337 0.095946
H16   H     H_    0.180767 0.245948 0.031243 0.090956
H17   H     H_    0.189898 0.753424 0.961691 0.138493
H18   H     H_    0.767213 0.792255 0.043753 0.142700
H19   H     H_    0.689922 0.253445 0.961695 0.138498
H20   H     H_    0.267201 0.292267 0.043747 0.142721
H21   H     H_    0.633551 0.056673 0.041427 0.160433
H22   H     H_    0.370622 0.077330 0.951778 0.158035
H23   H     H_    0.133561 0.556664 0.041421 0.160424
H24   H     H_    0.870617 0.577354 0.951794 0.158026
H25   H     H_    0.555902 0.642002 0.445455 0.136786
H26   H     H_    0.465701 0.629022 0.557169 0.136485
H27   H     H_    0.055908 0.142007 0.445457 0.136771
H28   H     H_    0.965701 0.129024 0.557168 0.136480
H29   H     H_    0.467851 0.643293 0.439140 0.119668
H30   H     H_    0.553338 0.659342 0.567068 0.118896
H31   H     H_    0.967857 0.143291 0.439140 0.119670
H32   H     H_    0.053339 0.159342 0.567071 0.118887
H33   H     H_    0.613082 0.891704 0.455745 0.097800
H34   H     H_    0.389510 0.816611 0.543428 0.115250
H35   H     H_    0.113084 0.391709 0.455747 0.097800
H36   H     H_    0.889510 0.316614 0.543427 0.115246
H37   H     H_    0.598689 0.855521 0.579714 0.123721
H38   H     H_    0.401143 0.807713 0.419380 0.109438
H39   H     H_    0.098690 0.355522 0.579716 0.123708
H40   H     H_    0.901146 0.307708 0.419381 0.109437
H41   H     H_    0.437351 0.944755 0.085951 0.139698
H42   H     H_    0.491855 0.013491 0.953165 0.125500
H43   H     H_    0.937298 0.444617 0.085992 0.139729
H44   H     H_    0.991787 0.513539 0.953226 0.125418
H45   H     H_    0.434334 0.950511 0.422822 0.176789
H46   H     H_    0.537938 0.976063 0.574969 0.198413
H47   H     H_    0.934335 0.450506 0.422819 0.176800
H48   H     H_    0.037939 0.476063 0.574971 0.198421
H49   H     H_    0.423249 0.958716 0.543043 0.135005
H50   H     H_    0.543191 0.991540 0.457822 0.161074
H51   H     H_    0.923252 0.458718 0.543040 0.135023
H52   H     H_    0.043197 0.491546 0.457823 0.161107
H53   H     H_    0.126613 0.592599 0.449612 0.163170
H54   H     H_    0.871652 0.606785 0.552732 0.178992
H55   H     H_    0.626622 0.092541 0.449630 0.163135
H56   H     H_    0.371655 0.106789 0.552728 0.178966
H57   H     H_    0.180880 0.759878 0.547272 0.133998
H58   H     H_    0.808044 0.768364 0.455196 0.129525
H59   H     H_    0.680872 0.259876 0.547263 0.134045
H60   H     H_    0.308040 0.268371 0.455200 0.129526
H61   H     H_    0.718767 0.890611 0.456637 0.103859
H62   H     H_    0.307924 0.924274 0.545742 0.101150
H63   H     H_    0.218765 0.390613 0.456636 0.103855
H64   H     H_    0.807925 0.424280 0.545739 0.101140
H65   H     H_    0.701793 0.940510 0.578178 0.150190
H66   H     H_    0.313647 0.953376 0.423450 0.145525
H67   H     H_    0.201788 0.440516 0.578179 0.150174
H68   H     H_    0.813631 0.453358 0.423446 0.145510
H69   H     H_    0.346034 0.609396 0.419279 0.115839
H70   H     H_    0.654456 0.598518 0.583186 0.118472
H71   H     H_    0.846032 0.109402 0.419281 0.115850
H72   H     H_    0.154458 0.098515 0.583184 0.118450
H73   H     H_    0.293371 0.736963 0.414214 0.119942
H74   H     H_    0.697260 0.736132 0.577676 0.120835
H75   H     H_    0.793369 0.236967 0.414217 0.119866
H76   H     H_    0.197260 0.236131 0.577674 0.120831
H77   H     H_    0.553785 0.679769 0.923755 0.122685
H78   H     H_    0.487583 0.619803 0.051761 0.118301
H79   H     H_    0.053830 0.179872 0.923731 0.122681
H80   H     H_    0.987642 0.119768 0.051724 0.118292
H81   H     H_    0.296777 0.755876 0.532220 0.112351
H82   H     H_    0.664280 0.729564 0.456550 0.115693
H83   H     H_    0.796774 0.255879 0.532223 0.112338
H84   H     H_    0.164280 0.229560 0.456549 0.115703
H85   H     H_    0.355863 0.633290 0.541048 0.135110
H86   H     H_    0.649519 0.576889 0.463705 0.132995
H87   H     H_    0.855862 0.133296 0.541048 0.135113
H88   H     H_    0.149524 0.076882 0.463703 0.132941
H89   H     H_    0.304616 0.440405 0.461587 0.149154
H90   H     H_    0.715775 0.422030 0.542476 0.151340
H91   H     H_    0.804620 0.940402 0.461586 0.149147
H92   H     H_    0.215774 0.922037 0.542466 0.151311
H93   H     H_    0.293359 0.451710 0.579984 0.167076
H94   H     H_    0.723661 0.434905 0.420502 0.152244
H95   H     H_    0.793362 0.951712 0.579985 0.167078
H96   H     H_    0.223682 0.934906 0.420489 0.152298
H97   H     H_    0.326055 0.440478 0.057902 0.129909
H98   H     H_    0.688144 0.424841 0.942459 0.129772
H99   H     H_    0.826049 0.940461 0.057904 0.129851
H100  H     H_    0.188150 0.924835 0.942460 0.129783
H101  H     H_    0.355269 0.582140 0.071709 0.122614
H102  H     H_    0.647082 0.557925 0.938162 0.113398
H103  H     H_    0.855267 0.082116 0.071697 0.122611
H104  H     H_    0.147083 0.057917 0.938171 0.113402
H105  H     H_    0.367468 0.600963 0.949666 0.147027
H106  H     H_    0.638208 0.550641 0.059123 0.143899
H107  H     H_    0.867467 0.100889 0.949650 0.147033
H108  H     H_    0.138219 0.050600 0.059132 0.143896
H109  H     H_    0.329768 0.463400 0.936079 0.102665
H110  H     H_    0.700041 0.435579 0.067587 0.104288
H111  H     H_    0.829733 0.963350 0.936077 0.102658
H112  H     H_    0.200074 0.935569 0.067586 0.104294
H113  H     H_    0.680972 0.926913 0.044951 0.069406
H114  H     H_    0.335346 0.940928 0.963954 0.072222
H115  H     H_    0.180985 0.426909 0.044960 0.069400
H116  H     H_    0.835360 0.440925 0.963938 0.072246
H117  H     H_    0.713601 0.937230 0.927685 0.103248
H118  H     H_    0.319495 0.970379 0.081229 0.092768
H119  H     H_    0.213639 0.437213 0.927699 0.103261
H120  H     H_    0.819457 0.470314 0.081213 0.092778
O1    O     O_R   0.214130 0.708570 0.829890 -0.522102
O2    O     O_R   0.785870 0.708570 0.170110 -0.498038
O3    O     O_R   0.714130 0.208570 0.829890 -0.522099
O4    O     O_R   0.285870 0.208570 0.170110 -0.497976
O5    O     O_R   0.446360 0.919990 0.675230 -0.510281
O6    O     O_R   0.553640 0.919990 0.324770 -0.512610
O7    O     O_R   0.946360 0.419990 0.675230 -0.510283
O8    O     O_R   0.053640 0.419990 0.324770 -0.512590
O9    O     O_R   0.457170 0.717300 0.668380 -0.529742
O10   O     O_R   0.542830 0.717300 0.331620 -0.529927
O11   O     O_R   0.957170 0.217300 0.668380 -0.529744
O12   O     O_R   0.042830 0.217300 0.331620 -0.529930
O13   O     O_R   0.320870 0.624890 0.673130 -0.521787
O14   O     O_R   0.679130 0.624890 0.326870 -0.520570
O15   O     O_R   0.820870 0.124890 0.673130 -0.521788
O16   O     O_R   0.179130 0.124890 0.326870 -0.520579
O17   O     O_3   0.334430 0.834430 0.749680 -0.293755
O18   O     O_3   0.665570 0.834430 0.250320 -0.292030
O19   O     O_3   0.834430 0.334430 0.749680 -0.293755
O20   O     O_3   0.165570 0.334430 0.250320 -0.292038
O21   O     O_R   0.236050 0.959150 0.825270 -0.518601
O22   O     O_R   0.763950 0.959150 0.174730 -0.513617
O23   O     O_R   0.736050 0.459150 0.825270 -0.518601
O24   O     O_R   0.263950 0.459150 0.174730 -0.513603
O25   O     O_R   0.332100 0.076650 0.832310 -0.541177
O26   O     O_R   0.667900 0.076650 0.167690 -0.536381
O27   O     O_R   0.832100 0.576650 0.832310 -0.541176
O28   O     O_R   0.167900 0.576650 0.167690 -0.536374
O29   O     O_R   0.446500 0.918620 0.826240 -0.507426
O30   O     O_R   0.553500 0.918620 0.173760 -0.506586
O31   O     O_R   0.946500 0.418620 0.826240 -0.507421
O32   O     O_R   0.053500 0.418620 0.173760 -0.506573
O33   O     O_R   0.457310 0.715830 0.831280 -0.523536
O34   O     O_R   0.542690 0.715830 0.168720 -0.523236
O35   O     O_R   0.957310 0.215830 0.831280 -0.523533
O36   O     O_R   0.042690 0.215830 0.168720 -0.523239
O37   O     O_R   0.321000 0.623520 0.824130 -0.525985
O38   O     O_R   0.679000 0.623520 0.175870 -0.526994
O39   O     O_R   0.821000 0.123520 0.824130 -0.525984
O40   O     O_R   0.179000 0.123520 0.175870 -0.526999
O41   O     O_R   0.213990 0.710040 0.667000 -0.485872
O42   O     O_R   0.786010 0.710040 0.333000 -0.477971
O43   O     O_R   0.713990 0.210040 0.667000 -0.485873
O44   O     O_R   0.286010 0.210040 0.333000 -0.477973
O45   O     O_R   0.235920 0.960520 0.674260 -0.513677
O46   O     O_R   0.764080 0.960520 0.325740 -0.513915
O47   O     O_R   0.735920 0.460520 0.674260 -0.513670
O48   O     O_R   0.264080 0.460520 0.325740 -0.513915
O49   O     O_R   0.331960 0.078120 0.669410 -0.527543
O50   O     O_R   0.668040 0.078120 0.330590 -0.531925
O51   O     O_R   0.831960 0.578120 0.669410 -0.527550
O52   O     O_R   0.168040 0.578120 0.330590 -0.531935
N1    N     N_2   0.132724 0.547694 0.902892 -0.515929
H121  H     H_    0.135639 0.519052 0.850716 0.272305
C121  C     C_3   0.088232 0.649566 0.911790 -0.285825
H122  H     H_    0.109124 0.728614 0.886610 0.168483
H123  H     H_    0.076220 0.667018 0.968597 0.115165
H124  H     H_    0.039673 0.635512 0.882306 0.132459
N2    N     N_2   0.874212 0.625969 0.083229 -0.508004
H125  H     H_    0.892105 0.604695 0.133528 0.268192
C122  C     C_3   0.909940 0.718426 0.046083 -0.297816
H126  H     H_    0.924453 0.786922 0.084952 0.143322
H127  H     H_    0.878057 0.759750 0.004406 0.135584
H128  H     H_    0.957513 0.682979 0.021547 0.119907
N3    N     N_2   0.632700 0.047762 0.902903 -0.515918
H129  H     H_    0.635599 0.019121 0.850726 0.272314
C123  C     C_3   0.588234 0.149665 0.911812 -0.285866
H130  H     H_    0.609140 0.228700 0.886628 0.168493
H131  H     H_    0.576237 0.167119 0.968622 0.115185
H132  H     H_    0.539666 0.135655 0.882337 0.132384
N4    N     N_2   0.374204 0.126091 0.083207 -0.507911
H133  H     H_    0.392143 0.104789 0.133483 0.268156
C124  C     C_3   0.409980 0.218418 0.045993 -0.297901
H134  H     H_    0.424656 0.286846 0.084832 0.143246
H135  H     H_    0.378064 0.259870 0.004393 0.135633
H136  H     H_    0.457459 0.182815 0.021360 0.119865
N5    N     N_2   0.161004 0.757394 0.421883 -0.560436
H137  H     H_    0.185561 0.767237 0.373459 0.270706
C125  C     C_3   0.092560 0.807397 0.420802 -0.279877
H138  H     H_    0.076390 0.833400 0.475245 0.203317
H139  H     H_    0.056028 0.744816 0.397032 0.207612
H140  H     H_    0.092297 0.887797 0.387573 0.122059
N6    N     N_2   0.832042 0.765083 0.583527 -0.558817
H141  H     H_    0.802697 0.772850 0.629252 0.265980
C126  C     C_3   0.900807 0.810164 0.593041 -0.271816
H142  H     H_    0.920677 0.844857 0.541839 0.198455
H143  H     H_    0.899610 0.883794 0.631554 0.120516
H144  H     H_    0.935611 0.741789 0.614941 0.210628
N7    N     N_2   0.660968 0.257357 0.421880 -0.560405
H145  H     H_    0.685598 0.267249 0.373501 0.270652
C127  C     C_3   0.592476 0.307137 0.420630 -0.279735
H146  H     H_    0.576120 0.332957 0.475035 0.203772
H147  H     H_    0.556087 0.244490 0.396698 0.207268
H148  H     H_    0.592213 0.387612 0.387470 0.122049
N8    N     N_2   0.332042 0.265082 0.583531 -0.558797
H149  H     H_    0.302687 0.272851 0.629249 0.265965
C128  C     C_3   0.400809 0.310152 0.593064 -0.271791
H150  H     H_    0.420693 0.344853 0.541868 0.198451
H151  H     H_    0.399607 0.383777 0.631581 0.120523
H152  H     H_    0.435605 0.241768 0.614970 0.210614
C129  C     C_2   0.113434 0.639173 0.582753 0.522374
O53   O     O_2   0.058765 0.684441 0.565867 -0.566317
O54   O     O_R   0.117135 0.571725 0.645371 -0.711848
H153  H     H_    0.072932 0.573465 0.674106 0.333731
C130  C     C_2   0.887442 0.657556 0.424837 0.522488
O55   O     O_2   0.939909 0.695201 0.451577 -0.567943
O56   O     O_R   0.891879 0.602269 0.358191 -0.700105
H154  H     H_    0.940099 0.602545 0.337609 0.330018
C131  C     C_2   0.613439 0.139162 0.582766 0.522423
O57   O     O_2   0.558769 0.184448 0.565901 -0.566374
O58   O     O_R   0.617148 0.071690 0.645374 -0.711867
H155  H     H_    0.572950 0.073423 0.674117 0.333740
C132  C     C_2   0.387445 0.157583 0.424834 0.522511
O59   O     O_2   0.439908 0.195267 0.451562 -0.567953
O60   O     O_R   0.391883 0.102274 0.358196 -0.700113
H156  H     H_    0.440102 0.102561 0.337609 0.329990

loop_
_geom_bond_atom_site_label_1
_geom_bond_atom_site_label_2
_ccdc_geom_bond_type
C90   O38   A    
C130  O55   D    
C82   C94   S    
C55   C59   S    
N5    C125  S    
C73   C93   S    
C42   C58   S    
C29   C89   S    
C126  H142  S    
C48   O32   A    
C75   C95   S    
C48   C120  S    
C24   H8    S    
C57   C102  S    
Cr6   O26   S    
C91   O39   A    
C59   C104  S    
Cr8   O8    S    
C63   H55   S    
Cr2   O22   S    
C72   H62   S    
C5    C6    S    
Cr10  O18   S    
C109  H41   S    
Cr11  O15   S    
C22   C38   S    
C29   C33   S    
C30   C38   S    
C77   C100  S    
C9    C13   S    
C75   H75   S    
C12   C16   S    
C101  O5    A    
C95   H87   S    
C102  O10   A    
C21   H5    S    
C60   C103  S    
N7    C127  S    
C113  H1    S    
C54   H37   S    
C23   H11   S    
C129  O54   S    
C109  C118  S    
C15   H111  S    
C68   C132  S    
C11   H103  S    
C94   H82   S    
C50   C53   S    
Cr6   O6    S    
C9    H101  S    
N4    H133  S    
C46   O34   A    
C7    C119  S    
C71   H91   S    
N6    C126  S    
C62   C66   S    
C13   H105  S    
C20   C28   S    
C96   H88   S    
C73   H69   S    
C54   H46   S    
C100  O52   A    
C43   C44   S    
C1    O25   A    
C66   C82   S    
C3    O27   A    
O54   H153  S    
C11   C27   S    
C36   N4    S    
C58   C101  S    
C53   H38   S    
C65   H57   S    
C56   H39   S    
C4    O28   A    
C17   H23   S    
C55   H40   S    
C126  H144  S    
C18   H24   S    
C11   H99   S    
Cr6   O18   S    
C3    C26   S    
Cr3   O47   S    
C84   C88   S    
C53   H45   S    
Cr12  O20   S    
Cr1   O1    S    
C96   H84   S    
Cr11  O39   S    
C17   C25   S    
Cr9   O33   S    
C19   C35   S    
C132  O59   D    
C76   C96   S    
C32   C92   S    
C91   O3    A    
C69   H89   S    
C98   O50   A    
C99   O47   A    
C21   H9    S    
N6    H141  S    
C61   C65   S    
C5    C117  S    
C78   C99   S    
C73   C77   S    
C104  O12   A    
Cr2   O46   S    
C75   C79   S    
C76   H76   S    
C72   H92   S    
C123  H131  S    
C67   C83   S    
C128  H150  S    
C15   H107  S    
C80   C97   S    
Cr1   O41   S    
C51   H35   S    
C111  C112  S    
Cr10  O34   S    
Cr3   O43   S    
C71   C79   S    
C4    C25   S    
C7    C8    S    
C32   C36   S    
C24   H12   S    
C43   H27   S    
C122  H127  S    
Cr12  O16   S    
C105  O13   A    
C39   H19   S    
C10   H98   S    
C49   C57   S    
C40   H20   S    
C93   H85   S    
C124  H135  S    
C94   H86   S    
C38   H14   S    
C52   C60   S    
C84   C108  S    
C14   H110  S    
C61   C77   S    
N1    C121  S    
C110  C114  S    
C43   C59   S    
C62   H54   S    
Cr5   O49   S    
C90   O2    A    
Cr7   O19   S    
Cr8   O20   S    
C22   H10   S    
C11   C15   S    
Cr3   O23   S    
Cr11  O11   S    
C110  H42   S    
C81   C105  S    
C30   C34   S    
C10   C14   S    
C75   H71   S    
C102  O6    A    
N4    C124  S    
Cr10  O14   S    
C7    C116  S    
C125  H139  S    
C36   H118  S    
C92   O40   A    
C61   H53   S    
C114  H2    S    
Cr11  O19   S    
C64   H56   S    
C47   O31   A    
C113  C117  S    
C16   H112  S    
C89   O37   A    
C112  H44   S    
Cr5   O29   S    
C128  H152  S    
C115  C119  S    
N2    C122  S    
C74   C78   S    
C46   O30   A    
Cr7   O7    S    
C85   H93   S    
Cr8   O32   S    
Cr1   O17   S    
C112  C116  S    
C69   C85   S    
C56   H48   S    
Cr3   O19   S    
C21   C25   S    
Cr4   O20   S    
C55   H47   S    
C62   C78   S    
C76   C80   S    
C2    O26   A    
C7    H79   S    
C42   H30   S    
C3    O23   A    
C16   C32   S    
C5    H77   S    
C31   C91   S    
C121  H124  S    
C127  H147  S    
C72   C80   S    
C88   H96   S    
C115  H3    S    
C66   H58   S    
C82   C106  S    
C125  H140  S    
C62   N6    S    
C97   O49   A    
C16   H108  S    
C70   H64   S    
C67   C131  S    
Cr7   O27   S    
Cr4   O44   S    
Cr8   O28   S    
C81   C85   S    
C98   O46   A    
C83   C87   S    
C41   H29   S    
O56   H154  S    
C41   C42   S    
C74   C94   S    
C18   C26   S    
C30   C90   S    
C9    H97   S    
C129  O53   D    
C9    C25   S    
C131  O58   S    
C8    C120  S    
C12   C28   S    
C13   C29   S    
C105  O41   A    
C54   C58   S    
C107  O43   A    
C71   H61   S    
C17   H115  S    
C45   C117  S    
C45   O33   A    
C46   C118  S    
C104  O8    A    
C88   H66   S    
N3    C123  S    
C73   H73   S    
C69   C77   S    
C50   H34   S    
C1    C28   S    
Cr1   O45   S    
O58   H155  S    
C2    C27   S    
Cr2   O42   S    
C116  C120  S    
Cr3   O3    S    
Cr4   O48   S    
C52   C55   S    
Cr12  O12   S    
C65   C129  S    
C130  O56   S    
C64   C80   S    
C42   H26   S    
C17   C33   S    
Cr9   O9    S    
C110  C117  S    
C38   H18   S    
C126  H143  S    
C106  O14   A    
C10   H102  S    
C40   H16   S    
C93   H81   S    
C121  H122  S    
C68   C84   S    
C24   C28   S    
C97   O45   A    
C51   H52   S    
N8    H149  S    
C14   H106  S    
C53   C57   S    
C74   H70   S    
C82   C86   S    
C56   C60   S    
C50   C58   S    
C125  H138  S    
C49   H33   S    
C65   C81   S    
Cr6   O50   S    
C15   C31   S    
Cr10  O10   S    
C41   H25   S    
C92   O4    A    
C87   H95   S    
C44   H28   S    
C31   C35   S    
C87   H65   S    
C64   C68   S    
Cr9   O13   S    
C103  O7    A    
C37   H17   S    
Cr2   O2    S    
C112  C119  S    
C116  H4    S    
C22   H6    S    
C41   C57   S    
C47   O35   A    
C109  C110  S    
C63   N7    S    
C48   O36   A    
C122  H126  S    
Cr5   O25   S    
C44   C60   S    
Cr6   O30   S    
C70   H90   S    
C124  H134  S    
Cr1   O21   S    
Cr2   O18   S    
C123  H130  S    
C20   C36   S    
C18   H116  S    
C21   C37   S    
N1    H121  S    
C22   C26   S    
C29   C37   S    
C44   H32   S    
C43   H31   S    
C127  H146  S    
C101  O9    A    
C5    C114  S    
C70   C78   S    
C95   H83   S    
N5    H137  S    
C79   C98   S    
O60   H156  S    
C52   H51   S    
C69   H63   S    
Cr4   O4    S    
C108  O44   A    
C35   N3    S    
C63   C79   S    
N7    H145  S    
C20   H22   S    
C111  H43   S    
C23   H7    S    
C132  O60   S    
Cr7   O51   S    
C67   H59   S    
Cr8   O52   S    
C2    O22   A    
C68   H60   S    
C49   C54   S    
Cr5   O5    S    
C35   H117  S    
C19   H21   S    
C108  O16   A    
C51   C56   S    
C84   C96   S    
Cr7   O31   S    
C33   H119  S    
C8    C115  S    
C85   H67   S    
C13   H109  S    
C83   C107  S    
Cr12  O40   S    
C23   C27   S    
C100  O48   A    
C19   C27   S    
C1    O21   A    
C109  C113  S    
C10   C26   S    
C47   C119  S    
C123  H132  S    
Cr9   O37   S    
C128  H151  S    
C89   O1    A    
C14   C30   S    
C106  O42   A    
C72   C88   S    
C12   H100  S    
C63   C67   S    
C45   O29   A    
C4    O24   A    
C122  H128  S    
C64   N8    S    
Cr5   O17   S    
C111  C120  S    
C121  H123  S    
C124  H136  S    
C6    C113  S    
N8    C128  S    
C81   C93   S    
C83   C95   S    
Cr10  O38   S    
C18   C34   S    
C114  C118  S    
C107  O15   A    
C86   H94   S    
C71   C87   S    
C50   H49   S    
C51   C59   S    
C33   N1    S    
C70   C86   S    
C99   O51   A    
C19   H113  S    
C74   H74   S    
C12   H104  S    
C111  C115  S    
C76   H72   S    
C6    H78   S    
C131  O57   D    
C37   H13   S    
C34   N2    S    
C8    H80   S    
C52   H36   S    
Cr11  O35   S    
Cr4   O24   S    
C66   C130  S    
Cr12  O36   S    
C23   C39   S    
C20   H114  S    
C24   C40   S    
C31   C39   S    
C32   C40   S    
N3    H129  S    
Cr9   O17   S    
C49   H50   S    
C127  H148  S    
C39   H15   S    
C103  O11   A    
C34   H120  S    
C61   N5    S    
C6    C118  S    
N2    H125  S    
C86   H68   S    
