data_mof_unit_65060.cif
_audit_creation_date              2013-03-05T16:53:02-0500
_audit_creation_method            fapswitch 2.2
_symmetry_space_group_name_H-M    P1
_symmetry_Int_Tables_number       1
_space_group_crystal_system       triclinic
_cell_length_a                    15.082801
_cell_length_b                    15.863921
_cell_length_c                    16.678115
_cell_angle_alpha                 89.788486
_cell_angle_beta                  96.053378
_cell_angle_gamma                 90.02042
_cell_volume                      3968.33363049

loop_
_atom_site_label
_atom_site_type_symbol
_atom_site_description
_atom_site_fract_x
_atom_site_fract_y
_atom_site_fract_z
_atom_type_partial_charge
O1    O     O_R   0.573650 0.378020 0.500000 -0.573083
O2    O     O_R   0.426350 0.621980 0.500000 -0.573073
O3    O     O_R   0.426310 0.378020 0.499960 -0.617254
O4    O     O_R   0.573690 0.621980 0.500040 -0.617260
C1    C     C_R   0.500041 0.338975 0.500620 0.931847
C2    C     C_R   0.499959 0.661025 0.499380 0.931843
O5    O     O_R   0.581880 0.499230 0.616150 -0.580587
O6    O     O_R   0.418120 0.500770 0.383850 -0.580588
O7    O     O_R   0.434550 0.499230 0.616110 -0.588705
O8    O     O_R   0.565450 0.500770 0.383890 -0.588708
C3    C     C_R   0.512852 0.499235 0.654135 1.016438
C4    C     C_R   0.487148 0.500766 0.345865 1.016465
Zn1   Zn    Zn3+2 0.598370 0.500000 0.500020 1.125894
Zn2   Zn    Zn3+2 0.401630 0.500000 0.499980 1.125902
C5    C     C_R   0.524408 0.505758 0.741429 -0.351698
C6    C     C_R   0.475591 0.494253 0.258571 -0.351692
C7    C     C_R   0.477954 0.568806 0.779130 0.159734
C8    C     C_R   0.522031 0.431200 0.220863 0.159737
C9    C     C_R   0.488089 0.574455 0.862976 0.320281
C10   C     C_R   0.511893 0.425562 0.137016 0.320288
C11   C     C_R   0.542105 0.515951 0.908731 0.044453
C12   C     C_R   0.457887 0.484079 0.091269 0.044450
C13   C     C_R   0.593335 0.456869 0.871441 0.193407
C14   C     C_R   0.406671 0.543166 0.128566 0.193415
C15   C     C_R   0.584053 0.451275 0.787166 0.271175
C16   C     C_R   0.415957 0.548751 0.212842 0.271166
N1    N     N_2   0.538103 0.510089 0.992235 -0.039100
N2    N     N_2   0.461886 0.489945 0.007764 -0.039098
C17   C     C_R   0.567844 0.956804 0.464390 0.199718
C18   C     C_R   0.432152 0.043196 0.535598 0.199718
C19   C     C_R   0.498661 0.913009 0.496741 -0.202588
C20   C     C_R   0.501335 0.086990 0.503248 -0.202590
C21   C     C_R   0.431065 0.955264 0.532213 0.331356
C22   C     C_R   0.568931 0.044736 0.467776 0.331358
C23   C     C_1   0.499319 0.823955 0.497312 0.197684
C24   C     C_1   0.500679 0.176045 0.502682 0.197683
C25   C     C_1   0.500238 0.250772 0.501752 -0.006914
C26   C     C_1   0.499762 0.749228 0.498244 -0.006909
C27   C     C_R   0.961421 0.490932 0.572747 0.331933
C28   C     C_R   0.038579 0.509069 0.427253 0.331935
C29   C     C_R   0.905028 0.499903 0.499982 -0.285235
C30   C     C_R   0.094972 0.500097 0.500018 -0.285236
C31   C     C_R   0.944469 0.508929 0.427231 0.336929
C32   C     C_R   0.055531 0.491072 0.572769 0.336930
C33   C     C_1   0.807036 0.499931 0.499977 0.378012
C34   C     C_1   0.192964 0.500069 0.500023 0.378017
N3    N     N_1   0.270550 0.500020 0.500020 -0.061180
N4    N     N_1   0.729450 0.499980 0.499980 -0.061183
N5    N     N_R   0.577356 0.371457 0.267627 0.264991
O9    O     O_R   0.543254 0.322481 0.319038 -0.362742
O10   O     O_R   0.661075 0.363571 0.256657 -0.213346
N6    N     N_R   0.422617 0.628535 0.732359 0.264995
O11   O     O_R   0.456713 0.677525 0.680955 -0.362722
O12   O     O_R   0.338887 0.636390 0.743312 -0.213361
Cl1   Cl    Cl    0.563130 0.342550 0.088794 -0.316398
Cl2   Cl    Cl    0.436832 0.657464 0.911186 -0.316382
N7    N     N_R   0.652696 0.401514 0.919724 0.285421
O13   O     O_R   0.649830 0.320491 0.907890 -0.199567
O14   O     O_R   0.706045 0.431551 0.979198 -0.234122
N8    N     N_R   0.347321 0.598536 0.080291 0.285421
O15   O     O_R   0.350210 0.679557 0.092128 -0.199581
O16   O     O_R   0.293955 0.568511 0.020823 -0.234105
Cl3   Cl    Cl    0.646247 0.375154 0.739394 -0.397774
Cl4   Cl    Cl    0.353782 0.624879 0.260623 -0.397799
Cl5   Cl    Cl    0.652275 0.102243 0.423779 -0.349512
Cl6   Cl    Cl    0.347720 0.897758 0.576209 -0.349511
N9    N     N_R   0.636716 0.912148 0.428637 0.256578
O17   O     O_R   0.720328 0.926866 0.452140 -0.236907
O18   O     O_R   0.616118 0.855071 0.373953 -0.305480
N10   N     N_R   0.363278 0.087851 0.571350 0.256580
O19   O     O_R   0.279666 0.073138 0.547841 -0.236909
O20   O     O_R   0.383875 0.144925 0.626037 -0.305486
Cl7   Cl    Cl    0.124354 0.479933 0.664759 -0.360882
Cl8   Cl    Cl    0.875646 0.520068 0.335241 -0.360894
Cl9   Cl    Cl    0.914029 0.479351 0.664683 -0.362791
Cl10  Cl    Cl    0.085971 0.520650 0.335317 -0.362799

loop_
_geom_bond_atom_site_label_1
_geom_bond_atom_site_label_2
_geom_bond_distance
_ccdc_geom_bond_type
C9    Cl2   1.765764 S    
Zn1   N4    1.977124 S    
C18   C20   1.406440 A    
O7    Zn2   1.948077 S    
C19   C21   1.403358 A    
C16   Cl4   1.771589 S    
C5    C7    1.408801 A    
N10   O19   1.301830 A    
C1    C25   1.399302 S    
C29   C31   1.413327 A    
C8    C10   1.393823 A    
O6    C4    1.274529 A    
C14   N8    1.436818 S    
N1    N2    1.246042 D    
O3    C1    1.272145 A    
C31   Cl8   1.767715 S    
C2    C26   1.399300 S    
C11   N1    1.403095 S    
C27   C29   1.413363 A    
C12   N2    1.403092 S    
N8    O16   1.301260 A    
O5    C3    1.274531 A    
O7    C3    1.280234 A    
N7    O13   1.301143 A    
O2    C2    1.272108 A    
O3    Zn2   1.970697 S    
C30   C32   1.413328 A    
N8    O15   1.301129 A    
C10   Cl1   1.765759 S    
O1    C1    1.272106 A    
C20   C24   1.412777 S    
C7    N6    1.435514 S    
C6    C8    1.408799 A    
C24   C25   1.185527 T    
C18   N10   1.439027 S    
C14   C16   1.400878 A    
C21   Cl6   1.771919 S    
C9    C11   1.404162 A    
C27   Cl9   1.767694 S    
C13   C15   1.400885 A    
C11   C13   1.403024 A    
C6    C16   1.410361 A    
C32   Cl7   1.767715 S    
O2    Zn2   1.970537 S    
C12   C14   1.403015 A    
C5    C15   1.410373 A    
O4    C2    1.272143 A    
N7    O14   1.301270 A    
C10   C12   1.404155 A    
C27   C32   1.419406 A    
N9    O17   1.301830 A    
C17   N9    1.439021 S    
C4    C6    1.452000 S    
O5    Zn1   1.978570 S    
C23   C26   1.185525 T    
O1    Zn1   1.970539 S    
N6    O11   1.300487 A    
C22   Cl5   1.771917 S    
C17   C19   1.406443 A    
N5    O9    1.300478 A    
C30   C34   1.477977 S    
C33   N4    1.170226 T    
N9    O18   1.301668 A    
O4    Zn1   1.970697 S    
C13   N7    1.436831 S    
C29   C33   1.477977 S    
C34   N3    1.170226 T    
C15   Cl3   1.771594 S    
C19   C23   1.412777 S    
O6    Zn2   1.978568 S    
C18   C21   1.396318 A    
C7    C9    1.393817 A    
O8    C4    1.280234 A    
Zn2   N3    1.977123 S    
C3    C5    1.452009 S    
C17   C22   1.396322 A    
N10   O20   1.301666 A    
C28   C31   1.419406 A    
C28   Cl10  1.767696 S    
C8    N5    1.435507 S    
N6    O12   1.301038 A    
C28   C30   1.413362 A    
N5    O10   1.301002 A    
O8    Zn1   1.948076 S    
C20   C22   1.403357 A    
