data_mof_unit_36989.cif
_audit_creation_date              2012-12-10T20:45:30-0500
_audit_creation_method            fapswitch 2.2
_symmetry_space_group_name_H-M    P1
_symmetry_Int_Tables_number       1
_space_group_crystal_system       triclinic
_cell_length_a                    10.766285
_cell_length_b                    10.547099
_cell_length_c                    9.921682
_cell_angle_alpha                 89.636684
_cell_angle_beta                  91.13643
_cell_angle_gamma                 90.86574
_cell_volume                      1126.26673116

loop_
_atom_site_label
_atom_site_type_symbol
_atom_type_description
_atom_site_fract_x
_atom_site_fract_y
_atom_site_fract_z
_atom_type_partial_charge
C1    C     C_R   0.521133 0.262634 0.500274 0.914980
C2    C     C_R   0.126446 0.422635 0.977285 -0.283531
C3    C     C_R   0.932541 0.570578 0.386205 0.422525
C4    C     C_R   0.871676 0.542363 0.506962 -0.226220
C5    C     C_R   0.942091 0.532327 0.628002 -0.028395
C6    C     C_R   0.069644 0.533919 0.621206 -0.240618
C7    C     C_R   0.126866 0.523327 0.496966 -0.189626
C8    C     C_R   0.056622 0.540029 0.377030 -0.059611
C9    C     C_R   0.861902 0.620167 0.838513 -0.206319
C10   C     C_R   0.812506 0.606930 0.966301 -0.181188
C11   C     C_R   0.789684 0.486505 0.019709 -0.134515
C12   C     C_R   0.259473 0.503543 0.498461 0.908233
C13   C     C_R   0.814651 0.377670 0.946404 0.434939
C14   C     C_R   0.864257 0.389406 0.815763 0.378193
C15   C     C_R   0.888164 0.512842 0.762405 0.033881
C16   C     C_R   0.567534 0.067713 0.621660 0.219970
C17   C     C_R   0.562573 0.133325 0.499777 -0.295014
C18   C     C_R   0.574908 0.067060 0.377792 0.416364
C19   C     C_R   0.546894 0.938793 0.377054 -0.210250
C20   C     C_R   0.524792 0.875228 0.498978 -0.218165
C21   C     C_R   0.546731 0.937271 0.621339 0.152708
C22   C     C_3   0.656591 0.911946 0.710968 -0.506641
C23   C     C_R   0.504464 0.741009 0.499579 0.894890
C24   C     C_3   0.684898 0.051198 0.703862 -0.415817
C25   C     C_R   0.502497 0.388901 0.072339 0.187794
C26   C     C_R   0.502083 0.610367 0.070935 -0.121931
C27   C     C_R   0.501389 0.610361 0.927667 -0.143925
C28   C     C_R   0.504496 0.388569 0.929812 0.172758
C29   C     C_3   0.409791 0.283243 0.924762 0.234313
C30   C     C_3   0.406374 0.286524 0.078071 -0.546558
C31   C     C_R   0.739465 0.513527 0.501887 0.850611
C32   C     C_R   0.159437 0.546598 0.013820 -0.149679
C33   C     C_R   0.145345 0.587552 0.146540 0.555805
C34   C     C_R   0.098194 0.500644 0.243236 0.077807
C35   C     C_R   0.069441 0.375348 0.205548 -0.181728
C36   C     C_R   0.083256 0.336754 0.073128 -0.121329
H1    H     H_    0.751823 0.476788 0.119258 0.220099
H2    H     H_    0.547240 0.888783 0.282038 0.185047
H3    H     H_    0.629303 0.879549 0.813087 0.208295
H4    H     H_    0.727975 0.853119 0.662658 0.197602
H5    H     H_    0.769818 0.073554 0.645594 0.223489
H6    H     H_    0.194395 0.611752 0.938339 0.159553
H7    H     H_    0.323068 0.310099 0.871522 0.151254
H8    H     H_    0.439010 0.199021 0.128348 0.266081
H9    H     H_    0.031402 0.308779 0.278040 0.153177
H10   H     H_    0.059177 0.240571 0.044258 0.185034
H11   H     H_    0.123488 0.533876 0.713864 0.174826
H12   H     H_    0.880026 0.714325 0.798632 0.161479
H13   H     H_    0.791650 0.690372 0.024067 0.191958
N1    N     N_R   0.499160 0.499140 0.142800 -0.117121
N2    N     N_R   0.499160 0.499180 0.857150 -0.137561
O1    O     O_R   0.500020 0.316790 0.614690 -0.572514
O2    O     O_R   0.500000 0.316760 0.385350 -0.608241
O3    O     O_R   0.316770 0.500030 0.614670 -0.625969
O4    O     O_R   0.316750 0.499990 0.385330 -0.614231
O5    O     O_R   0.500000 0.683240 0.614650 -0.619755
O6    O     O_R   0.499980 0.683210 0.385310 -0.634116
O7    O     O_R   0.683250 0.500010 0.614670 -0.611517
O8    O     O_R   0.683230 0.499970 0.385330 -0.616750
Zn1   Zn    Zn3+2 0.500010 0.500020 0.653130 0.963746
Zn2   Zn    Zn3+2 0.499990 0.499980 0.346870 0.953159
H14   H     H_    0.134208 0.391539 0.874656 0.165363
O9    O     O_3   0.791166 0.261965 0.007367 -0.785427
H15   H     H_    0.826248 0.193491 0.952862 0.368345
O10   O     O_3   0.888800 0.280062 0.745439 -0.830377
H16   H     H_    0.919657 0.301124 0.654750 0.339246
O11   O     O_3   0.614151 0.123234 0.260019 -0.760311
H17   H     H_    0.663223 0.200533 0.283540 0.362147
H18   H     H_    0.683069 0.098168 0.802892 0.236588
H19   H     H_    0.502806 0.699766 0.123478 0.163658
H20   H     H_    0.500806 0.699670 0.874008 0.164874
O12   O     O_3   0.457243 0.169981 0.874455 -0.735770
H21   H     H_    0.526718 0.142502 0.934477 0.358956
H22   H     H_    0.319372 0.321754 0.119788 0.204522
O13   O     O_3   0.175827 0.712093 0.175974 -0.769891
H23   H     H_    0.169191 0.725989 0.274102 0.334671
O14   O     O_3   0.872625 0.620604 0.274464 -0.781157
H24   H     H_    0.805658 0.676025 0.306028 0.332829

loop_
_geom_bond_atom_site_label_1
_geom_bond_atom_site_label_2
_ccdc_geom_bond_type
C16   C21   A    
C35   C36   A    
C7    C8    A    
O3    Zn1   S    
O14   H24   S    
C25   C28   A    
C26   C27   A    
C31   O7    A    
C28   C29   S    
C34   C35   A    
C26   N1    A    
C5    C6    A    
C30   H22   S    
C28   N2    A    
O7    Zn1   S    
C2    C32   A    
C18   C19   A    
C31   O8    A    
C11   H1    S    
C1    O2    A    
C25   N1    A    
O1    Zn1   S    
O2    Zn2   S    
C33   O13   S    
C19   C20   A    
C16   C17   A    
C36   H10   S    
C9    C10   A    
C29   O12   S    
C16   C24   S    
C21   C22   S    
C29   H7    S    
C24   H5    S    
C30   H8    S    
C27   N2    A    
C24   H18   S    
C33   C34   A    
C7    C12   S    
O8    Zn2   S    
C6    H11   S    
O11   H17   S    
C12   O4    A    
C23   O5    A    
C3    C8    A    
O12   H21   S    
C18   O11   S    
O5    Zn1   S    
O13   H23   S    
C29   C30   S    
C19   H2    S    
C13   O9    S    
C20   C23   S    
C22   H4    S    
C17   C18   A    
C8    C34   S    
C26   H19   S    
C22   C24   S    
C3    C4    A    
C3    O14   S    
C27   H20   S    
C2    C36   A    
C25   C30   S    
C23   O6    A    
C4    C5    A    
O6    Zn2   S    
C6    C7    A    
C1    C17   S    
C32   C33   A    
C9    C15   A    
C11   C13   A    
C22   H3    S    
O4    Zn2   S    
C14   O10   S    
C1    O1    A    
C5    C15   S    
C4    C31   S    
C10   C11   A    
O9    H15   S    
C20   C21   A    
C9    H12   S    
O10   H16   S    
N1    Zn2   S    
C32   H6    S    
C14   C15   A    
N2    Zn1   S    
C13   C14   A    
C10   H13   S    
C12   O3    A    
C2    H14   S    
C35   H9    S    
