data_mof_unit_41713.cif
_audit_creation_date              2012-12-11T15:53:44-0500
_audit_creation_method            fapswitch 2.2
_symmetry_space_group_name_H-M    P1
_symmetry_Int_Tables_number       1
_space_group_crystal_system       triclinic
_cell_length_a                    10.721084
_cell_length_b                    10.670571
_cell_length_c                    16.992976
_cell_angle_alpha                 80.401
_cell_angle_beta                  99.502349
_cell_angle_gamma                 119.162211
_cell_volume                      1665.86322032

loop_
_atom_site_label
_atom_site_type_symbol
_atom_type_description
_atom_site_fract_x
_atom_site_fract_y
_atom_site_fract_z
_atom_type_partial_charge
C1    C     C_R   0.384824 0.284753 0.631757 0.535883
C2    C     C_R   0.514805 0.721086 0.734970 0.055662
C3    C     C_R   0.491413 0.732026 0.811614 -0.131932
C4    C     C_3   0.096339 0.486207 0.773820 -0.010761
C5    C     C_3   0.120610 0.471185 0.690700 -0.019361
C6    C     C_R   0.401071 0.620692 0.686466 0.053973
C7    C     C_1   0.850945 0.669786 0.702716 -0.037388
C8    C     C_1   0.899062 0.704463 0.769330 -0.053309
C9    C     C_1   0.365229 0.234952 0.714375 -0.032283
C10   C     C_1   0.333659 0.188035 0.781667 -0.023478
C11   C     C_1   0.369350 0.636000 0.274866 -0.054995
C12   C     C_R   0.414044 0.620308 0.602087 0.593215
C13   C     C_1   0.342250 0.654088 0.204273 -0.056700
C14   C     C_R   0.875090 0.688565 0.168894 0.017953
C15   C     C_R   0.936849 0.621712 0.227998 0.038798
C16   C     C_R   0.921469 0.614179 0.307233 0.026806
C17   C     C_R   0.819052 0.776029 0.272915 -0.159722
C18   C     C_R   0.830119 0.778944 0.192096 -0.163447
C19   C     C_3   0.926776 0.475589 0.236655 -0.264646
C20   C     C_3   0.906583 0.465325 0.324173 -0.276119
C21   C     C_R   0.849043 0.679170 0.329812 0.022097
C22   C     C_R   0.307138 0.130729 0.169590 0.033689
C23   C     C_R   0.780525 0.620954 0.626452 0.537121
C24   C     C_R   0.187223 0.108686 0.203468 0.013584
C25   C     C_R   0.191970 0.117050 0.283037 0.020476
C26   C     C_R   0.431185 0.142025 0.303246 -0.127359
C27   C     C_R   0.427472 0.135656 0.221148 0.074283
C28   C     C_3   0.091864 0.176596 0.178599 -0.264890
C29   C     C_3   0.096756 0.187536 0.266609 -0.264110
C30   C     C_R   0.319220 0.148278 0.332384 -0.001627
C31   C     C_R   0.948794 0.725832 0.851675 0.548169
C32   C     C_R   0.316144 0.704980 0.899060 0.537910
C33   C     C_R   0.286516 0.118872 0.858519 0.546902
C34   C     C_R   0.349632 0.223014 0.401549 0.556506
C35   C     C_R   0.895051 0.694124 0.086825 0.550686
C36   C     C_R   0.316021 0.696916 0.122740 0.548990
C37   C     C_R   0.283821 0.103774 0.086767 0.553047
C38   C     C_R   0.403174 0.624781 0.358885 0.569351
C39   C     C_R   0.775891 0.625560 0.401376 0.544556
C40   C     C_R   0.354302 0.649980 0.838879 -0.013237
C41   C     C_R   0.252210 0.534356 0.796879 0.015481
C42   C     C_R   0.275052 0.520365 0.721637 0.003887
Cr1   Cr    Cr6+3 0.608440 0.389080 0.519680 1.013839
Cr2   Cr    Cr6+3 0.288640 0.400090 0.490760 0.994423
Cr3   Cr    Cr6+3 0.602940 0.710800 0.489510 1.027795
Cr4   Cr    Cr6+3 0.052530 0.947560 0.964210 1.049022
Cr5   Cr    Cr6+3 0.059970 0.626800 0.992920 1.038445
Cr6   Cr    Cr6+3 0.373320 0.938440 0.995370 1.052091
H1    H     H_    0.830811 0.397707 0.201826 0.134881
H2    H     H_    0.797742 0.380464 0.338864 0.151349
H3    H     H_    0.996838 0.462233 0.365808 0.159342
H4    H     H_    0.527999 0.158896 0.341945 0.131902
H5    H     H_    0.983944 0.100479 0.152251 0.155264
H6    H     H_    0.145408 0.283248 0.143057 0.143205
H7    H     H_    0.151071 0.301741 0.280248 0.157173
H8    H     H_    0.991235 0.118299 0.291027 0.139371
H9    H     H_    0.576060 0.817653 0.844998 0.158055
H10   H     H_    0.067977 0.572506 0.775922 0.145348
H11   H     H_    0.064090 0.358858 0.673515 0.164718
H12   H     H_    0.770094 0.835276 0.288701 0.141188
H13   H     H_    0.795804 0.844497 0.147883 0.131775
H14   H     H_    0.029580 0.480521 0.227930 0.152208
O1    O     O_R   0.754020 0.497590 0.609930 -0.518677
O2    O     O_R   0.295080 0.533620 0.397890 -0.504926
O3    O     O_R   0.485280 0.746620 0.388440 -0.495086
O4    O     O_R   0.720550 0.696220 0.420010 -0.524860
O5    O     O_3   0.500010 0.499990 0.499980 -0.314957
O6    O     O_R   0.163320 0.092900 0.874450 -0.486162
O7    O     O_R   0.934650 0.822080 0.882840 -0.488865
O8    O     O_R   0.915520 0.604140 0.893670 -0.486881
O9    O     O_R   0.191760 0.638110 0.923230 -0.502344
O10   O     O_R   0.406180 0.826930 0.920660 -0.517768
O11   O     O_R   0.358620 0.062870 0.901950 -0.494505
O12   O     O_R   0.481420 0.271390 0.600630 -0.470041
O13   O     O_R   0.163910 0.085460 0.050210 -0.514190
O14   O     O_R   0.935200 0.815170 0.045770 -0.496687
O15   O     O_R   0.916120 0.596690 0.069430 -0.514303
O16   O     O_R   0.192310 0.631200 0.086170 -0.507673
O17   O     O_R   0.406770 0.819480 0.096420 -0.487729
O18   O     O_R   0.359170 0.055960 0.064880 -0.464646
O19   O     O_3   0.161940 0.837600 0.984160 -0.279171
O20   O     O_R   0.263810 0.254550 0.589590 -0.509671
O21   O     O_R   0.300820 0.531200 0.560890 -0.509770
O22   O     O_R   0.491480 0.744020 0.564270 -0.458476
O23   O     O_R   0.726290 0.693800 0.583010 -0.489404
O24   O     O_R   0.747830 0.500190 0.434090 -0.523833
O25   O     O_R   0.475680 0.273800 0.437630 -0.500378
O26   O     O_R   0.257620 0.257160 0.413750 -0.524653
N1    N     N_3   0.647607 0.824441 0.703582 -0.584010
H15   H     H_    0.731284 0.829804 0.746513 0.239839
H16   H     H_    0.651738 0.925560 0.696997 0.250963
N2    N     N_3   0.547551 0.142230 0.190020 -0.580616
H17   H     H_    0.594587 0.240046 0.154119 0.220273
H18   H     H_    0.625382 0.143484 0.236422 0.212729
I1    I     I_    0.964693 0.284368 0.837951 -0.353876
N3    N     N_3   0.104317 0.576800 0.628638 -0.602808
H19   H     H_    0.072963 0.532529 0.573825 0.256879
H20   H     H_    0.019161 0.590430 0.639228 0.241225

loop_
_geom_bond_atom_site_label_1
_geom_bond_atom_site_label_2
_ccdc_geom_bond_type
C5    C42   S    
C16   C21   A    
C11   C38   S    
C41   C42   A    
C14   C18   A    
C19   C20   S    
Cr2   O21   S    
Cr4   O14   S    
Cr1   O1    S    
C7    C8    T    
C32   O10   A    
Cr2   O2    S    
C15   C19   S    
C26   C27   A    
C1    O12   A    
Cr6   O17   S    
C28   C29   S    
C20   H3    S    
Cr2   O20   S    
C6    C12   S    
C4    C41   S    
C19   H14   S    
C15   C16   A    
C4    I1    S    
Cr6   O19   S    
C12   O22   A    
Cr4   O7    S    
C20   H2    S    
C31   O8    A    
N3    H20   S    
Cr3   O5    S    
N1    H16   S    
C9    C10   T    
Cr1   O12   S    
C23   O1    A    
C37   O13   A    
C8    C31   S    
C2    C6    A    
Cr6   O10   S    
Cr4   O13   S    
C32   O9    A    
C38   O2    A    
C25   C29   S    
C37   O18   A    
C35   O14   A    
C30   C34   S    
C1    C9    S    
C24   C25   A    
C13   C36   S    
C14   C35   S    
C5    H11   S    
C29   H7    S    
C1    O20   A    
C22   C37   S    
C35   O15   A    
C17   C21   A    
C12   O21   A    
C2    N1    S    
Cr3   O23   S    
Cr5   O8    S    
Cr4   O6    S    
C26   H4    S    
Cr4   O19   S    
C19   H1    S    
C21   C39   S    
C38   O3    A    
C16   C20   S    
N3    H19   S    
N2    H18   S    
C17   C18   A    
C27   N2    S    
C34   O26   A    
Cr5   O9    S    
C3    H9    S    
C33   O11   A    
C40   C41   A    
C3    C40   A    
C26   C30   A    
C22   C27   A    
Cr3   O3    S    
C39   O4    A    
C22   C24   A    
Cr3   O22   S    
Cr5   O15   S    
C5    N3    S    
C25   C30   A    
C32   C40   S    
C28   H6    S    
Cr1   O24   S    
Cr6   O11   S    
C24   C28   S    
C4    C5    S    
C36   O17   A    
C28   H5    S    
C18   H13   S    
C29   H8    S    
C39   O24   A    
Cr1   O25   S    
Cr6   O18   S    
C2    C3    A    
C23   O23   A    
C36   O16   A    
C11   C13   T    
C7    C23   S    
N2    H17   S    
C10   C33   S    
C34   O25   A    
Cr5   O19   S    
C17   H12   S    
C31   O7    A    
Cr1   O5    S    
C6    C42   A    
C4    H10   S    
Cr3   O4    S    
C14   C15   A    
Cr2   O5    S    
Cr5   O16   S    
N1    H15   S    
Cr2   O26   S    
C33   O6    A    
