data_mof_unit_19507.cif
_audit_creation_date              2013-03-05T16:47:43-0500
_audit_creation_method            fapswitch 2.2
_symmetry_space_group_name_H-M    P1
_symmetry_Int_Tables_number       1
_space_group_crystal_system       triclinic
_cell_length_a                    10.852367
_cell_length_b                    12.878702
_cell_length_c                    11.896055
_cell_angle_alpha                 98.1616
_cell_angle_beta                  94.058279
_cell_angle_gamma                 92.892349
_cell_volume                      1638.59305343

loop_
_atom_site_label
_atom_site_type_symbol
_atom_site_description
_atom_site_fract_x
_atom_site_fract_y
_atom_site_fract_z
_atom_type_partial_charge
O1    O     O_R   0.506570 0.354460 0.582000 -0.586860
O2    O     O_R   0.493430 0.645540 0.418000 -0.586387
O3    O     O_R   0.490940 0.341410 0.386200 -0.587530
O4    O     O_R   0.509060 0.658590 0.613800 -0.589714
C1    C     C_R   0.496312 0.300224 0.480044 0.814002
C2    C     C_R   0.503728 0.699772 0.519936 0.813061
O5    O     O_R   0.327460 0.506540 0.597900 -0.577453
O6    O     O_R   0.672540 0.493460 0.402100 -0.577287
O7    O     O_R   0.311830 0.493480 0.402100 -0.572204
O8    O     O_R   0.688170 0.506520 0.597900 -0.572180
C3    C     C_R   0.262597 0.498918 0.499138 0.781731
C4    C     C_R   0.737402 0.501251 0.500904 0.781759
Cu1   Cu    Cu3+1 0.509250 0.507730 0.615930 0.963001
Cu2   Cu    Cu3+1 0.490750 0.492270 0.384070 0.964174
H1    H     H_    0.200900 0.375863 0.975086 0.162612
H2    H     H_    0.797341 0.621734 0.025016 0.160396
C5    C     C_R   0.140242 0.499120 0.097872 0.361946
C6    C     C_R   0.860250 0.499950 0.902185 0.367870
C7    C     C_R   0.102139 0.523518 0.208416 -0.162796
C8    C     C_R   0.899235 0.476389 0.791855 -0.164177
H3    H     H_    0.076681 0.602255 0.238795 0.178474
H4    H     H_    0.926412 0.398171 0.761555 0.176017
C9    C     C_R   0.095972 0.446686 0.280558 0.054830
C10   C     C_R   0.903875 0.553345 0.719753 0.053636
C11   C     C_R   0.126391 0.344008 0.241795 -0.120491
C12   C     C_R   0.870848 0.655307 0.758390 -0.113712
H5    H     H_    0.119719 0.284530 0.297394 0.139669
H6    H     H_    0.875139 0.714841 0.702674 0.139858
C13   C     C_R   0.163368 0.317881 0.131084 0.134258
C14   C     C_R   0.833008 0.680600 0.868948 0.127846
C15   C     C_R   0.171430 0.396002 0.060093 -0.178006
C16   C     C_R   0.826873 0.602386 0.939932 -0.187319
C17   C     C_R   0.923737 0.475542 0.399556 -0.209327
C18   C     C_R   0.076290 0.525118 0.600642 -0.211866
H7    H     H_    0.865355 0.454467 0.321034 0.204056
H8    H     H_    0.134703 0.546007 0.679175 0.203692
C19   C     C_R   0.871771 0.502307 0.503111 -0.096911
C20   C     C_R   0.128240 0.498277 0.497054 -0.096794
C21   C     C_R   0.949354 0.527264 0.605416 0.028808
C22   C     C_R   0.050628 0.473406 0.394801 0.029461
C23   C     C_R   0.515993 0.812315 0.528848 -0.115652
C24   C     C_R   0.484150 0.187666 0.471030 -0.114248
C25   C     C_R   0.369618 0.024082 0.395899 0.371388
C26   C     C_R   0.630778 0.975841 0.603659 0.376101
C27   C     C_R   0.387514 0.132339 0.400727 -0.235710
C28   C     C_R   0.613169 0.867542 0.598476 -0.238769
C29   C     C_R   0.565112 0.136891 0.537278 -0.206194
C30   C     C_R   0.434761 0.863137 0.462915 -0.206256
C31   C     C_R   0.549394 0.028668 0.536029 0.008148
C32   C     C_R   0.450686 0.971322 0.463907 0.009485
H9    H     H_    0.359206 0.817021 0.411989 0.196961
H10   H     H_    0.640423 0.183045 0.588527 0.197285
H11   H     H_    0.676280 0.825876 0.648010 0.152737
H12   H     H_    0.325084 0.173884 0.350315 0.151891
N1    N     N_R   0.523180 0.519350 0.790130 -0.206518
N2    N     N_R   0.476820 0.480650 0.209870 -0.205305
C33   C     C_R   0.504756 0.364769 0.036663 0.193529
C34   C     C_R   0.496876 0.635524 0.963466 0.199125
C35   C     C_R   0.474529 0.382078 0.150351 -0.030582
C36   C     C_R   0.526144 0.617951 0.849594 -0.025873
C37   C     C_R   0.507493 0.565423 0.151835 0.325625
C38   C     C_R   0.492777 0.434695 0.848348 0.326740
C39   C     C_R   0.498971 0.551143 0.029344 -0.112190
C40   C     C_R   0.501657 0.449113 0.970812 -0.110183
H13   H     H_    0.535655 0.685164 0.806296 0.185566
H14   H     H_    0.464851 0.314815 0.193577 0.188688
C41   C     C_3   0.423157 0.331648 0.789915 -0.285339
C42   C     C_3   0.295116 0.344853 0.732625 -0.754130
H15   H     H_    0.262676 0.423631 0.761458 0.279371
H16   H     H_    0.294870 0.328926 0.638791 0.254106
H17   H     H_    0.225349 0.286628 0.755414 0.215249
H18   H     H_    0.482065 0.280360 0.737589 0.240620
H19   H     H_    0.398439 0.280519 0.852711 0.184222
C43   C     C_3   0.577306 0.668296 0.210559 -0.287070
C44   C     C_3   0.705228 0.654847 0.267927 -0.751356
H20   H     H_    0.705392 0.670742 0.361751 0.253668
H21   H     H_    0.737545 0.576062 0.238853 0.278196
H22   H     H_    0.775210 0.713020 0.245358 0.221939
H23   H     H_    0.602628 0.719390 0.148032 0.183558
H24   H     H_    0.518377 0.719792 0.262635 0.241017
N3    N     N_R   0.553690 0.265697 0.995161 0.123758
O9    O     O_R   0.636688 0.261741 0.921321 -0.258902
O10   O     O_R   0.527545 0.181961 0.040737 -0.339637
N4    N     N_R   0.450248 0.735375 0.005182 0.121934
O11   O     O_R   0.483697 0.819824 0.963800 -0.343401
O12   O     O_R   0.364503 0.740271 0.076373 -0.255836
N5    N     N_R   0.144514 0.578136 0.023762 0.137390
O13   O     O_R   0.186267 0.557938 0.923640 -0.403128
O14   O     O_R   0.104052 0.670469 0.054752 -0.318312
N6    N     N_R   0.856867 0.420709 0.976046 0.138893
O15   O     O_R   0.816439 0.440672 0.076753 -0.400053
O16   O     O_R   0.895771 0.328059 0.943791 -0.324923
C45   C     C_3   0.194604 0.207087 0.088633 -0.436059
C46   C     C_3   0.097435 0.152950 0.997175 -0.612616
H25   H     H_    0.004464 0.152266 0.030856 0.284442
H26   H     H_    0.095153 0.193837 0.920894 0.252549
H27   H     H_    0.120772 0.070474 0.971054 0.246649
H28   H     H_    0.286269 0.208469 0.052898 0.225991
H29   H     H_    0.200771 0.159631 0.159690 0.241430
C47   C     C_3   0.798130 0.790513 0.910699 -0.406943
C48   C     C_3   0.911058 0.868309 0.928149 -0.624646
H30   H     H_    0.979995 0.845684 0.992420 0.284803
H31   H     H_    0.954718 0.870821 0.846858 0.259745
H32   H     H_    0.882245 0.948186 0.959161 0.259326
H33   H     H_    0.728845 0.815279 0.848196 0.224026
H34   H     H_    0.754677 0.793251 0.992878 0.219860
N7    N     N_R   0.268570 0.970023 0.322629 0.108212
O17   O     O_R   0.161267 0.010681 0.318441 -0.364131
O18   O     O_R   0.289384 0.892726 0.244815 -0.287632
N8    N     N_R   0.732012 0.029845 0.676719 0.109917
O19   O     O_R   0.839457 0.989396 0.680166 -0.372458
O20   O     O_R   0.711293 0.106627 0.755172 -0.290231

loop_
_geom_bond_atom_site_label_1
_geom_bond_atom_site_label_2
_geom_bond_distance
_ccdc_geom_bond_type
C26   C31   1.416223 A    
Cu2   N2    2.050602 S    
N5    O13   1.300733 A    
C45   C46   1.526387 S    
C1    C24   1.436948 S    
N3    O9    1.299778 A    
C29   C31   1.393442 A    
O5    C3    1.314795 A    
C47   H33   1.110112 S    
C48   H30   1.110605 S    
C38   C41   1.542024 S    
O1    C1    1.305316 A    
C7    H3    1.083300 S    
C10   C12   1.401254 A    
C35   H14   1.072750 S    
C33   C35   1.403913 A    
C34   C36   1.402938 A    
C9    C22   1.478686 S    
N1    C38   1.409812 A    
C14   C47   1.508229 S    
O4    Cu1   1.946744 S    
C10   C21   1.479349 S    
C37   C39   1.438330 A    
C41   H18   1.102109 S    
C4    C19   1.455943 S    
C44   H21   1.107059 S    
N8    O19   1.301254 A    
C38   C40   1.437935 A    
C5    C7    1.404208 A    
C30   H9    1.081880 S    
C8    C10   1.401058 A    
C42   H15   1.106909 S    
C2    C23   1.436890 S    
C23   C28   1.391940 A    
C41   H19   1.101721 S    
C14   C16   1.405279 A    
C45   H29   1.111463 S    
C18   H8    1.083803 S    
C30   C32   1.393548 A    
C48   H31   1.110365 S    
C18   C20   1.397469 A    
N1    C36   1.360726 A    
N7    O18   1.299816 A    
O2    C2    1.305095 A    
N3    O10   1.301651 A    
C26   C28   1.390204 A    
C11   C13   1.404073 A    
C17   C22   1.383711 A    
C43   C44   1.531903 S    
C41   C42   1.531986 S    
C6    N6    1.438827 S    
N4    O11   1.301706 A    
O4    C2    1.301367 A    
O7    Cu2   1.969141 S    
C13   C45   1.508099 S    
C46   H27   1.110634 S    
C17   C19   1.397079 A    
C18   C21   1.384240 A    
C24   C27   1.392206 A    
C3    C20   1.456141 S    
C7    C9    1.400962 A    
C44   H20   1.105656 S    
C34   N4    1.440842 S    
O7    C3    1.300411 A    
N6    O16   1.301158 A    
O6    C4    1.315044 A    
C25   N7    1.436092 S    
C46   H26   1.111381 S    
C25   C27   1.390384 A    
O3    Cu2   1.946743 S    
O8    C4    1.300062 A    
C42   H16   1.105717 S    
C8    H4    1.083317 S    
C36   H13   1.072533 S    
C12   C14   1.404566 A    
C48   H32   1.110471 S    
C43   H23   1.100652 S    
N5    O14   1.301497 A    
C11   H5    1.083734 S    
C5    C15   1.406283 A    
C33   N3    1.442350 S    
O1    Cu1   1.956129 S    
N7    O17   1.301326 A    
C33   C40   1.426970 A    
C34   C39   1.427380 A    
O6    Cu2   1.968376 S    
C5    N5    1.438989 S    
C12   H6    1.083693 S    
N4    O12   1.299777 A    
O3    C1    1.301181 A    
O8    Cu1   1.969141 S    
C27   H12   1.084034 S    
C25   C32   1.416298 A    
H1    C15   1.082532 S    
C29   H10   1.081913 S    
C37   C43   1.542182 S    
H2    C16   1.082423 S    
C47   H34   1.111966 S    
N2    C35   1.361119 A    
C19   C21   1.417722 A    
C20   C22   1.417319 A    
N6    O15   1.300836 A    
C42   H17   1.112888 S    
C28   H11   1.083519 S    
C47   C48   1.526397 S    
C17   H7    1.083760 S    
C23   C30   1.388113 A    
C6    C8    1.404335 A    
C24   C29   1.388160 A    
C9    C11   1.400972 A    
C46   H25   1.111720 S    
O2    Cu2   1.956130 S    
C44   H22   1.112971 S    
N8    O20   1.299814 A    
C39   C40   1.399746 A    
O5    Cu1   1.968376 S    
C6    C16   1.405814 A    
C13   C15   1.405658 A    
C31   C32   1.428009 A    
N2    C37   1.410407 A    
C43   H24   1.102180 S    
Cu1   Cu2   2.729354 S    
C45   H28   1.109431 S    
Cu1   N1    2.050603 S    
C26   N8    1.436030 S    
