data_mof_unit_8877.cif
_audit_creation_date              2012-12-11T14:43:40-0500
_audit_creation_method            fapswitch 2.2
_symmetry_space_group_name_H-M    P1
_symmetry_Int_Tables_number       1
_space_group_crystal_system       triclinic
_cell_length_a                    20.798564
_cell_length_b                    7.106702
_cell_length_c                    16.370824
_cell_angle_alpha                 89.980749
_cell_angle_beta                  92.516478
_cell_angle_gamma                 90.015783
_cell_volume                      2417.42459172

loop_
_atom_site_label
_atom_site_type_symbol
_atom_type_description
_atom_site_fract_x
_atom_site_fract_y
_atom_site_fract_z
_atom_type_partial_charge
O1    O     O_R   0.564840 0.505290 0.579830 -0.535785
O2    O     O_R   0.435160 0.005290 0.420170 -0.535789
O3    O     O_R   0.556720 0.179930 0.409350 -0.537181
O4    O     O_R   0.443280 0.679930 0.590650 -0.537306
C1    C     C_R   0.570069 0.344533 0.380650 0.710470
C2    C     C_R   0.429920 0.844428 0.619350 0.710413
O5    O     O_R   0.572280 0.175810 0.578530 -0.542822
O6    O     O_R   0.427720 0.675810 0.421470 -0.542832
O7    O     O_R   0.450830 0.001920 0.590540 -0.535488
O8    O     O_R   0.549170 0.501920 0.409460 -0.535527
C3    C     C_R   0.589809 0.342995 0.605256 0.702819
C4    C     C_R   0.410195 0.842996 0.394738 0.702936
O9    O     O_3   0.460130 0.338030 0.503750 -0.373218
O10   O     O_3   0.539870 0.838030 0.496250 -0.373160
V1    V     V_3+5 0.507400 0.064560 0.499310 1.431230
V2    V     V_3+5 0.492600 0.564560 0.500690 1.431099
C5    C     C_R   0.144272 0.921886 0.166946 -0.077270
C6    C     C_R   0.855753 0.421920 0.833023 -0.077165
C7    C     C_R   0.356935 0.841164 0.331054 -0.079547
C8    C     C_R   0.643075 0.341168 0.668935 -0.079710
C9    C     C_R   0.299849 0.668600 0.219670 -0.029771
C10   C     C_R   0.700150 0.168587 0.780342 -0.029130
C11   C     C_R   0.353212 0.692184 0.274555 -0.184752
C12   C     C_R   0.646786 0.192158 0.725460 -0.184676
C13   C     C_R   0.306730 0.972227 0.331126 -0.218494
C14   C     C_R   0.693295 0.472273 0.668838 -0.218518
C15   C     C_R   0.252555 0.952016 0.277009 0.132616
C16   C     C_R   0.747473 0.452068 0.722954 0.132561
C17   C     C_R   0.248465 0.800146 0.220330 0.079072
C18   C     C_R   0.751547 0.300162 0.779655 0.078909
C19   C     C_R   0.194117 0.788927 0.164872 -0.193894
C20   C     C_R   0.805894 0.288928 0.835110 -0.193847
C21   C     C_R   0.148817 0.067260 0.224908 -0.095940
C22   C     C_R   0.851231 0.567341 0.775035 -0.095909
C23   C     C_R   0.202119 0.082232 0.279240 -0.122606
C24   C     C_R   0.797926 0.582318 0.720703 -0.122553
H1    H     H_    0.191156 0.683881 0.117234 0.156828
H2    H     H_    0.808843 0.183828 0.882757 0.156881
H3    H     H_    0.111234 0.172000 0.227275 0.163636
H4    H     H_    0.888834 0.672104 0.772641 0.163360
H5    H     H_    0.204292 0.197955 0.322379 0.134487
H6    H     H_    0.795766 0.698065 0.677544 0.134398
H7    H     H_    0.391765 0.589395 0.274851 0.150669
H8    H     H_    0.608225 0.089339 0.725187 0.150742
H9    H     H_    0.308795 0.086208 0.375184 0.119274
H10   H     H_    0.691238 0.586281 0.624761 0.119342
C25   C     C_R   0.381220 0.805823 0.837874 -0.016353
C26   C     C_R   0.618450 0.312689 0.161794 -0.016437
H11   H     H_    0.469862 0.793219 0.774460 0.147391
H12   H     H_    0.529788 0.300743 0.225196 0.147329
H13   H     H_    0.296401 0.824725 0.960071 0.164697
H14   H     H_    0.703316 0.332336 0.039657 0.164546
C27   C     C_R   0.389868 0.850054 0.691466 -0.064996
C28   C     C_R   0.610115 0.350704 0.308547 -0.064880
C29   C     C_R   0.079164 0.943347 0.731149 0.133296
C30   C     C_R   0.920929 0.440997 0.268926 0.133194
C31   C     C_R   0.115007 0.942777 0.661443 -0.112064
C32   C     C_R   0.885132 0.439210 0.338665 -0.112010
C33   C     C_R   0.181319 0.915489 0.666852 -0.194818
C34   C     C_R   0.818786 0.412601 0.333219 -0.194873
C35   C     C_R   0.214577 0.888816 0.743255 0.089794
C36   C     C_R   0.785435 0.388053 0.256740 0.089743
C37   C     C_R   0.177530 0.886122 0.814805 0.043093
C38   C     C_R   0.822425 0.386787 0.185137 0.043091
C39   C     C_R   0.283254 0.865595 0.750773 0.080184
C40   C     C_R   0.716710 0.366013 0.249188 0.080355
C41   C     C_R   0.313381 0.834346 0.829725 0.062659
C42   C     C_R   0.686417 0.338507 0.170066 0.062381
C43   C     C_R   0.275413 0.837316 0.898788 -0.148591
C44   C     C_R   0.724361 0.342576 0.100990 -0.149398
C45   C     C_R   0.209178 0.861509 0.891470 -0.184396
C46   C     C_R   0.790676 0.364839 0.108383 -0.184264
C47   C     C_R   0.323118 0.873587 0.682432 -0.207270
C48   C     C_R   0.676953 0.371831 0.317663 -0.207147
C49   C     C_R   0.418316 0.816595 0.768669 -0.196749
C50   C     C_R   0.581451 0.321781 0.231124 -0.196997
C51   C     C_R   0.109543 0.912378 0.808342 -0.125555
C52   C     C_R   0.890463 0.411941 0.191650 -0.125510
H15   H     H_    0.304063 0.896944 0.621055 0.095837
H16   H     H_    0.696142 0.391816 0.379202 0.095647
H17   H     H_    0.204934 0.916625 0.609678 0.123041
H18   H     H_    0.795211 0.412969 0.390419 0.123089
H19   H     H_    0.091247 0.965152 0.602057 0.157169
H20   H     H_    0.908952 0.460180 0.398111 0.157212
H21   H     H_    0.182907 0.861989 0.947139 0.098837
H22   H     H_    0.816920 0.366328 0.052693 0.098621
O11   O     O_R   0.950790 0.256670 0.090520 -0.533445
O12   O     O_R   0.049210 0.756670 0.909480 -0.533493
O13   O     O_R   0.927720 0.590370 0.921470 -0.539644
O14   O     O_R   0.072280 0.090370 0.078530 -0.539541
C53   C     C_R   0.909949 0.422460 0.895246 0.697655
C54   C     C_R   0.090063 0.922449 0.104740 0.697609
O15   O     O_R   0.943270 0.586180 0.090640 -0.530983
O16   O     O_R   0.056730 0.086180 0.909360 -0.530901
O17   O     O_R   0.064850 0.759970 0.079840 -0.526315
O18   O     O_R   0.935150 0.259970 0.920160 -0.526200
C55   C     C_R   0.930235 0.417976 0.118927 0.723486
C56   C     C_R   0.069771 0.918057 0.881073 0.723412
O19   O     O_3   0.039850 0.428050 0.996240 -0.369305
O20   O     O_3   0.960150 0.928050 0.003760 -0.369326
V3    V     V_3+5 0.992610 0.701540 0.000700 1.493984
V4    V     V_3+5 0.007390 0.201540 0.999300 1.494326
I1    I     I_    0.978811 0.996501 0.715563 -0.426940
I2    I     I_    0.021313 0.493542 0.284595 -0.427198
C57   C     C_2   0.299333 0.501204 0.165220 0.762537
O21   O     O_2   0.349026 0.451647 0.134206 -0.517509
O22   O     O_R   0.243282 0.394748 0.152329 -0.673244
H23   H     H_    0.249659 0.282803 0.115157 0.300253
C58   C     C_2   0.700655 0.001176 0.834827 0.762536
O23   O     O_2   0.650981 0.951721 0.865950 -0.517481
O24   O     O_R   0.756675 0.894611 0.847637 -0.673313
H24   H     H_    0.750294 0.782651 0.884838 0.299942
C59   C     C_2   0.415707 0.758152 0.916576 0.772362
O25   O     O_2   0.393336 0.642500 0.962817 -0.533409
O26   O     O_R   0.475842 0.838856 0.935659 -0.634316
H25   H     H_    0.495282 0.793495 0.990041 0.336117
C60   C     C_2   0.583659 0.270407 0.082723 0.773416
O27   O     O_2   0.605179 0.155371 0.035576 -0.532428
O28   O     O_R   0.524181 0.355670 0.064254 -0.635864
H26   H     H_    0.504463 0.314019 0.009462 0.335474

loop_
_geom_bond_atom_site_label_1
_geom_bond_atom_site_label_2
_ccdc_geom_bond_type
C40   C42   A    
O18   V4    S    
C15   C17   A    
C26   C50   A    
C24   H6    S    
O24   H24   S    
O1    C3    A    
O2    C4    A    
C2    O7    A    
O12   V3    S    
C30   C52   A    
O5    C3    A    
C57   O22   S    
C21   H3    S    
C22   H4    S    
C6    C53   S    
C32   H20   S    
C58   O24   S    
C29   C51   A    
C31   C33   A    
O16   C56   A    
C13   H9    S    
C32   C34   A    
O26   H25   S    
C40   C48   A    
C29   I1    S    
C39   C47   A    
C34   C36   A    
C25   C41   A    
C43   C45   A    
O14   V4    S    
C36   C38   A    
C53   O18   A    
C28   C48   A    
C34   H18   S    
C8    C12   A    
C39   C41   A    
O22   H23   S    
C31   H19   S    
C20   H2    S    
O13   C53   A    
O5    V1    S    
O6    V2    S    
C48   H16   S    
C27   C49   A    
C5    C54   S    
C5    C21   A    
C7    C13   A    
O20   V4    S    
C9    C11   A    
C3    C8    S    
C33   C35   A    
C36   C40   A    
C1    C28   S    
C30   I2    S    
O4    C2    A    
O15   V3    S    
C15   C23   A    
C9    C17   A    
C54   O17   A    
C19   H1    S    
C41   C43   A    
O4    V2    S    
C7    C11   A    
H12   C50   S    
O11   V4    S    
O14   C54   A    
O6    C4    A    
C10   C58   S    
C52   C55   S    
H11   C49   S    
C47   H15   S    
C51   C56   S    
O1    V2    S    
C26   C42   A    
O2    V1    S    
C6    C22   A    
O16   V4    S    
C28   C50   A    
O19   V3    S    
C12   H8    S    
C37   C45   A    
C29   C31   A    
C5    C19   A    
C10   C12   A    
C6    C20   A    
C2    C27   S    
O15   C55   A    
O3    V1    S    
C59   O25   D    
C37   C51   A    
C25   C59   S    
C10   C18   A    
O13   V3    S    
C11   H7    S    
C38   C52   A    
C35   C37   A    
C27   C47   A    
C33   H17   S    
O3    C1    A    
C46   H22   S    
O28   H26   S    
C26   C60   S    
C13   C15   A    
C57   O21   D    
C14   C16   A    
C60   O28   S    
O7    V1    S    
C25   C49   A    
C1    O8    A    
C17   C19   A    
O8    V2    S    
C58   O23   D    
C18   C20   A    
C8    C14   A    
C45   H21   S    
C4    C7    S    
C16   C18   A    
O20   V3    S    
C21   C23   A    
C30   C32   A    
C22   C24   A    
C38   C46   A    
C23   H5    S    
O12   C56   A    
H14   C44   S    
C14   H10   S    
C35   C39   A    
O19   V4    S    
C16   C24   A    
C42   C44   A    
O9    V2    S    
O10   V1    S    
C44   C46   A    
H13   C43   S    
C59   O26   S    
C60   O27   D    
C9    C57   S    
O17   V3    S    
O11   C55   A    
