data_mof_unit_52668.cif
_audit_creation_date              2012-10-26T20:06:11-0400
_audit_creation_method            fapswitch 2.2
_symmetry_space_group_name_H-M    P1
_symmetry_Int_Tables_number       1
_space_group_crystal_system       triclinic
_cell_length_a                    9.510531
_cell_length_b                    10.832736
_cell_length_c                    13.469386
_cell_angle_alpha                 90.178596
_cell_angle_beta                  73.332328
_cell_angle_gamma                 90.009255
_cell_volume                      1329.37332509

loop_
_atom_site_label
_atom_site_type_symbol
_atom_type_description
_atom_site_fract_x
_atom_site_fract_y
_atom_site_fract_z
_atom_type_partial_charge
C1    C     C_R   0.499993 0.737947 0.500121 0.566881
C2    C     C_R   0.379049 0.515413 0.814032 0.000050
C3    C     C_R   0.626912 0.936156 0.502065 -0.133853
C4    C     C_R   0.422749 0.507625 0.699864 0.532058
C5    C     C_R   0.626953 0.063863 0.501913 -0.132368
C6    C     C_R   0.500083 0.128188 0.499714 0.021692
C7    C     C_R   0.373260 0.063775 0.497458 -0.130218
C8    C     C_R   0.373231 0.936065 0.497586 -0.105523
C9    C     C_R   0.500035 0.871762 0.499951 0.034957
C10   C     C_R   0.906046 0.591817 0.548602 0.004428
C11   C     C_R   0.054602 0.591450 0.549053 0.014228
C12   C     C_R   0.440810 0.532275 0.978244 0.060578
C13   C     C_R   0.094116 0.408226 0.451232 0.051656
C14   C     C_R   0.945414 0.408501 0.450958 0.019640
C15   C     C_R   0.500018 0.262045 0.499855 0.551337
C16   C     C_R   0.577076 0.510254 0.300808 0.579101
C17   C     C_R   0.804921 0.561972 0.024822 -0.138492
C18   C     C_R   0.618596 0.534679 0.188972 -0.006647
C19   C     C_R   0.238752 0.472782 0.868587 -0.136876
C20   C     C_R   0.201596 0.455102 0.974994 -0.141630
C21   C     C_R   0.302640 0.480949 0.028883 -0.064511
C22   C     C_R   0.479700 0.550787 0.869696 0.029395
C23   C     C_R   0.546515 0.555327 0.031816 0.031665
C24   C     C_R   0.694988 0.571715 0.974955 0.021468
C25   C     C_R   0.729448 0.601549 0.870325 -0.129335
C26   C     C_R   0.619830 0.600996 0.820687 -0.110233
C27   C     C_R   0.509789 0.564524 0.140138 0.222253
C28   C     C_R   0.766890 0.534046 0.130208 -0.167869
Cu1   Cu    Cu3+1 0.359340 0.499980 0.500000 1.002154
Cu2   Cu    Cu3+1 0.640660 0.500020 0.500000 0.944240
H1    H     H_    0.853216 0.518141 0.166484 0.149889
H2    H     H_    0.919450 0.571480 0.981689 0.128446
H3    H     H_    0.160087 0.445945 0.828150 0.132275
H4    H     H_    0.273992 0.455220 0.109502 0.171387
H5    H     H_    0.096116 0.415797 0.015347 0.117547
H6    H     H_    0.648324 0.638209 0.743535 0.136363
H7    H     H_    0.726025 0.888148 0.503946 0.126441
H8    H     H_    0.136437 0.641494 0.299699 0.364071
H9    H     H_    0.726111 0.111930 0.503659 0.127141
H10   H     H_    0.274149 0.111774 0.495568 0.124219
H11   H     H_    0.274119 0.887976 0.495749 0.141716
H12   H     H_    0.834958 0.666008 0.586884 0.094861
H13   H     H_    0.094516 0.664625 0.588598 0.102634
H14   H     H_    0.166168 0.335232 0.411390 0.116321
H15   H     H_    0.905625 0.335582 0.411088 0.109994
H16   H     H_    0.840197 0.627723 0.827459 0.104141
N1    N     N_R   0.147940 0.499970 0.499970 -0.209961
N2    N     N_R   0.852060 0.500060 0.499990 -0.227762
O1    O     O_R   0.381250 0.680340 0.500010 -0.487142
O2    O     O_2   0.316000 0.741151 0.125346 -0.282317
O3    O     O_3   0.214316 0.579973 0.269917 -0.549645
O4    O     O_R   0.618820 0.680370 0.500010 -0.522833
O5    O     O_R   0.323240 0.499950 0.650980 -0.512654
O6    O     O_R   0.560810 0.499980 0.650980 -0.508653
O7    O     O_R   0.381180 0.319630 0.499990 -0.520938
O8    O     O_R   0.618750 0.319660 0.499990 -0.511988
O9    O     O_R   0.439190 0.500020 0.349020 -0.425022
O10   O     O_R   0.676760 0.500050 0.349020 -0.511155
O11   O     O_2   0.406019 0.747230 0.277845 -0.274617
S1    S     S_3+6 0.359932 0.663276 0.203794 0.007014

loop_
_geom_bond_atom_site_label_1
_geom_bond_atom_site_label_2
_ccdc_geom_bond_type
C2    C22   A    
C2    C4    S    
C23   C24   A    
C11   H13   S    
C6    C7    A    
C3    C9    A    
C23   C27   A    
C4    O5    A    
C10   H12   S    
C25   H16   S    
C11   N1    A    
C19   C20   A    
C7    H10   S    
O2    S1    D    
C15   O8    A    
C5    H9    S    
C27   S1    S    
C6    C15   S    
Cu1   O1    S    
C1    C9    S    
O11   S1    D    
C16   O10   A    
C13   C14   A    
C24   C25   A    
C8    H11   S    
Cu2   O6    S    
C12   C23   A    
Cu1   Cu2   S    
Cu1   O5    S    
Cu1   N1    S    
Cu2   O10   S    
Cu2   N2    S    
C25   C26   A    
Cu1   O9    S    
C14   H15   S    
C16   O9    A    
H8    O3    S    
C13   H14   S    
C10   N2    A    
C5    C6    A    
C1    O4    A    
O3    S1    S    
C17   C24   A    
C10   C11   A    
Cu2   O8    S    
C12   C22   A    
C7    C8    A    
C18   C28   A    
C20   C21   A    
C3    H7    S    
C16   C18   S    
C22   C26   A    
C26   H6    S    
C13   N1    A    
C17   H2    S    
Cu2   O4    S    
C14   N2    A    
C21   H4    S    
Cu1   O7    S    
C4    O6    A    
C2    C19   A    
C17   C28   A    
C1    O1    A    
C12   C21   A    
C20   H5    S    
C28   H1    S    
C18   C27   A    
C19   H3    S    
C8    C9    A    
C3    C5    A    
C15   O7    A    
