data_mof_unit_16192.cif
_audit_creation_date              2012-12-10T19:53:41-0500
_audit_creation_method            fapswitch 2.2
_symmetry_space_group_name_H-M    P1
_symmetry_Int_Tables_number       1
_space_group_crystal_system       triclinic
_cell_length_a                    14.968557
_cell_length_b                    14.159321
_cell_length_c                    10.503773
_cell_angle_alpha                 90.200716
_cell_angle_beta                  90.039986
_cell_angle_gamma                 90.946568
_cell_volume                      2225.89991036

loop_
_atom_site_label
_atom_site_type_symbol
_atom_type_description
_atom_site_fract_x
_atom_site_fract_y
_atom_site_fract_z
_atom_type_partial_charge
C1    C     C_R   0.328061 0.499362 0.499710 0.946871
C2    C     C_R   0.672535 0.500799 0.497123 0.898276
C3    C     C_R   0.552607 0.105353 0.411187 0.437878
C4    C     C_R   0.532640 0.896375 0.605808 0.440010
C5    C     C_R   0.448572 0.103362 0.588689 0.440131
C6    C     C_R   0.468058 0.894506 0.394336 0.442993
C7    C     C_R   0.548853 0.205510 0.411538 -0.152210
C8    C     C_R   0.530479 0.796375 0.603865 -0.153063
C9    C     C_R   0.451742 0.203734 0.588710 -0.170118
C10   C     C_R   0.469705 0.794879 0.396230 -0.155921
C11   C     C_R   0.500676 0.053533 0.499776 -0.022140
C12   C     C_R   0.500729 0.946823 0.499787 -0.016789
C13   C     C_R   0.500094 0.499779 0.257101 0.866875
C14   C     C_R   0.500395 0.500257 0.742889 0.875600
C15   C     C_3   0.426795 0.542352 0.042209 -0.179455
C16   C     C_3   0.575037 0.457843 0.957654 -0.184436
C17   C     C_3   0.499783 0.590186 0.960019 -0.129738
C18   C     C_3   0.502012 0.410004 0.039939 -0.135397
C19   C     C_3   0.427966 0.453223 0.957383 -0.179787
C20   C     C_3   0.573827 0.547019 0.042689 -0.190224
C21   C     C_3   0.500914 0.500899 0.877782 0.029574
C22   C     C_3   0.500753 0.499274 0.122196 0.030477
C23   C     C_R   0.096081 0.528624 0.383241 -0.235013
C24   C     C_R   0.905090 0.426734 0.421398 -0.255686
C25   C     C_R   0.911703 0.570241 0.548473 -0.244826
C26   C     C_R   0.091809 0.460968 0.595761 -0.237296
C27   C     C_R   0.188689 0.533027 0.387836 0.155954
C28   C     C_R   0.812448 0.429279 0.420307 0.183515
C29   C     C_R   0.819347 0.575123 0.547614 0.156432
C30   C     C_R   0.184406 0.461325 0.599898 0.158953
C31   C     C_R   0.232486 0.497911 0.495861 -0.106269
C32   C     C_R   0.769100 0.502362 0.487370 -0.121100
C33   C     C_R   0.048751 0.493535 0.487360 0.067005
C34   C     C_R   0.953421 0.496352 0.486233 0.072386
H1    H     H_    0.368503 0.415419 0.918443 0.143782
H2    H     H_    0.633061 0.585218 0.082164 0.134252
H3    H     H_    0.366432 0.576652 0.080493 0.145105
H4    H     H_    0.635351 0.423593 0.918524 0.137201
H5    H     H_    0.498874 0.663665 0.923495 0.152933
H6    H     H_    0.503028 0.336555 0.076558 0.151935
H7    H     H_    0.061017 0.554905 0.300583 0.146489
H8    H     H_    0.939524 0.371079 0.371174 0.140402
H9    H     H_    0.951113 0.624756 0.596152 0.145821
H10   H     H_    0.053476 0.435155 0.676385 0.145053
H11   H     H_    0.585090 0.246306 0.341205 0.169977
H12   H     H_    0.553076 0.757753 0.686118 0.166959
H13   H     H_    0.415957 0.243205 0.659910 0.163795
H14   H     H_    0.445663 0.755400 0.314453 0.175245
N1    N     N_R   0.500000 0.252470 0.500000 -0.127862
N2    N     N_R   0.500000 0.747530 0.500000 -0.132414
O1    O     O_R   0.369060 0.579480 0.500010 -0.609549
O2    O     O_R   0.630940 0.420520 0.499990 -0.593113
O3    O     O_R   0.630940 0.579480 0.499990 -0.593062
O4    O     O_R   0.369060 0.420520 0.500010 -0.613154
O5    O     O_R   0.499980 0.579460 0.313950 -0.622088
O6    O     O_R   0.500020 0.420540 0.686050 -0.616119
O7    O     O_R   0.500020 0.579460 0.686050 -0.632000
O8    O     O_R   0.499980 0.420540 0.313950 -0.626056
Zn1   Zn    Zn3+2 0.500000 0.606140 0.500000 0.953352
Zn2   Zn    Zn3+2 0.500000 0.393860 0.500000 0.956386
N3    N     N_2   0.237634 0.571187 0.283444 -0.313392
H15   H     H_    0.215625 0.545479 0.196706 0.213537
C35   C     C_3   0.243978 0.673283 0.284028 -0.796433
H16   H     H_    0.176918 0.704098 0.269649 0.228586
H17   H     H_    0.288531 0.697390 0.205803 0.228937
H18   H     H_    0.272300 0.699564 0.375505 0.263813
N4    N     N_2   0.763531 0.359475 0.349855 -0.290782
H19   H     H_    0.794593 0.295076 0.344399 0.208282
C36   C     C_3   0.733058 0.391117 0.226655 -0.790630
H20   H     H_    0.791077 0.405927 0.163420 0.228739
H21   H     H_    0.692961 0.455939 0.236474 0.234049
H22   H     H_    0.690304 0.335361 0.182080 0.228935
N5    N     N_2   0.777641 0.652910 0.607914 -0.292143
H23   H     H_    0.803892 0.668447 0.696537 0.210138
C37   C     C_3   0.773671 0.735972 0.528297 -0.743336
H24   H     H_    0.841979 0.765135 0.511052 0.216858
H25   H     H_    0.733560 0.790549 0.576260 0.218926
H26   H     H_    0.741410 0.718800 0.435550 0.260428
N6    N     N_2   0.229061 0.428375 0.710191 -0.311100
H27   H     H_    0.205228 0.457878 0.793175 0.216937
C38   C     C_3   0.232311 0.326636 0.718117 -0.821281
H28   H     H_    0.164042 0.296149 0.731174 0.232454
H29   H     H_    0.273952 0.306519 0.800732 0.223796
H30   H     H_    0.262141 0.296821 0.630266 0.258902
O9    O     O_3   0.602007 0.056189 0.321599 -0.557359
C39   C     C_3   0.690403 0.092108 0.314713 -0.334606
H31   H     H_    0.718820 0.109325 0.410316 0.142908
H32   H     H_    0.693899 0.154631 0.251322 0.166017
H33   H     H_    0.733030 0.037143 0.271809 0.193034
O10   O     O_3   0.559330 0.945064 0.714176 -0.547189
C40   C     C_3   0.652356 0.936801 0.729719 -0.325893
H34   H     H_    0.689394 0.956211 0.641326 0.145126
H35   H     H_    0.669653 0.864598 0.761511 0.154566
H36   H     H_    0.674566 0.986697 0.805448 0.203970
O11   O     O_3   0.400219 0.051726 0.678347 -0.552870
C41   C     C_3   0.313250 0.086767 0.693887 -0.338501
H37   H     H_    0.283043 0.110286 0.602523 0.136657
H38   H     H_    0.313760 0.144434 0.765538 0.174752
H39   H     H_    0.269863 0.029114 0.731606 0.196432
O12   O     O_3   0.437021 0.940190 0.287517 -0.553343
C42   C     C_3   0.343732 0.949158 0.298940 -0.322827
H40   H     H_    0.325804 0.991354 0.384592 0.155851
H41   H     H_    0.309533 0.878817 0.301406 0.152046
H42   H     H_    0.318713 0.987166 0.214275 0.200278

loop_
_geom_bond_atom_site_label_1
_geom_bond_atom_site_label_2
_ccdc_geom_bond_type
C14   O6    A    
C35   H17   S    
C42   H40   S    
O5    Zn1   S    
C3    O9    S    
C24   H8    S    
N5    H23   S    
O11   C41   S    
C4    C8    A    
C25   H9    S    
C38   H28   S    
O3    Zn1   S    
C26   H10   S    
O4    Zn2   S    
O9    C39   S    
C15   C19   S    
C16   C21   S    
N1    Zn2   S    
N2    Zn1   S    
C7    H11   S    
C14   C21   S    
C19   C21   S    
C5    C11   A    
C29   C32   A    
C3    C7    A    
C6    C12   A    
C30   C31   A    
C39   H32   S    
O7    Zn1   S    
C29   N5    S    
O8    Zn2   S    
C41   H39   S    
C1    C31   S    
C17   C20   S    
C2    C32   S    
C18   C19   S    
C17   H5    S    
N3    C35   S    
C18   H6    S    
C15   H3    S    
C27   N3    S    
C5    O11   S    
C15   C22   S    
C23   C33   A    
C41   H38   S    
C23   C27   A    
C4    C12   A    
O2    Zn2   S    
C25   C34   A    
C35   H18   S    
C42   H41   S    
N5    C37   S    
C36   H20   S    
C38   H29   S    
C4    O10   S    
C25   C29   A    
C36   H21   S    
C27   C31   A    
N4    H19   S    
C28   C32   A    
C28   N4    S    
C9    N1    A    
N6    H27   S    
C7    N1    A    
C40   H34   S    
N6    C38   S    
C39   H31   S    
C13   O8    A    
C39   H33   S    
C24   C34   A    
O6    Zn2   S    
N4    C36   S    
C6    O12   S    
C36   H22   S    
C37   H24   S    
C5    C9    A    
C40   H35   S    
C37   H25   S    
C26   C33   A    
C16   C20   S    
C41   H37   S    
C33   C34   S    
C1    O1    A    
C2    O2    A    
C1    O4    A    
C30   N6    S    
C20   C22   S    
C9    H13   S    
C42   H42   S    
C10   H14   S    
O1    Zn1   S    
C10   N2    A    
C8    N2    A    
C38   H30   S    
C15   C17   S    
C14   O7    A    
C18   C22   S    
C24   C28   A    
C2    O3    A    
C6    C10   A    
C11   C12   S    
C26   C30   A    
C23   H7    S    
C19   H1    S    
C40   H36   S    
O10   C40   S    
O12   C42   S    
C13   C22   S    
N3    H15   S    
C37   H26   S    
C8    H12   S    
C3    C11   A    
C35   H16   S    
C20   H2    S    
C16   C18   S    
C16   H4    S    
C13   O5    A    
C17   C21   S    
