data_mof_unit_37627.cif
_audit_creation_date              2012-12-11T15:23:30-0500
_audit_creation_method            fapswitch 2.2
_symmetry_space_group_name_H-M    P1
_symmetry_Int_Tables_number       1
_space_group_crystal_system       triclinic
_cell_length_a                    6.928038
_cell_length_b                    17.52865
_cell_length_c                    19.341243
_cell_angle_alpha                 109.648002
_cell_angle_beta                  89.997772
_cell_angle_gamma                 90.735839
_cell_volume                      2211.82350093

loop_
_atom_site_label
_atom_site_type_symbol
_atom_type_description
_atom_site_fract_x
_atom_site_fract_y
_atom_site_fract_z
_atom_type_partial_charge
O1    O     O_R   0.505810 0.439670 0.562310 -0.542064
O2    O     O_R   0.169070 0.404920 0.411210 -0.544033
O3    O     O_R   0.005550 0.560330 0.437690 -0.555133
C1    C     C_R   0.338428 0.381557 0.382953 0.727158
O4    O     O_R   0.175650 0.430000 0.560110 -0.547330
O5    O     O_R   0.012170 0.585580 0.587650 -0.542695
C2    C     C_R   0.344199 0.415311 0.582092 0.705534
O6    O     O_R   0.499180 0.414420 0.412350 -0.531959
O7    O     O_3   0.341430 0.551020 0.508860 -0.373674
V1    V     V_3+5 0.063930 0.490540 0.498360 1.424144
O8    O     O_R   0.682850 0.595080 0.588790 -0.523667
C3    C     C_R   0.852604 0.617731 0.617200 0.722420
O9    O     O_R   0.676280 0.570000 0.439890 -0.539398
C4    C     C_R   0.845777 0.582477 0.416007 0.720359
V2    V     V_3+5 0.564760 0.509460 0.501640 1.461149
O10   O     O_3   0.837130 0.448980 0.491140 -0.374915
C5    C     C_R   0.753676 0.861811 0.169474 -0.216602
C6    C     C_R   0.912500 0.856473 0.123063 -0.177782
C7    C     C_R   0.058889 0.799210 0.119867 0.311032
C8    C     C_R   0.049443 0.751259 0.166249 -0.037138
C9    C     C_R   0.891163 0.760348 0.214865 -0.049853
C10   C     C_R   0.742129 0.814737 0.215227 0.138513
C11   C     C_R   0.193882 0.694337 0.166045 0.371910
C12   C     C_R   0.185002 0.652310 0.215679 -0.193888
C13   C     C_R   0.028687 0.660532 0.263963 -0.013549
C14   C     C_R   0.880654 0.714847 0.263265 0.063305
C15   C     C_R   0.721598 0.723939 0.310974 0.121206
C16   C     C_R   0.573694 0.777246 0.309572 -0.193506
C17   C     C_R   0.583917 0.822218 0.262238 -0.111851
C18   C     C_R   0.017480 0.615451 0.312641 -0.046335
C19   C     C_R   0.860232 0.626998 0.362464 -0.126872
C20   C     C_R   0.712741 0.680284 0.359854 -0.225177
H1    H     H_    0.640282 0.904592 0.171504 0.144775
H2    H     H_    0.302159 0.611705 0.214732 0.181595
H3    H     H_    0.590912 0.688581 0.396749 0.120427
H4    H     H_    0.449972 0.784443 0.345396 0.118087
H5    H     H_    0.467859 0.863227 0.262599 0.117079
C21   C     C_3   0.747338 0.804553 0.753097 -0.210813
C22   C     C_3   0.904989 0.776790 0.692623 -0.274636
H6    H     H_    0.924175 0.798781 0.645492 0.128067
H7    H     H_    0.633125 0.849359 0.756204 0.156216
C23   C     C_3   0.868202 0.687785 0.687606 -0.079129
C24   C     C_3   0.714783 0.715540 0.747403 0.428327
C25   C     C_3   0.866027 0.722723 0.807735 -0.274794
C26   C     C_3   0.023654 0.694936 0.747239 -0.213449
C27   C     C_3   0.056225 0.783951 0.752939 0.429311
C28   C     C_3   0.902801 0.811736 0.812727 -0.077078
H8    H     H_    0.846903 0.700733 0.854873 0.133797
H9    H     H_    0.137812 0.650105 0.744130 0.159278
C29   C     C_3   0.475596 0.234622 0.305061 -0.198654
C30   C     C_3   0.313487 0.181399 0.256042 -0.126628
H10   H     H_    0.254825 0.124213 0.260948 0.110020
H11   H     H_    0.548059 0.221662 0.351015 0.118976
C31   C     C_3   0.414615 0.189395 0.187448 -0.075449
C32   C     C_3   0.577224 0.241622 0.235685 -0.194250
C33   C     C_3   0.456065 0.316980 0.243612 0.425293
C34   C     C_3   0.295187 0.265639 0.194233 -0.164394
C35   C     C_3   0.194861 0.258478 0.263797 -0.153054
C36   C     C_3   0.356449 0.310977 0.312290 -0.027549
H12   H     H_    0.733239 0.235382 0.222803 0.117725
H13   H     H_    0.224063 0.279450 0.148459 0.134467
H14   H     H_    0.038888 0.265626 0.276564 0.123941
C37   C     C_R   0.262080 0.131065 0.825443 -0.111786
C38   C     C_R   0.419316 0.140332 0.873402 -0.154492
C39   C     C_R   0.566288 0.198357 0.875009 -0.058462
C40   C     C_R   0.554530 0.244307 0.826596 0.049703
C41   C     C_R   0.394619 0.233165 0.778371 0.061175
C42   C     C_R   0.247929 0.177075 0.778864 0.065883
C43   C     C_R   0.694982 0.303271 0.827125 -0.123327
C44   C     C_R   0.684791 0.348633 0.779762 -0.043334
C45   C     C_R   0.527774 0.335393 0.729723 0.045741
C46   C     C_R   0.379674 0.278725 0.730234 0.121062
C47   C     C_R   0.216417 0.267702 0.682725 0.054860
C48   C     C_R   0.069488 0.210555 0.683960 -0.024357
C49   C     C_R   0.087794 0.166746 0.732483 -0.132572
C50   C     C_R   0.515638 0.376619 0.678677 -0.204457
C51   C     C_R   0.354404 0.367896 0.632907 -0.060667
C52   C     C_R   0.204208 0.315094 0.636410 -0.209308
H15   H     H_    0.149688 0.086828 0.823826 0.143686
H16   H     H_    0.813206 0.316336 0.865857 0.202822
H17   H     H_    0.630479 0.416685 0.673987 0.110206
H18   H     H_    0.080019 0.311428 0.601850 0.102634
H19   H     H_    0.976662 0.123038 0.733631 0.168016
O11   O     O_R   0.271890 0.085690 0.087580 -0.539139
O12   O     O_R   0.595690 0.070020 0.939870 -0.544210
O13   O     O_R   0.758900 0.914390 0.912370 -0.541721
C53   C     C_R   0.427330 0.087415 0.920022 0.700216
O14   O     O_R   0.602020 0.095100 0.088770 -0.547304
O15   O     O_R   0.765280 0.939660 0.062330 -0.538187
C54   C     C_R   0.432652 0.118777 0.116821 0.682771
O16   O     O_R   0.265520 0.060430 0.937620 -0.527771
O17   O     O_3   0.429560 0.949050 0.991100 -0.359689
V3    V     V_3+5 0.707160 0.009450 0.001650 1.453156
O18   O     O_R   0.094540 0.929890 0.060190 -0.533524
C55   C     C_R   0.924801 0.911964 0.079241 0.699448
O19   O     O_R   0.088200 0.904800 0.911290 -0.526521
C56   C     C_R   0.918417 0.881994 0.882985 0.717780
V4    V     V_3+5 0.206300 0.990390 0.998440 1.488699
O20   O     O_3   0.934030 0.050940 0.008900 -0.368413
O21   O     O_3   0.533949 0.678103 0.743489 -0.650148
H20   H     H_    0.473183 0.705424 0.791752 0.294518
O22   O     O_3   0.237095 0.821355 0.756845 -0.650557
H21   H     H_    0.298009 0.793889 0.708642 0.291190
O23   O     O_3   0.530387 0.389225 0.238082 -0.623020
H22   H     H_    0.584990 0.374428 0.187993 0.292906
O24   O     O_3   0.212385 0.790248 0.072559 -0.626796
H23   H     H_    0.159988 0.788247 0.024276 0.283217
C57   C     C_2   0.723893 0.213448 0.930304 0.378559
H24   H     H_    0.688828 0.223874 0.987428 0.040131
O25   O     O_2   0.893040 0.210095 0.912080 -0.538463
C58   C     C_2   0.837546 0.411503 0.786400 0.365122
H25   H     H_    0.813584 0.462252 0.767658 0.047155
O26   O     O_2   0.993369 0.408217 0.814751 -0.524049
C59   C     C_2   0.897480 0.193075 0.634400 0.359463
H26   H     H_    0.891756 0.211403 0.586395 0.036904
O27   O     O_2   0.757982 0.155957 0.646157 -0.533550
O28   O     O_3   0.346621 0.677725 0.118132 -0.608921
H27   H     H_    0.289715 0.657495 0.068107 0.323308
C60   C     C_2   0.164440 0.553231 0.308188 0.398061
H28   H     H_    0.272355 0.563440 0.351128 0.059934
O29   O     O_2   0.165229 0.490270 0.255928 -0.510390

loop_
_geom_bond_atom_site_label_1
_geom_bond_atom_site_label_2
_ccdc_geom_bond_type
C35   H14   S    
C9    C14   A    
C10   C17   A    
C53   O16   A    
C47   C48   A    
C31   C32   S    
O12   V3    S    
C7    C8    A    
C4    C19   S    
C1    O6    A    
C59   H26   S    
O17   V4    S    
C37   H15   S    
C51   C52   A    
C33   C34   S    
C42   C49   A    
C27   O22   S    
C14   C15   A    
C5    H1    S    
C29   C36   S    
C16   C17   A    
C31   C54   S    
O5    C3    A    
C21   C22   S    
C40   C43   A    
C18   C60   S    
O18   V4    S    
V2    O10   S    
C48   C59   S    
C57   H24   S    
C6    C7    A    
C27   C28   S    
O13   C56   A    
O17   V3    S    
C3    C23   S    
O22   H21   S    
O14   V3    S    
O8    V2    S    
C58   H25   S    
O19   V4    S    
C11   C12   A    
C44   C45   A    
O1    V2    S    
O7    V1    S    
V3    O20   S    
C38   C53   S    
C25   C28   S    
C2    C51   S    
C32   H12   S    
O12   C53   A    
C40   C41   A    
O9    C4    A    
O15   V3    S    
C6    C55   S    
O18   C55   A    
O11   C54   A    
O23   H22   S    
C5    C6    A    
C22   C23   S    
C50   C51   A    
C60   O29   D    
C29   H11   S    
C48   C49   A    
C30   H10   S    
C20   H3    S    
C41   C46   A    
C12   C13   A    
C33   O23   S    
C21   H7    S    
C22   H6    S    
O4    C2    A    
C35   C36   S    
C26   C27   S    
C12   H2    S    
C41   C42   A    
C23   C26   S    
O15   C55   A    
O2    C1    A    
C24   C25   S    
O5    V1    S    
O13   V3    S    
C52   H18   S    
C19   C20   A    
C8    C11   A    
C26   H9    S    
C18   C19   A    
C47   C52   A    
O19   C56   A    
C32   C33   S    
C29   C30   S    
C58   O26   D    
C30   C35   S    
C24   O21   S    
C21   C28   S    
O3    C4    A    
C22   C27   S    
O14   C54   A    
V4    O20   S    
O6    V2    S    
O9    V2    S    
C23   C24   S    
O2    V1    S    
C25   C26   S    
C13   C18   A    
C37   C42   A    
C39   C57   S    
C15   C20   A    
O1    C2    A    
C5    C10   A    
C46   C47   A    
C50   H17   S    
C11   O28   S    
C59   O27   D    
C60   H28   S    
C34   H13   S    
C29   C32   S    
C28   C56   S    
C33   C36   S    
C30   C31   S    
O11   V4    S    
C38   C39   A    
C13   C14   A    
O4    V1    S    
O3    V1    S    
V1    O10   S    
O28   H27   S    
C49   H19   S    
C34   C35   S    
C45   C50   A    
C1    C36   S    
O21   H20   S    
C57   O25   D    
O16   V4    S    
O7    V2    S    
C43   C44   A    
C44   C58   S    
C37   C38   A    
C7    O24   S    
C21   C24   S    
C45   C46   A    
C8    C9    A    
C16   H4    S    
C39   C40   A    
O24   H23   S    
C17   H5    S    
C15   C16   A    
C43   H16   S    
C9    C10   A    
C25   H8    S    
O8    C3    A    
C31   C34   S    
