data_mof_unit_63449.cif
_audit_creation_date              2012-12-11T14:22:42-0500
_audit_creation_method            fapswitch 2.2
_symmetry_space_group_name_H-M    P1
_symmetry_Int_Tables_number       1
_space_group_crystal_system       triclinic
_cell_length_a                    16.92521
_cell_length_b                    6.950576
_cell_length_c                    15.346742
_cell_angle_alpha                 90.000094
_cell_angle_beta                  93.466785
_cell_angle_gamma                 90.000159
_cell_volume                      1802.08626521

loop_
_atom_site_label
_atom_site_type_symbol
_atom_type_description
_atom_site_fract_x
_atom_site_fract_y
_atom_site_fract_z
_atom_type_partial_charge
O1    O     O_R   0.414560 0.494300 0.417030 -0.542643
O2    O     O_R   0.585440 0.994300 0.582970 -0.542646
O3    O     O_R   0.577160 0.822630 0.413790 -0.539860
O4    O     O_R   0.422840 0.322630 0.586210 -0.539865
C1    C     C_R   0.604269 0.655213 0.393293 0.728520
C2    C     C_R   0.395731 0.155213 0.606707 0.728496
O5    O     O_R   0.414660 0.823920 0.406630 -0.507697
O6    O     O_R   0.585340 0.323920 0.593370 -0.507679
O7    O     O_R   0.421790 0.995650 0.575760 -0.542352
O8    O     O_R   0.578210 0.495650 0.424240 -0.542348
C3    C     C_R   0.385207 0.654991 0.387371 0.746079
C4    C     C_R   0.614791 0.154991 0.612631 0.746061
O9    O     O_3   0.502530 0.661260 0.555500 -0.366568
O10   O     O_3   0.497470 0.161260 0.444500 -0.366569
V1    V     V_3+5 0.499530 0.935570 0.489700 1.551405
V2    V     V_3+5 0.500470 0.435570 0.510300 1.551412
C5    C     C_2   0.789055 0.271877 0.779516 -0.293653
C6    C     C_2   0.210953 0.771878 0.220478 -0.293669
C7    C     C_2   0.813340 0.115412 0.827202 0.397022
C8    C     C_2   0.186661 0.615411 0.172798 0.397028
C9    C     C_2   0.711668 0.275480 0.727869 0.655447
C10   C     C_2   0.288340 0.775479 0.272121 0.655444
C11   C     C_2   0.689784 0.141180 0.667228 -0.295792
C12   C     C_2   0.310213 0.641182 0.332780 -0.295896
C13   C     C_1   0.166385 0.119226 0.831299 -0.168189
C14   C     C_1   0.833615 0.619226 0.168701 -0.168192
C15   C     C_1   0.218862 0.127522 0.780027 0.027813
C16   C     C_1   0.781138 0.627522 0.219972 0.027813
C17   C     C_1   0.280819 0.137465 0.719867 0.026932
C18   C     C_1   0.719181 0.637465 0.280133 0.026936
C19   C     C_1   0.333322 0.145771 0.668629 -0.169163
C20   C     C_1   0.666678 0.645771 0.331371 -0.169158
O11   O     O_R   0.921850 0.770730 0.075840 -0.534199
O12   O     O_R   0.078150 0.270730 0.924160 -0.534199
O13   O     O_R   0.085350 0.439650 0.093390 -0.503845
O14   O     O_R   0.914650 0.939650 0.906610 -0.503849
C21   C     C_R   0.113666 0.608804 0.114300 0.658158
C22   C     C_R   0.886335 0.108803 0.885700 0.658168
O15   O     O_R   0.922860 0.441090 0.086230 -0.540433
O16   O     O_R   0.077140 0.941090 0.913770 -0.540432
O17   O     O_R   0.914540 0.269530 0.917020 -0.564938
O18   O     O_R   0.085460 0.769530 0.082980 -0.564935
C23   C     C_R   0.895970 0.609824 0.106715 0.723293
C24   C     C_R   0.104030 0.109825 0.893285 0.723296
O19   O     O_3   0.997510 0.602520 0.944550 -0.366537
O20   O     O_3   0.002490 0.102520 0.055450 -0.366539
V3    V     V_3+5 0.000460 0.328160 0.010290 1.530542
V4    V     V_3+5 0.999540 0.828160 0.989710 1.530545
C25   C     C_1   0.835555 0.446421 0.778152 0.373180
N1    N     N_1   0.872718 0.586015 0.776790 -0.262312
C26   C     C_1   0.164466 0.946419 0.221831 0.373169
N2    N     N_1   0.127315 0.086010 0.223182 -0.262281
F1    F     F_    0.765831 0.957371 0.827854 -0.637664
F2    F     F_    0.234164 0.457357 0.172153 -0.637652
F3    F     F_    0.663614 0.429046 0.740057 -0.634999
F4    F     F_    0.336420 0.929013 0.259891 -0.634947
C27   C     C_1   0.742801 0.985773 0.646568 0.357145
N3    N     N_1   0.784904 0.861817 0.629689 -0.304683
C28   C     C_1   0.257195 0.485749 0.353436 0.357162
N4    N     N_1   0.215097 0.361759 0.370306 -0.304684

loop_
_geom_bond_atom_site_label_1
_geom_bond_atom_site_label_2
_ccdc_geom_bond_type
O4    V2    S    
C18   C20   T    
C10   C12   D    
O9    V2    S    
O2    V1    S    
C7    C22   S    
C6    C26   S    
C13   C15   T    
C14   C16   T    
O1    C3    A    
O16   C24   A    
O6    C4    A    
C1    C20   S    
O13   V3    S    
C7    F1    S    
C2    O7    A    
O5    V1    S    
C2    C19   S    
O7    V1    S    
O2    C4    A    
C28   N4    T    
C17   C19   T    
O1    V2    S    
O8    V2    S    
O11   V4    S    
O5    C3    A    
C8    C21   S    
C4    C11   S    
C27   N3    T    
O18   V4    S    
C12   C28   S    
C13   C24   S    
O14   C22   A    
C5    C7    D    
C14   C23   S    
O14   V4    S    
C6    C8    D    
O9    V1    S    
C9    C11   D    
O17   V3    S    
O10   V1    S    
O20   V4    S    
O19   V4    S    
O4    C2    A    
C15   C17   S    
C26   N2    T    
O11   C23   A    
C3    C12   S    
C1    O8    A    
O3    V1    S    
O15   C23   A    
C22   O17   A    
C8    F2    S    
C25   N1    T    
O6    V2    S    
O19   V3    S    
C5    C25   S    
C21   O18   A    
C11   C27   S    
O12   C24   A    
O16   V4    S    
O20   V3    S    
C9    F3    S    
C10   F4    S    
O12   V3    S    
O13   C21   A    
O10   V2    S    
C6    C10   S    
O15   V3    S    
C5    C9    S    
C16   C18   S    
O3    C1    A    
