data_mof_unit_13271.cif
_audit_creation_date              2012-12-10T18:20:42-0500
_audit_creation_method            fapswitch 2.2
_symmetry_space_group_name_H-M    P1
_symmetry_Int_Tables_number       1
_space_group_crystal_system       triclinic
_cell_length_a                    15.858824
_cell_length_b                    10.612579
_cell_length_c                    9.417175
_cell_angle_alpha                 90.186286
_cell_angle_beta                  90.201951
_cell_angle_gamma                 90.010225
_cell_volume                      1584.92076535

loop_
_atom_site_label
_atom_site_type_symbol
_atom_type_description
_atom_site_fract_x
_atom_site_fract_y
_atom_site_fract_z
_atom_type_partial_charge
C1    C     C_R   0.500051 0.259401 0.499669 0.778844
C2    C     C_R   0.499985 0.740598 0.500330 0.779180
C3    C     C_3   0.569428 0.957672 0.433694 -0.172222
C4    C     C_3   0.430661 0.042323 0.566292 -0.172610
C5    C     C_3   0.500014 0.877547 0.501050 0.027069
C6    C     C_3   0.500070 0.122450 0.498939 0.026985
C7    C     C_3   0.499835 0.959879 0.635189 -0.139101
C8    C     C_3   0.500253 0.040119 0.364798 -0.139223
C9    C     C_3   0.531587 0.603587 0.051100 -0.037713
C10   C     C_3   0.468412 0.396415 0.948900 -0.037259
C11   C     C_3   0.455817 0.592676 0.949402 -0.037377
C12   C     C_3   0.544182 0.407326 0.050597 -0.037964
C13   C     C_3   0.575845 0.510879 0.950182 -0.039067
C14   C     C_3   0.424155 0.489124 0.049818 -0.037956
C15   C     C_R   0.339920 0.500011 0.499794 0.818954
C16   C     C_R   0.660077 0.499950 0.500209 0.819178
C17   C     C_3   0.972371 0.394262 0.566690 -0.305594
C18   C     C_3   0.027576 0.605121 0.433643 -0.306296
C19   C     C_3   0.027644 0.399356 0.432463 0.552950
C20   C     C_3   0.972322 0.600030 0.567850 0.552997
C21   C     C_1   0.250190 0.500268 0.499525 -0.186414
C22   C     C_1   0.749805 0.499490 0.500504 -0.186748
C23   C     C_3   0.028364 0.497935 0.636300 -0.302509
C24   C     C_3   0.971668 0.501366 0.363985 -0.300150
C25   C     C_3   0.082934 0.501038 0.500629 0.074280
C26   C     C_3   0.917051 0.498356 0.499545 0.072645
C27   C     C_1   0.174618 0.500575 0.499839 -0.004193
C28   C     C_1   0.825372 0.498984 0.500250 -0.004795
C29   C     C_3   0.569248 0.042301 0.567694 -0.167346
C30   C     C_3   0.430839 0.957700 0.432291 -0.167726
Cu1   Cu    Cu3+1 0.500020 0.499990 0.643150 0.933062
Cu2   Cu    Cu3+1 0.499980 0.500010 0.356850 0.933362
H1    H     H_    0.948451 0.307711 0.618738 0.145568
H2    H     H_    0.051269 0.692066 0.382064 0.148091
H3    H     H_    0.947475 0.500190 0.253224 0.147948
H4    H     H_    0.053289 0.497628 0.746533 0.147375
H5    H     H_    0.626150 0.919782 0.379574 0.128131
H6    H     H_    0.373947 0.080221 0.620424 0.127208
H7    H     H_    0.625825 0.080164 0.622961 0.126950
H8    H     H_    0.374265 0.919839 0.377015 0.126616
H9    H     H_    0.499641 0.924363 0.745965 0.130730
H10   H     H_    0.500447 0.075635 0.254021 0.130852
H11   H     H_    0.418619 0.670612 0.901926 0.110545
H12   H     H_    0.581375 0.329386 0.098076 0.110153
H13   H     H_    0.558321 0.690760 0.098718 0.115433
H14   H     H_    0.441679 0.309241 0.901282 0.115668
H15   H     H_    0.639860 0.520238 0.904161 0.124180
H16   H     H_    0.360139 0.479777 0.095839 0.125903
N1    N     N_3   0.500060 0.499970 0.858290 -0.153324
N2    N     N_3   0.499940 0.500030 0.141710 -0.153425
O1    O     O_R   0.500040 0.316850 0.620870 -0.585782
O2    O     O_R   0.499960 0.683150 0.379130 -0.585645
O3    O     O_R   0.500000 0.316860 0.379090 -0.587023
O4    O     O_R   0.500000 0.683140 0.620910 -0.587080
O5    O     O_R   0.379090 0.499980 0.620870 -0.576552
O6    O     O_R   0.620910 0.500020 0.379130 -0.576706
O7    O     O_R   0.379060 0.499990 0.379090 -0.576999
O8    O     O_R   0.620940 0.500010 0.620910 -0.577535
O9    O     O_3   0.062919 0.295027 0.360852 -0.612758
C31   C     C_3   0.999198 0.210386 0.315637 0.051154
H17   H     H_    0.007459 0.193920 0.199941 0.161028
H18   H     H_    0.933445 0.245723 0.330258 0.123870
C32   C     C_3   0.009661 0.084941 0.393386 -0.347310
H19   H     H_    0.073867 0.046941 0.373386 0.225174
H20   H     H_    0.002640 0.100410 0.509506 0.207889
C33   C     C_3   0.944398 0.988425 0.343945 -0.930011
H21   H     H_    0.879696 0.022677 0.367159 0.257999
H22   H     H_    0.954482 0.898141 0.400721 0.269910
H23   H     H_    0.950488 0.970950 0.228077 0.256052
O10   O     O_3   0.936724 0.705702 0.636508 -0.614909
C34   C     C_3   0.999841 0.778451 0.704659 0.036074
H24   H     H_    0.989741 0.878570 0.674985 0.163695
H25   H     H_    0.065622 0.754484 0.672330 0.126928
C35   C     C_3   0.990812 0.766290 0.865799 -0.327469
H26   H     H_    0.926613 0.797082 0.897806 0.225471
H27   H     H_    0.998777 0.666206 0.897187 0.211790
C36   C     C_3   0.056090 0.846254 0.944327 -0.941387
H28   H     H_    0.120857 0.816022 0.915330 0.256631
H29   H     H_    0.048069 0.834596 0.060647 0.257697
H30   H     H_    0.047847 0.947405 0.917641 0.253960

loop_
_geom_bond_atom_site_label_1
_geom_bond_atom_site_label_2
_ccdc_geom_bond_type
C33   H22   S    
C32   H20   S    
C9    H13   S    
C7    C29   S    
C36   H28   S    
C17   C23   S    
C35   H27   S    
C31   C32   S    
C18   C24   S    
C17   C26   S    
Cu1   O8    S    
C24   C26   S    
C11   C14   S    
C33   H23   S    
C31   H18   S    
C3    C29   S    
C9    C13   S    
Cu2   O2    S    
C1    O3    A    
C13   H15   S    
C35   C36   S    
C10   H14   S    
C11   H11   S    
O10   C34   S    
C23   C25   S    
C33   H21   S    
C21   C27   T    
C32   C33   S    
O9    C31   S    
C22   C28   T    
C15   O7    A    
C20   O10   S    
C18   C25   S    
C17   H1    S    
Cu2   O7    S    
Cu1   N1    S    
C4    C7    S    
C10   C12   S    
C36   H29   S    
C24   H3    S    
C35   H26   S    
C1    C6    S    
C4    C6    S    
C3    C8    S    
C2    O4    A    
Cu1   O1    S    
C5    C7    S    
C6    C8    S    
C19   O9    S    
C31   H17   S    
C15   O5    A    
C16   O6    A    
C11   N1    S    
C1    O1    A    
Cu1   Cu2   S    
C20   C23   S    
C29   H7    S    
C30   H8    S    
C16   O8    A    
C18   H2    S    
Cu2   N2    S    
C2    O2    A    
C13   N1    S    
C4    H6    S    
C9    C11   S    
C10   C14   S    
C2    C5    S    
Cu2   O3    S    
C34   H25   S    
C5    C30   S    
C36   H30   S    
C16   C22   S    
C9    N2    S    
C8    H10   S    
C3    C5    S    
C34   C35   S    
C12   N2    S    
C25   C27   S    
C26   C28   S    
C8    C30   S    
C19   C24   S    
C34   H24   S    
C12   H12   S    
C14   N2    S    
C20   C26   S    
C17   C19   S    
C18   C20   S    
C7    H9    S    
Cu1   O4    S    
C19   C25   S    
C32   H19   S    
C15   C21   S    
C6    C29   S    
C12   C13   S    
C3    H5    S    
C23   H4    S    
C14   H16   S    
Cu1   O5    S    
C10   N1    S    
Cu2   O6    S    
C4    C30   S    
