data_mof_unit_24184.cif
_audit_creation_date              2013-03-05T15:57:49-0500
_audit_creation_method            fapswitch 2.2
_symmetry_space_group_name_H-M    P1
_symmetry_Int_Tables_number       1
_space_group_crystal_system       triclinic
_cell_length_a                    15.005504
_cell_length_b                    13.704092
_cell_length_c                    14.351248
_cell_angle_alpha                 90.016695
_cell_angle_beta                  89.953353
_cell_angle_gamma                 90.208796
_cell_volume                      2951.12412339

loop_
_atom_site_label
_atom_site_type_symbol
_atom_site_description
_atom_site_fract_x
_atom_site_fract_y
_atom_site_fract_z
_atom_type_partial_charge
O1    O     O_R   0.370260 0.582280 0.500020 -0.582612
O2    O     O_R   0.629740 0.417720 0.499980 -0.583023
O3    O     O_R   0.629740 0.582280 0.499980 -0.578104
O4    O     O_R   0.370260 0.417720 0.500020 -0.580432
C1    C     C_R   0.328774 0.499884 0.501863 0.822607
C2    C     C_R   0.671096 0.500196 0.499528 0.823446
O5    O     O_R   0.500000 0.582290 0.376050 -0.564195
O6    O     O_R   0.500000 0.417710 0.623950 -0.561108
O7    O     O_R   0.500000 0.582290 0.623950 -0.562831
O8    O     O_R   0.500000 0.417710 0.376050 -0.562026
C3    C     C_R   0.500142 0.499993 0.330921 0.812350
C4    C     C_R   0.499860 0.500012 0.669080 0.809923
Cu1   Cu    Cu3+1 0.500000 0.597420 0.500000 0.926784
Cu2   Cu    Cu3+1 0.500000 0.402580 0.500000 0.924887
C5    C     C_1   0.500246 0.499993 0.228655 -0.207449
C6    C     C_1   0.499752 0.500042 0.771343 -0.208268
C7    C     C_1   0.500223 0.500022 0.143287 -0.012570
C8    C     C_1   0.499766 0.500060 0.856708 -0.012335
C9    C     C_1   0.500069 0.500054 0.042684 -0.000897
C10   C     C_1   0.499908 0.500065 0.957310 -0.000215
C11   C     C_R   0.814336 0.512684 0.414366 0.128877
C12   C     C_R   0.184856 0.476172 0.585471 0.123436
C13   C     C_R   0.767581 0.501609 0.498307 -0.067667
C14   C     C_R   0.232051 0.500828 0.504222 -0.072654
C15   C     C_R   0.811705 0.496772 0.583010 -0.274434
C16   C     C_R   0.187957 0.532606 0.424911 -0.272412
C17   C     C_R   0.904857 0.500026 0.586951 0.079995
C18   C     C_R   0.094778 0.535897 0.421939 0.076846
C19   C     C_R   0.952934 0.517004 0.503343 -0.065263
C20   C     C_R   0.046589 0.516965 0.504995 -0.063796
C21   C     C_R   0.907166 0.532687 0.417868 0.070252
C22   C     C_R   0.092304 0.496866 0.589571 0.071745
C23   C     C_R   0.950255 0.492178 0.673200 0.170608
C24   C     C_R   0.049493 0.562459 0.339148 0.170393
C25   C     C_R   0.044149 0.499801 0.674781 0.162855
C26   C     C_R   0.955531 0.569028 0.339981 0.168411
H1    H     H_    0.771646 0.489227 0.645362 0.149214
H2    H     H_    0.228046 0.552009 0.364938 0.153087
C27   C     C_R   0.440551 0.792553 0.553821 0.025025
C28   C     C_R   0.560378 0.207523 0.447325 0.025668
C29   C     C_R   0.559380 0.792992 0.446033 0.027793
C30   C     C_R   0.439408 0.206964 0.552314 0.027731
N1    N     N_R   0.500000 0.743810 0.500000 -0.185685
N2    N     N_R   0.500000 0.256190 0.500000 -0.184926
C31   C     C_R   0.560746 0.896561 0.442672 -0.048033
C32   C     C_R   0.435527 0.103464 0.552443 -0.048811
C33   C     C_R   0.438592 0.896109 0.556539 -0.038724
C34   C     C_R   0.563921 0.104014 0.446558 -0.037238
C35   C     C_R   0.499711 0.948319 0.499612 0.000373
C36   C     C_R   0.499753 0.051713 0.499567 0.000128
C37   C     C_R   0.622042 0.948741 0.385107 0.124737
C38   C     C_R   0.370035 0.051468 0.604737 0.125265
C39   C     C_R   0.376355 0.947737 0.613218 0.129741
C40   C     C_R   0.628791 0.052565 0.393227 0.128448
H3    H     H_    0.394779 0.748758 0.593942 0.147073
H4    H     H_    0.605136 0.251318 0.405955 0.144423
H5    H     H_    0.606283 0.749591 0.407279 0.144245
H6    H     H_    0.395547 0.250211 0.594827 0.140375
C41   C     C_3   0.765937 0.489204 0.324224 -0.884123
H7    H     H_    0.724630 0.422408 0.333161 0.226352
H8    H     H_    0.721397 0.550283 0.304381 0.226380
H9    H     H_    0.812445 0.471827 0.266683 0.248459
C42   C     C_3   0.232355 0.418977 0.660990 -0.877416
H10   H     H_    0.185599 0.383287 0.710055 0.245646
H11   H     H_    0.269899 0.357817 0.629471 0.235473
H12   H     H_    0.279647 0.466862 0.699255 0.222300
C43   C     C_3   0.898417 0.476603 0.763058 -0.880021
H13   H     H_    0.855568 0.410726 0.756542 0.229483
H14   H     H_    0.941180 0.463525 0.824582 0.242810
H15   H     H_    0.856405 0.541365 0.777698 0.232166
C44   C     C_3   0.101585 0.583905 0.250518 -0.880630
H16   H     H_    0.144955 0.520920 0.233338 0.228343
H17   H     H_    0.059091 0.595058 0.188447 0.243343
H18   H     H_    0.143091 0.650362 0.260288 0.232231
C45   C     C_3   0.089647 0.530316 0.764715 -0.872683
H19   H     H_    0.050205 0.588141 0.799776 0.238128
H20   H     H_    0.096275 0.467262 0.812697 0.230440
H21   H     H_    0.155975 0.563688 0.752100 0.243344
C46   C     C_3   0.910062 0.630844 0.266416 -0.881444
H22   H     H_    0.949194 0.698529 0.253766 0.237602
H23   H     H_    0.903622 0.589899 0.200011 0.232785
H24   H     H_    0.843733 0.656462 0.289438 0.244343
C47   C     C_3   0.676077 0.894345 0.311537 -0.417984
C48   C     C_3   0.766405 0.861674 0.349153 -0.829147
H25   H     H_    0.804703 0.924451 0.377259 0.260219
H26   H     H_    0.757613 0.806849 0.405375 0.250717
H27   H     H_    0.805629 0.828399 0.291892 0.239672
H28   H     H_    0.639059 0.830377 0.284066 0.187419
H29   H     H_    0.684710 0.938824 0.247675 0.191169
C49   C     C_3   0.290668 0.106227 0.645750 -0.417669
C50   C     C_3   0.308909 0.141120 0.745100 -0.829187
H30   H     H_    0.320166 0.078357 0.792349 0.258128
H31   H     H_    0.368505 0.189274 0.747164 0.249177
H32   H     H_    0.250713 0.182965 0.771033 0.241572
H33   H     H_    0.272244 0.169333 0.601514 0.188580
H34   H     H_    0.228892 0.061789 0.643156 0.192387
C51   C     C_3   0.319898 0.892118 0.684844 -0.419482
C52   C     C_3   0.376892 0.856217 0.766235 -0.825567
H35   H     H_    0.430209 0.806077 0.742832 0.251196
H36   H     H_    0.408248 0.919279 0.802319 0.254906
H37   H     H_    0.334092 0.816585 0.816910 0.239622
H38   H     H_    0.266451 0.935960 0.716550 0.217213
H39   H     H_    0.284017 0.830501 0.651370 0.184577
C53   C     C_3   0.706521 0.108625 0.348589 -0.423434
C54   C     C_3   0.771426 0.147239 0.422302 -0.818785
H40   H     H_    0.738850 0.198496 0.471281 0.254219
H41   H     H_    0.799450 0.085594 0.462907 0.252599
H42   H     H_    0.827133 0.186524 0.387555 0.242040
H43   H     H_    0.747262 0.064478 0.300682 0.218973
H44   H     H_    0.681462 0.168962 0.304383 0.182530

loop_
_geom_bond_atom_site_label_1
_geom_bond_atom_site_label_2
_geom_bond_distance
_ccdc_geom_bond_type
C20   C22   1.422172 A    
C42   H11   1.107819 S    
C17   C19   1.418389 A    
Cu2   N2    2.006142 S    
C38   C49   1.527432 S    
C9    C10   1.225224 T    
C48   H27   1.109335 S    
O3    C2    1.286698 A    
C30   H6    1.076391 S    
C46   H24   1.106800 S    
C51   C52   1.530645 S    
C49   H33   1.108916 S    
C33   C35   1.419448 A    
C17   C23   1.417654 A    
C34   C40   1.426142 A    
C54   H41   1.110560 S    
C25   C45   1.518504 S    
C12   C22   1.419643 A    
O1    C1    1.287681 A    
C40   C53   1.534137 S    
C48   H26   1.110122 S    
C11   C41   1.517931 S    
C53   H43   1.101908 S    
C23   C25   1.412612 A    
C31   C37   1.426235 A    
C32   C38   1.425047 A    
C28   C34   1.419728 A    
C30   C32   1.419362 A    
O7    Cu1   1.790940 S    
C15   H1    1.082330 S    
C12   C42   1.517488 S    
C3    C5    1.467644 S    
C27   H3    1.077051 S    
C4    C6    1.467600 S    
C28   H4    1.077204 S    
C28   N2    1.356509 A    
C24   C26   1.413173 A    
C51   H38   1.101808 S    
O3    Cu1   1.958590 S    
C33   C39   1.427456 A    
C34   C36   1.419036 A    
C47   H28   1.108628 S    
C42   H12   1.110321 S    
C18   C24   1.417510 A    
C41   H7    1.111022 S    
Cu1   Cu2   2.670104 S    
C29   N1    1.357520 A    
O2    C2    1.287446 A    
C30   N2    1.356518 A    
C53   C54   1.531423 S    
C45   H21   1.108572 S    
C47   H29   1.108100 S    
C54   H42   1.110609 S    
C41   H8    1.110375 S    
C43   H13   1.110412 S    
C22   C25   1.420529 A    
C48   H25   1.108885 S    
O8    Cu2   1.790942 S    
C50   H30   1.108914 S    
C44   H17   1.106878 S    
C16   H2    1.082346 S    
C27   N1    1.357010 A    
C39   C51   1.532840 S    
C46   H22   1.110893 S    
C43   H14   1.106932 S    
O5    C3    1.300385 A    
C45   H19   1.110905 S    
C19   C20   1.405559 A    
C50   H31   1.109863 S    
C11   C21   1.419613 A    
C47   C48   1.528004 S    
C31   C35   1.418747 A    
O6    C4    1.300450 A    
C45   H20   1.109870 S    
C51   H39   1.109314 S    
C52   H35   1.108355 S    
C52   H36   1.110664 S    
C11   C13   1.401574 A    
C12   C14   1.404439 A    
O1    Cu1   1.957087 S    
C37   C47   1.526564 S    
Cu1   N1    2.006142 S    
C38   C39   1.430270 A    
C23   C43   1.520177 S    
C27   C33   1.420075 A    
C5    C7    1.225129 T    
C41   H9    1.107172 S    
O6    Cu2   1.790820 S    
C16   C18   1.399772 A    
C14   C16   1.388012 A    
O4    C1    1.288847 A    
C26   C46   1.517780 S    
C44   H18   1.110373 S    
C49   H34   1.107922 S    
C15   C17   1.399527 A    
C52   H37   1.110520 S    
C54   H40   1.108189 S    
C32   C36   1.418124 A    
C46   H23   1.109865 S    
C37   C40   1.430768 A    
C43   H15   1.110394 S    
C18   C20   1.417165 A    
C29   H5    1.077330 S    
C44   H16   1.110433 S    
C19   C21   1.423084 A    
C50   H32   1.110370 S    
C53   H44   1.109295 S    
C49   C50   1.528313 S    
C1    C14   1.451842 S    
C2    C13   1.447952 S    
C7    C9    1.443794 S    
C8    C10   1.443760 S    
C13   C15   1.386410 A    
O4    Cu2   1.958590 S    
O2    Cu2   1.957087 S    
O7    C4    1.300487 A    
O8    C3    1.300534 A    
C42   H10   1.106433 S    
O5    Cu1   1.790822 S    
C6    C8    1.225097 T    
C35   C36   1.416914 A    
C29   C31   1.420221 A    
C21   C26   1.421465 A    
C24   C44   1.520584 S    
