data_mof_unit_16739.cif
_audit_creation_date              2013-03-05T15:50:14-0500
_audit_creation_method            fapswitch 2.2
_symmetry_space_group_name_H-M    P1
_symmetry_Int_Tables_number       1
_space_group_crystal_system       triclinic
_cell_length_a                    18.36598
_cell_length_b                    25.797605
_cell_length_c                    18.323183
_cell_angle_alpha                 90.119021
_cell_angle_beta                  89.964998
_cell_angle_gamma                 90.090478
_cell_volume                      8681.46175153

loop_
_atom_site_label
_atom_site_type_symbol
_atom_site_description
_atom_site_fract_x
_atom_site_fract_y
_atom_site_fract_z
_atom_type_partial_charge
Zn1   Zn    Zn3+2 0.249990 0.293780 0.913250 0.979650
Zn2   Zn    Zn3+2 0.249990 0.706220 0.086750 0.953636
Zn3   Zn    Zn3+2 0.249990 0.706220 0.913250 0.975661
Zn4   Zn    Zn3+2 0.249990 0.293780 0.086750 0.950894
Zn5   Zn    Zn3+2 0.749990 0.793780 0.413250 0.967876
Zn6   Zn    Zn3+2 0.749990 0.206220 0.586750 0.955430
Zn7   Zn    Zn3+2 0.749990 0.206220 0.413250 0.974863
Zn8   Zn    Zn3+2 0.749990 0.793780 0.586750 0.949524
Zn9   Zn    Zn3+2 0.336760 0.206240 0.000000 0.980159
Zn10  Zn    Zn3+2 0.336760 0.793760 0.000000 0.976962
Zn11  Zn    Zn3+2 0.836760 0.706240 0.500000 0.979759
Zn12  Zn    Zn3+2 0.836760 0.293760 0.500000 0.979275
Zn13  Zn    Zn3+2 0.163250 0.206230 0.000000 0.980055
Zn14  Zn    Zn3+2 0.163250 0.793770 0.000000 0.980401
Zn15  Zn    Zn3+2 0.663250 0.706230 0.500000 0.985403
Zn16  Zn    Zn3+2 0.663250 0.293770 0.500000 0.979906
O1    O     O_3   0.249990 0.250010 0.000000 -0.485864
O2    O     O_3   0.249990 0.749990 0.000000 -0.485947
O3    O     O_3   0.749990 0.750010 0.500000 -0.486764
O4    O     O_3   0.749990 0.249990 0.500000 -0.486349
O5    O     O_R   0.335430 0.280650 0.146160 -0.639187
O6    O     O_R   0.335430 0.719350 0.853840 -0.627827
O7    O     O_R   0.335430 0.719350 0.146160 -0.639012
O8    O     O_R   0.335430 0.280650 0.853840 -0.627899
O9    O     O_R   0.835430 0.780650 0.646160 -0.639922
O10   O     O_R   0.835430 0.219350 0.353840 -0.630130
O11   O     O_R   0.835430 0.219350 0.646160 -0.637333
O12   O     O_R   0.835430 0.780650 0.353840 -0.637013
O13   O     O_R   0.164550 0.280640 0.853840 -0.624407
O14   O     O_R   0.164550 0.719360 0.146160 -0.637718
O15   O     O_R   0.164550 0.719360 0.853840 -0.629914
O16   O     O_R   0.164550 0.280640 0.146160 -0.638876
O17   O     O_R   0.664550 0.780640 0.353840 -0.640831
O18   O     O_R   0.664550 0.219360 0.646160 -0.634042
O19   O     O_R   0.664550 0.219360 0.353840 -0.629917
O20   O     O_R   0.664550 0.780640 0.646160 -0.639998
O21   O     O_R   0.396160 0.219380 0.914560 -0.634297
O22   O     O_R   0.396160 0.780620 0.085440 -0.637263
O23   O     O_R   0.396160 0.780620 0.914560 -0.642575
O24   O     O_R   0.396160 0.219380 0.085440 -0.638464
O25   O     O_R   0.896160 0.719380 0.414560 -0.626950
O26   O     O_R   0.896160 0.280620 0.585440 -0.636745
O27   O     O_R   0.896160 0.280620 0.414560 -0.638101
O28   O     O_R   0.896160 0.719380 0.585440 -0.638098
O29   O     O_R   0.103840 0.219370 0.085450 -0.639365
O30   O     O_R   0.103840 0.780630 0.914550 -0.638928
O31   O     O_R   0.103840 0.780630 0.085450 -0.635014
O32   O     O_R   0.103840 0.219370 0.914550 -0.636349
O33   O     O_R   0.603840 0.719370 0.585450 -0.640931
O34   O     O_R   0.603840 0.280630 0.414550 -0.637057
O35   O     O_R   0.603840 0.280630 0.585450 -0.637993
O36   O     O_R   0.603840 0.719370 0.414550 -0.621075
O37   O     O_R   0.310730 0.133160 0.000000 -0.634295
O38   O     O_R   0.310730 0.866840 0.000000 -0.633969
O39   O     O_R   0.810730 0.633160 0.500000 -0.636081
O40   O     O_R   0.810730 0.366840 0.500000 -0.635758
O41   O     O_R   0.249970 0.366860 0.060720 -0.652157
O42   O     O_R   0.249970 0.633140 0.939280 -0.652516
O43   O     O_R   0.249970 0.633140 0.060720 -0.645915
O44   O     O_R   0.249970 0.366860 0.939280 -0.648025
O45   O     O_R   0.749970 0.866860 0.560720 -0.652531
O46   O     O_R   0.749970 0.133140 0.439280 -0.652008
O47   O     O_R   0.749970 0.133140 0.560720 -0.647911
O48   O     O_R   0.749970 0.866860 0.439280 -0.644512
O49   O     O_R   0.189290 0.133150 0.000000 -0.636263
O50   O     O_R   0.189290 0.866850 0.000000 -0.635864
O51   O     O_R   0.689290 0.633150 0.500000 -0.629689
O52   O     O_R   0.689290 0.366850 0.500000 -0.636124
C1    C     C_R   0.389525 0.249838 0.139987 0.780333
C2    C     C_R   0.389734 0.750310 0.859886 0.803211
C3    C     C_R   0.389608 0.750139 0.139985 0.778497
C4    C     C_R   0.389942 0.249843 0.860083 0.802491
C5    C     C_R   0.889586 0.749919 0.639911 0.780010
C6    C     C_R   0.889725 0.250354 0.359855 0.806079
C7    C     C_R   0.889315 0.250502 0.640132 0.781932
C8    C     C_R   0.889828 0.750046 0.360153 0.791564
C9    C     C_R   0.110292 0.249405 0.859804 0.806693
C10   C     C_R   0.110452 0.750160 0.139970 0.784153
C11   C     C_R   0.110176 0.750157 0.859943 0.805823
C12   C     C_R   0.110447 0.249786 0.139990 0.783276
C13   C     C_R   0.610334 0.749957 0.359906 0.810643
C14   C     C_R   0.610938 0.250787 0.640313 0.783693
C15   C     C_R   0.610083 0.250044 0.360054 0.805403
C16   C     C_R   0.610575 0.749628 0.640129 0.780516
C17   C     C_R   0.249962 0.109361 0.000155 0.820542
C18   C     C_R   0.250057 0.890612 0.999492 0.821909
C19   C     C_R   0.749885 0.609337 0.499166 0.817304
C20   C     C_R   0.750090 0.390583 0.500015 0.820004
C21   C     C_R   0.249865 0.391346 0.000150 0.733838
C22   C     C_R   0.249974 0.608646 0.000061 0.736455
C23   C     C_R   0.749915 0.891352 0.500156 0.737548
C24   C     C_R   0.749976 0.108651 0.500066 0.734300
C25   C     C_3   0.249924 0.470338 0.079951 -0.376116
C26   C     C_3   0.181140 0.529859 0.961316 -0.374608
C27   C     C_3   0.250138 0.529854 0.079902 -0.372466
C28   C     C_3   0.181103 0.469919 0.961185 -0.372862
C29   C     C_3   0.750202 0.970357 0.579984 -0.376423
C30   C     C_3   0.681010 0.029869 0.461573 -0.377203
C31   C     C_3   0.750420 0.029876 0.579933 -0.372291
C32   C     C_3   0.681087 0.969934 0.461369 -0.373808
H1    H     H_    0.298796 0.456151 0.109745 0.179061
H2    H     H_    0.179382 0.544137 0.904067 0.188336
H3    H     H_    0.299192 0.544080 0.109532 0.180547
H4    H     H_    0.179547 0.455626 0.903853 0.188841
H5    H     H_    0.799151 0.956166 0.609649 0.177797
H6    H     H_    0.678916 0.044190 0.404355 0.187141
H7    H     H_    0.799581 0.044107 0.609389 0.178995
H8    H     H_    0.679476 0.955686 0.404019 0.188045
H9    H     H_    0.200943 0.456207 0.109797 0.189131
H10   H     H_    0.131365 0.544284 0.989429 0.178317
H11   H     H_    0.201353 0.544118 0.109914 0.189406
H12   H     H_    0.131121 0.455413 0.988866 0.178017
H13   H     H_    0.701307 0.956225 0.609962 0.190614
H14   H     H_    0.631337 0.044229 0.489931 0.178801
H15   H     H_    0.701738 0.044140 0.610114 0.190389
H16   H     H_    0.631188 0.955376 0.489128 0.176547
H17   H     H_    0.368491 0.455691 0.988544 0.147604
H18   H     H_    0.319716 0.544051 0.903335 0.185267
H19   H     H_    0.368562 0.544551 0.988072 0.150011
H20   H     H_    0.319959 0.455569 0.903621 0.186537
H21   H     H_    0.868526 0.955762 0.488344 0.147760
H22   H     H_    0.819435 0.044060 0.403152 0.185503
H23   H     H_    0.868542 0.044621 0.487743 0.146983
H24   H     H_    0.819826 0.955584 0.403508 0.187085
C33   C     C_3   0.318486 0.470009 0.960885 -0.397076
C34   C     C_3   0.318472 0.529938 0.960686 -0.399757
C35   C     C_3   0.818456 0.970042 0.460764 -0.395176
C36   C     C_3   0.818382 0.029970 0.460518 -0.400269
C37   C     C_3   0.249834 0.449092 0.000536 0.182401
C38   C     C_3   0.249956 0.550884 0.000442 0.181215
C39   C     C_3   0.749907 0.949109 0.500565 0.181542
C40   C     C_3   0.749967 0.050900 0.500464 0.183640
H25   H     H_    0.109738 0.083257 0.728750 0.137598
H26   H     H_    0.158529 0.890070 0.313966 0.124222
H27   H     H_    0.090526 0.923767 0.752578 0.142107
H28   H     H_    0.100203 0.079064 0.255832 0.140215
H29   H     H_    0.714415 0.691261 0.127531 0.142769
H30   H     H_    0.626447 0.411245 0.783114 0.130310
H31   H     H_    0.593878 0.422642 0.249423 0.144877
H32   H     H_    0.600113 0.578860 0.756059 0.139257
C41   C     C_R   0.005230 0.331729 0.853587 -0.193474
C42   C     C_R   0.995492 0.674871 0.136941 -0.191532
C43   C     C_R   0.028162 0.657361 0.828167 -0.197960
C44   C     C_R   0.028376 0.341977 0.169109 -0.189974
C45   C     C_R   0.465795 0.785872 0.392496 -0.189348
C46   C     C_R   0.506187 0.168966 0.646578 -0.188082
C47   C     C_R   0.525279 0.157944 0.331199 -0.197483
C48   C     C_R   0.529261 0.841812 0.669850 -0.183050
C49   C     C_R   0.953804 0.371509 0.852035 0.066969
C50   C     C_R   0.939709 0.638021 0.134778 0.068737
C51   C     C_R   0.989473 0.612039 0.812696 0.067500
C52   C     C_R   0.992431 0.388094 0.185854 0.063890
C53   C     C_R   0.395884 0.803505 0.409194 0.069121
C54   C     C_R   0.458157 0.127166 0.651695 0.063406
C55   C     C_R   0.484792 0.113067 0.317456 0.068188
C56   C     C_R   0.494177 0.888078 0.687086 0.074024
C57   C     C_R   0.342192 0.803484 0.355584 -0.182285
C58   C     C_R   0.412705 0.122806 0.712151 -0.175585
C59   C     C_R   0.430303 0.113585 0.264790 -0.179787
C60   C     C_R   0.443135 0.889195 0.743082 -0.175144
C61   C     C_R   0.902449 0.373217 0.796195 -0.173957
C62   C     C_R   0.886240 0.637980 0.188698 -0.184294
C63   C     C_R   0.934443 0.612557 0.760650 -0.180514
C64   C     C_R   0.942150 0.389170 0.242533 -0.180885
C65   C     C_R   0.358156 0.785896 0.285428 -0.167862
C66   C     C_R   0.411899 0.161868 0.764767 -0.166339
C67   C     C_R   0.416619 0.158533 0.225284 -0.165913
C68   C     C_R   0.427297 0.844108 0.781715 -0.158038
C69   C     C_R   0.900715 0.334321 0.743314 -0.166977
C70   C     C_R   0.888330 0.674673 0.244557 -0.175713
C71   C     C_R   0.918865 0.657994 0.723038 -0.166019
C72   C     C_R   0.927378 0.344245 0.281894 -0.161920
C73   C     C_R   0.428542 0.767386 0.267374 0.078085
C74   C     C_R   0.455102 0.206826 0.757340 0.067280
C75   C     C_R   0.458415 0.204100 0.236597 0.077058
C76   C     C_R   0.463084 0.796721 0.766181 0.071530
C77   C     C_R   0.950275 0.292358 0.745686 0.075331
C78   C     C_R   0.944097 0.712426 0.247836 0.072659
C79   C     C_R   0.959579 0.703949 0.735375 0.077019
C80   C     C_R   0.963100 0.296890 0.266182 0.070296
C81   C     C_R   0.004011 0.291516 0.800869 0.061037
C82   C     C_R   0.998531 0.712469 0.193384 0.059151
C83   C     C_R   0.014586 0.703824 0.789215 0.058350
C84   C     C_R   0.015790 0.296168 0.210164 0.060835
C85   C     C_R   0.483143 0.767396 0.321654 0.054587
C86   C     C_R   0.506076 0.208862 0.699919 0.063207
C87   C     C_R   0.513258 0.203970 0.290637 0.058642
C88   C     C_R   0.516021 0.795959 0.710416 0.060945
C89   C     C_R   0.445701 0.750096 0.196060 -0.146907
C90   C     C_R   0.447383 0.249917 0.804813 -0.155252
C91   C     C_R   0.445463 0.249799 0.196055 -0.148246
C92   C     C_R   0.446787 0.750328 0.804444 -0.160280
C93   C     C_R   0.945485 0.250505 0.695891 -0.142697
C94   C     C_R   0.946105 0.750124 0.303974 -0.147443
C95   C     C_R   0.945537 0.749947 0.695929 -0.149196
C96   C     C_R   0.946827 0.250456 0.304423 -0.161140
C97   C     C_R   0.516856 0.733690 0.177831 0.073222
C98   C     C_R   0.493908 0.293446 0.798481 0.075901
C99   C     C_R   0.485632 0.295610 0.209221 0.077736
C100  C     C_R   0.486164 0.704155 0.790676 0.075509
C101  C     C_R   0.991475 0.207001 0.702087 0.078376
C102  C     C_R   0.002094 0.787757 0.306603 0.073693
C103  C     C_R   0.984815 0.796035 0.709965 0.077875
C104  C     C_R   0.986171 0.204297 0.290551 0.075941
C105  C     C_R   0.043363 0.205438 0.758753 0.063754
C106  C     C_R   0.056819 0.787660 0.252315 0.074743
C107  C     C_R   0.037633 0.796610 0.765865 0.067403
C108  C     C_R   0.040739 0.204119 0.236204 0.073339
C109  C     C_R   0.571979 0.735087 0.231510 0.070083
C110  C     C_R   0.548687 0.293696 0.744214 0.071205
C111  C     C_R   0.538516 0.296173 0.265045 0.067360
C112  C     C_R   0.540708 0.703910 0.736289 0.073790
C113  C     C_R   0.052442 0.249096 0.804994 -0.152001
C114  C     C_R   0.054439 0.750099 0.196087 -0.136286
C115  C     C_R   0.053385 0.750181 0.804171 -0.156260
C116  C     C_R   0.054388 0.249875 0.195907 -0.144731
C117  C     C_R   0.554279 0.750633 0.303591 -0.153924
C118  C     C_R   0.554502 0.251149 0.695775 -0.137833
C119  C     C_R   0.553256 0.250012 0.304349 -0.155546
C120  C     C_R   0.554481 0.749661 0.696053 -0.144801
C121  C     C_R   0.534159 0.715167 0.106978 -0.144361
C122  C     C_R   0.488295 0.336375 0.846487 -0.147767
C123  C     C_R   0.474988 0.340965 0.166814 -0.143073
C124  C     C_R   0.474303 0.658477 0.832050 -0.153496
C125  C     C_R   0.986407 0.164521 0.653035 -0.140225
C126  C     C_R   0.005095 0.825446 0.362837 -0.146896
C127  C     C_R   0.973425 0.841648 0.668293 -0.142761
C128  C     C_R   0.974256 0.158563 0.331795 -0.147917
C129  C     C_R   0.604742 0.699953 0.089328 -0.140632
C130  C     C_R   0.535573 0.378471 0.840504 -0.141583
C131  C     C_R   0.513776 0.386219 0.181332 -0.147204
C132  C     C_R   0.514628 0.613716 0.818975 -0.148125
C133  C     C_R   0.029425 0.120613 0.662234 -0.146682
C134  C     C_R   0.061063 0.861976 0.365123 -0.136244
C135  C     C_R   0.011287 0.887153 0.683685 -0.149330
C136  C     C_R   0.014596 0.113821 0.318669 -0.144806
C137  C     C_R   0.077632 0.117898 0.720411 -0.134314
C138  C     C_R   0.115015 0.861766 0.311870 -0.141681
C139  C     C_R   0.061364 0.888297 0.740283 -0.135712
C140  C     C_R   0.068331 0.113698 0.265357 -0.134901
C141  C     C_R   0.659440 0.702756 0.141443 -0.141765
C142  C     C_R   0.589625 0.378591 0.787375 -0.131723
C143  C     C_R   0.564019 0.387358 0.237791 -0.135501
C144  C     C_R   0.568267 0.613514 0.765558 -0.136422
C145  C     C_R   0.084340 0.159673 0.768249 -0.142935
C146  C     C_R   0.113206 0.825113 0.255917 -0.148094
C147  C     C_R   0.074616 0.843700 0.780808 -0.136184
C148  C     C_R   0.081897 0.158295 0.224836 -0.142833
C149  C     C_R   0.643557 0.720090 0.211700 -0.137441
C150  C     C_R   0.596578 0.336682 0.739781 -0.142968
C151  C     C_R   0.576469 0.342999 0.279080 -0.138487
C152  C     C_R   0.581788 0.658062 0.724909 -0.143211
H33   H     H_    0.044021 0.331447 0.898100 0.121385
H34   H     H_    0.036111 0.673879 0.094062 0.120799
H35   H     H_    0.068482 0.655558 0.871069 0.138292
H36   H     H_    0.066007 0.342615 0.123667 0.136588
H37   H     H_    0.506399 0.787555 0.435240 0.131355
H38   H     H_    0.541877 0.170693 0.599540 0.122457
H39   H     H_    0.565515 0.156311 0.374224 0.135725
H40   H     H_    0.567106 0.842503 0.624602 0.135994
H41   H     H_    0.287902 0.817474 0.367795 0.143645
H42   H     H_    0.376947 0.089641 0.718108 0.143586
H43   H     H_    0.397952 0.079184 0.254371 0.147483
H44   H     H_    0.415544 0.924969 0.757128 0.149371
H45   H     H_    0.862526 0.404045 0.794453 0.134446
H46   H     H_    0.842685 0.609603 0.187567 0.136243
H47   H     H_    0.903324 0.577761 0.749109 0.148090
H48   H     H_    0.914111 0.424800 0.256422 0.151590
H49   H     H_    0.314828 0.787572 0.245548 0.134821
H50   H     H_    0.377458 0.156502 0.811325 0.171642
H51   H     H_    0.372576 0.156974 0.186215 0.138923
H52   H     H_    0.387735 0.847434 0.824597 0.175405
H53   H     H_    0.858768 0.336759 0.702019 0.126861
H54   H     H_    0.845845 0.673255 0.285060 0.147104
H55   H     H_    0.874442 0.656405 0.684421 0.140554
H56   H     H_    0.888493 0.347663 0.325336 0.176986
H57   H     H_    0.493500 0.711862 0.064541 0.127503
H58   H     H_    0.447900 0.337763 0.889442 0.119522
H59   H     H_    0.437234 0.342049 0.121599 0.128408
H60   H     H_    0.434849 0.656851 0.875781 0.128881
H61   H     H_    0.949123 0.164607 0.607341 0.119612
H62   H     H_    0.964510 0.826997 0.405635 0.113050
H63   H     H_    0.935859 0.842749 0.622928 0.128818
H64   H     H_    0.934752 0.156869 0.375472 0.129283
H65   H     H_    0.024511 0.088311 0.624736 0.125828
H66   H     H_    0.062645 0.890492 0.408524 0.128347
H67   H     H_    0.001661 0.921645 0.651562 0.126553
H68   H     H_    0.004679 0.079286 0.350672 0.129361
H69   H     H_    0.617032 0.686049 0.034915 0.138872
H70   H     H_    0.530500 0.411002 0.877573 0.126591
H71   H     H_    0.504719 0.420526 0.148657 0.129436
H72   H     H_    0.504757 0.579221 0.851078 0.128864
H73   H     H_    0.120010 0.155099 0.813967 0.163885
H74   H     H_    0.156485 0.826384 0.215828 0.108392
H75   H     H_    0.113919 0.846972 0.823903 0.166957
H76   H     H_    0.125612 0.156386 0.185390 0.130890
H77   H     H_    0.688264 0.721770 0.249724 0.158001
H78   H     H_    0.639778 0.338417 0.699669 0.117888
H79   H     H_    0.615858 0.346221 0.322109 0.166177
H80   H     H_    0.625424 0.656113 0.685375 0.131059
H81   H     H_    0.249413 0.046832 0.741711 0.142802
H82   H     H_    0.250174 0.953336 0.741277 0.153843
H83   H     H_    0.741419 0.545422 0.241329 0.140919
H84   H     H_    0.749716 0.452125 0.241519 0.151180
C153  C     C_R   0.249656 0.053821 0.131944 -0.157696
C154  C     C_R   0.249763 0.946195 0.131661 -0.140111
C155  C     C_R   0.751845 0.554221 0.631380 -0.155452
C156  C     C_R   0.751637 0.446588 0.631899 -0.144487
C157  C     C_R   0.249607 0.026918 0.197725 -0.161954
C158  C     C_R   0.249678 0.973147 0.197587 -0.129836
C159  C     C_R   0.752593 0.527561 0.697353 -0.160159
C160  C     C_R   0.752373 0.473795 0.697612 -0.145268
C161  C     C_R   0.249892 0.972855 0.063781 0.072319
C162  C     C_R   0.249806 0.027115 0.063942 0.076858
C163  C     C_R   0.750880 0.472996 0.563838 0.074526
C164  C     C_R   0.750795 0.527265 0.563585 0.079640
C165  C     C_R   0.250127 0.946187 0.996433 -0.145878
C166  C     C_R   0.249854 0.053748 0.996777 -0.145177
C167  C     C_R   0.750320 0.446082 0.496696 -0.144302
C168  C     C_R   0.749110 0.553637 0.496225 -0.144939
C169  C     C_R   0.250129 0.972320 0.927739 0.014830
C170  C     C_R   0.249905 0.027562 0.927945 0.018496
C171  C     C_R   0.749254 0.471878 0.427843 0.017911
C172  C     C_R   0.746826 0.527062 0.427666 0.012982
C173  C     C_R   0.250297 0.945650 0.858502 0.033137
C174  C     C_R   0.249699 0.054286 0.858980 0.043619
C175  C     C_R   0.750029 0.444912 0.358797 0.032788
C176  C     C_R   0.742102 0.553275 0.358567 0.038152
C177  C     C_R   0.250099 0.973351 0.793420 -0.215029
C178  C     C_R   0.249722 0.026722 0.793652 -0.221774
C179  C     C_R   0.748737 0.472322 0.293513 -0.217857
C180  C     C_R   0.744333 0.525575 0.293389 -0.195708
H85   H     H_    0.249583 0.095709 0.135257 0.102500
H86   H     H_    0.249775 0.904307 0.134767 0.106566
H87   H     H_    0.751807 0.596118 0.634395 0.102945
H88   H     H_    0.751611 0.404710 0.635298 0.100828
H89   H     H_    0.249534 0.047917 0.248947 0.130800
H90   H     H_    0.249744 0.952197 0.248709 0.125989
H91   H     H_    0.753206 0.548746 0.748421 0.130590
H92   H     H_    0.752715 0.453061 0.748892 0.120233
C181  C     C_1   0.250603 0.889988 0.849259 0.084139
N1    N     N_1   0.250822 0.845449 0.841300 -0.229223
C182  C     C_1   0.249374 0.109942 0.850686 0.082366
N2    N     N_1   0.249107 0.154575 0.844245 -0.234597
C183  C     C_1   0.751523 0.389234 0.349930 0.084722
N3    N     N_1   0.752463 0.344674 0.342296 -0.230669
C184  C     C_1   0.731346 0.608258 0.349997 0.122900
N4    N     N_1   0.722230 0.652302 0.343092 -0.241567
C185  C     C_1   0.951290 0.408958 0.910330 0.140802
N5    N     N_1   0.948890 0.438696 0.957620 -0.170465
C186  C     C_1   0.937257 0.600281 0.076800 0.134892
N6    N     N_1   0.935251 0.569983 0.030183 -0.176932
C187  C     C_1   0.006837 0.564681 0.850029 0.145659
N7    N     N_1   0.021065 0.526533 0.879745 -0.195039
C188  C     C_1   0.008355 0.434644 0.145530 0.143018
N8    N     N_1   0.021384 0.472055 0.113284 -0.196039
C189  C     C_1   0.379643 0.822276 0.481501 0.144904
N9    N     N_1   0.366723 0.837348 0.539617 -0.193423
C190  C     C_1   0.454059 0.089639 0.593629 0.142535
N10   N     N_1   0.450282 0.059811 0.546551 -0.179324
C191  C     C_1   0.499012 0.066241 0.357626 0.140362
N11   N     N_1   0.510321 0.028467 0.389593 -0.199790
C192  C     C_1   0.512708 0.934711 0.648305 0.136527
N12   N     N_1   0.528376 0.972044 0.617159 -0.206666

loop_
_geom_bond_atom_site_label_1
_geom_bond_atom_site_label_2
_geom_bond_distance
_ccdc_geom_bond_type
C162  C166  1.410719 A    
C57   H41   1.083987 S    
C44   C84   1.420755 A    
C189  N9    1.157462 T    
C152  H80   1.081103 S    
C176  C180  1.391079 A    
C1    C91   1.453335 S    
C103  C127  1.419897 A    
C2    C92   1.458981 S    
C12   C116  1.452073 S    
C79   C95   1.414838 A    
C101  C125  1.418848 A    
C58   C66   1.393256 A    
O26   C7    1.275361 A    
C154  C158  1.392523 A    
C49   C185  1.439500 S    
C70   C78   1.413450 A    
H27   C139  1.082897 S    
C54   C58   1.391302 A    
C105  C145  1.412228 A    
O30   C11   1.276545 A    
C30   H14   1.113191 S    
C23   C39   1.489996 S    
C93   C101  1.410512 A    
C157  H89   1.082684 S    
C4    C90   1.461921 S    
C133  C137  1.388091 A    
Zn12  O26   1.939433 S    
C104  C108  1.412378 A    
C19   C168  1.437868 S    
C150  H78   1.082140 S    
C20   C167  1.433171 S    
C173  C177  1.391523 A    
C96   C104  1.416312 A    
C47   C55   1.397475 A    
C80   C96   1.420322 A    
H29   C141  1.082898 S    
C106  C114  1.413533 A    
C43   C51   1.395891 A    
H26   C138  1.082333 S    
H84   C179  1.085055 S    
C10   C114  1.454057 S    
C48   H40   1.081731 S    
O11   C7    1.278737 A    
C154  H86   1.082234 S    
O34   C15   1.276592 A    
C76   C88   1.410129 A    
C83   C115  1.417467 A    
C167  C171  1.427739 A    
C66   C74   1.410986 A    
C45   H37   1.082542 S    
C171  C172  1.424389 A    
C141  C149  1.392786 A    
C29   C39   1.553958 S    
C102  C126  1.416265 A    
Zn1   O44   1.943724 S    
C25   H1    1.113592 S    
H20   C33   1.113026 S    
C18   C165  1.434915 S    
C112  C120  1.415276 A    
C146  H74   1.082477 S    
C153  C162  1.422535 A    
Zn5   O48   1.943724 S    
H32   C144  1.082798 S    
Zn6   O47   1.943723 S    
C126  H62   1.082320 S    
Zn7   O46   1.945644 S    
O16   C12   1.277093 A    
C78   C94   1.414580 A    
C188  N8    1.157264 T    
C175  C183  1.445483 S    
Zn16  O4    1.954257 S    
Zn12  O4    1.951651 S    
Zn1   O13   1.939366 S    
C137  C145  1.393098 A    
Zn3   O15   1.941023 S    
Zn4   O16   1.939081 S    
C65   H49   1.081666 S    
H24   C35   1.112992 S    
C42   C82   1.417479 A    
C28   H4    1.112973 S    
Zn6   O4    1.951687 S    
C89   C97   1.413905 A    
C107  C147  1.417147 A    
C132  H72   1.082738 S    
C48   C88   1.418948 A    
C30   H6    1.113036 S    
Zn10  O22   1.939433 S    
C109  C117  1.417249 A    
C129  H69   1.082671 S    
C41   H33   1.083328 S    
O25   C8    1.279421 A    
C175  C179  1.391086 A    
Zn10  O2    1.951651 S    
C59   C67   1.391513 A    
O29   C12   1.275031 A    
C41   C81   1.416181 A    
Zn15  O33   1.937470 S    
C35   C39   1.551407 S    
C71   H55   1.080960 S    
H19   C34   1.113062 S    
C33   C37   1.551497 S    
C95   C103  1.412939 A    
C26   H2    1.113001 S    
C169  C170  1.425136 A    
C45   C85   1.418105 A    
C190  N10   1.156805 T    
O37   C17   1.272939 A    
O48   C23   1.280823 A    
C156  H88   1.082266 S    
C80   C84   1.410364 A    
C28   C37   1.551412 S    
Zn13  O29   1.937470 S    
C185  N5    1.156982 T    
C131  C143  1.386924 A    
C186  N6    1.157164 T    
Zn16  O35   1.938006 S    
C130  H70   1.082650 S    
C21   C37   1.489704 S    
C86   C118  1.408564 A    
C73   C85   1.412802 A    
C26   C38   1.550108 S    
Zn7   O10   1.939038 S    
O33   C16   1.274753 A    
C24   C40   1.489875 S    
H83   C180  1.084967 S    
C97   C121  1.418519 A    
C134  C138  1.390256 A    
O40   C20   1.271875 A    
C123  H59   1.081124 S    
C124  H60   1.080836 S    
C16   C120  1.452615 S    
C61   H45   1.083089 S    
C58   H42   1.083399 S    
Zn5   O17   1.939366 S    
C27   C38   1.554816 S    
H31   C143  1.082802 S    
C171  C175  1.442600 A    
C61   C69   1.393788 A    
C92   C100  1.416599 A    
C13   C117  1.458216 S    
C25   C27   1.535366 S    
C43   H35   1.081411 S    
C53   C57   1.392312 A    
C71   C79   1.418456 A    
H25   C137  1.082584 S    
C69   C77   1.416197 A    
C27   H3    1.113485 S    
C32   H8    1.112941 S    
Zn8   O3    1.947862 S    
C143  C151  1.392421 A    
C55   C59   1.390760 A    
C56   C60   1.389658 A    
C57   C65   1.393488 A    
O38   C18   1.272811 A    
C176  C184  1.441345 S    
O5    C1    1.278155 A    
O32   C9    1.274143 A    
C108  C148  1.419108 A    
C130  C142  1.389962 A    
C156  C163  1.422376 A    
C15   C119  1.460265 S    
Zn15  O51   1.945735 S    
Zn11  O28   1.937693 S    
Zn12  O40   1.945692 S    
C8    C94   1.458307 S    
Zn2   O43   1.943723 S    
C46   H38   1.083446 S    
C159  H91   1.082696 S    
O8    C4    1.284560 A    
C67   C75   1.417883 A    
C68   C76   1.417136 A    
C127  H63   1.081038 S    
O50   C18   1.272506 A    
C161  C165  1.411617 A    
C111  C119  1.419463 A    
Zn1   O1    1.951688 S    
C126  C134  1.393999 A    
Zn13  O1    1.951347 S    
Zn2   O14   1.939157 S    
C29   H5    1.113598 S    
C44   C52   1.395012 A    
C44   H36   1.081914 S    
C170  C174  1.440745 A    
C77   C81   1.413591 A    
O9    C5    1.277848 A    
C47   H39   1.081817 S    
O36   C13   1.281485 A    
C98   C110  1.414112 A    
C64   C72   1.392532 A    
C75   C87   1.412889 A    
O13   C9    1.285295 A    
C122  C130  1.393822 A    
Zn1   O8    1.939113 S    
C59   H43   1.083907 S    
C30   C40   1.550307 S    
Zn2   O7    1.939324 S    
C60   H44   1.084016 S    
C101  C105  1.410436 A    
Zn3   O6    1.939038 S    
C81   C113  1.413484 A    
O18   C14   1.281136 A    
O31   C10   1.278403 A    
H17   C33   1.113158 S    
O6    C2    1.281471 A    
C156  C160  1.392489 A    
C25   H9    1.113729 S    
C32   H16   1.113007 S    
C159  C160  1.387069 A    
C187  N7    1.156057 T    
C9    C113  1.462449 S    
Zn14  O30   1.937946 S    
C60   C68   1.393079 A    
Zn15  O3    1.951347 S    
C64   H48   1.084068 S    
Zn11  O3    1.954560 S    
C99   C123  1.419751 A    
O41   C21   1.278158 A    
C31   C40   1.554927 S    
C168  C172  1.430466 A    
C106  C146  1.416700 A    
Zn16  O34   1.937946 S    
H21   C35   1.113159 S    
C31   H15   1.113664 S    
C84   C116  1.413536 A    
C34   C38   1.550959 S    
C94   C102  1.413840 A    
C139  C147  1.392448 A    
Zn8   O20   1.939081 S    
C133  H65   1.082633 S    
C174  C178  1.391007 A    
C192  N12   1.156404 T    
C125  H61   1.081952 S    
C112  C152  1.418906 A    
C63   C71   1.391193 A    
C131  H71   1.082667 S    
C72   C80   1.416549 A    
C105  C113  1.417675 A    
C163  C164  1.400028 A    
Zn8   O9    1.940979 S    
C25   C37   1.553882 S    
C72   H56   1.072660 S    
C123  C131  1.391938 A    
C88   C120  1.412736 A    
C50   C62   1.392583 A    
C166  C170  1.429498 A    
C56   C192  1.438747 S    
C142  C150  1.393595 A    
O7    C3    1.277303 A    
C69   H53   1.082162 S    
C184  N4    1.155963 T    
O19   C15   1.281491 A    
C87   C119  1.417664 A    
C47   C87   1.419739 A    
O44   C21   1.280652 A    
C62   H46   1.083665 S    
Zn9   O24   1.937693 S    
C151  H79   1.073358 S    
Zn6   O18   1.939157 S    
Zn10  O23   1.937220 S    
C43   C83   1.418801 A    
C179  C180  1.376308 A    
C129  C141  1.388134 A    
C62   C70   1.393197 A    
C172  C176  1.439350 A    
C138  C146  1.393626 A    
C107  C115  1.419803 A    
Zn15  O36   1.939686 S    
C3    C89   1.455453 S    
O15   C11   1.281787 A    
O42   C22   1.281616 A    
C74   C90   1.417335 A    
Zn4   O1    1.947862 S    
C30   C32   1.546171 S    
C5    C95   1.452856 S    
C33   C34   1.546037 S    
C49   C61   1.392808 A    
C35   C36   1.546023 S    
O12   C8    1.279782 A    
Zn11  O39   1.944229 S    
C90   C98   1.414908 A    
C63   H47   1.083927 S    
C132  C144  1.388293 A    
C154  C161  1.422519 A    
C135  C139  1.386801 A    
C46   C86   1.417871 A    
C67   H51   1.081157 S    
C42   H34   1.083388 S    
Zn5   O3    1.951688 S    
C54   C190  1.438912 S    
C31   H7    1.113571 S    
C163  C167  1.411438 A    
C164  C168  1.410963 A    
C125  C133  1.392642 A    
C42   C50   1.397041 A    
C124  C132  1.393063 A    
C26   H10   1.113202 S    
C161  C162  1.399781 A    
C153  H85   1.082194 S    
C155  C159  1.392118 A    
H22   C36   1.113061 S    
O28   C5    1.276057 A    
C22   C38   1.490146 S    
Zn3   O42   1.945644 S    
C165  C169  1.429100 A    
Zn7   O4    1.947864 S    
O21   C4    1.276990 A    
C121  C129  1.392698 A    
C140  C148  1.392629 A    
C48   C56   1.392881 A    
H82   C177  1.085094 S    
C109  C149  1.417762 A    
C149  H77   1.077929 S    
C182  N2    1.157706 T    
Zn2   O2    1.951687 S    
C177  C178  1.376870 A    
Zn14  O2    1.954257 S    
C121  H57   1.081550 S    
C32   C39   1.551405 S    
C41   C49   1.396155 A    
Zn13  O49   1.945735 S    
C157  C158  1.387152 A    
C28   H12   1.113144 S    
C53   C189  1.440864 S    
C100  C112  1.412593 A    
C85   C117  1.415664 A    
C98   C122  1.416701 A    
C91   C99   1.412578 A    
Zn12  O27   1.937220 S    
C68   H52   1.073265 S    
C75   C91   1.415299 A    
C153  C157  1.392114 A    
C76   C92   1.419741 A    
C65   C73   1.417507 A    
C147  H75   1.073277 S    
C148  H76   1.081057 S    
Zn3   O2    1.947864 S    
C51   C187  1.437783 S    
C17   C166  1.435897 S    
C145  H73   1.070592 S    
C46   C54   1.395371 A    
O47   C24   1.277233 A    
C135  H67   1.082710 S    
Zn16  O52   1.944271 S    
C104  C128  1.419052 A    
C52   C188  1.440798 S    
C50   C186  1.440188 S    
H30   C142  1.082353 S    
Zn8   O45   1.945646 S    
C45   C53   1.396419 A    
C128  H64   1.080803 S    
O27   C6    1.274731 A    
C11   C115  1.460668 S    
C108  C116  1.415567 A    
O39   C19   1.274563 A    
C66   H50   1.070795 S    
C174  C182  1.444169 S    
C36   C40   1.550955 S    
C29   C31   1.535467 S    
C160  H92   1.082179 S    
C79   C83   1.412484 A    
C6    C96   1.459525 S    
O24   C1    1.275967 A    
C100  C124  1.418960 A    
C134  H66   1.082578 S    
C103  C107  1.411185 A    
C136  C140  1.388168 A    
O46   C24   1.281630 A    
H81   C178  1.084908 S    
O43   C22   1.277387 A    
Zn4   O41   1.945646 S    
C26   C28   1.546320 S    
Zn5   O12   1.939113 S    
Zn6   O11   1.939324 S    
C14   C118  1.451157 S    
Zn9   O21   1.937755 S    
Zn14  O50   1.944271 S    
C78   C82   1.412003 A    
O35   C14   1.274351 A    
C52   C64   1.389563 A    
C136  H68   1.082737 S    
C7    C93   1.452362 S    
Zn9   O1    1.954560 S    
C77   C93   1.414810 A    
C51   C63   1.390101 A    
O52   C20   1.272641 A    
C122  H58   1.081864 S    
C29   H13   1.113668 S    
C70   H54   1.077155 S    
C158  H90   1.082426 S    
C173  C181  1.445560 S    
O22   C3    1.278484 A    
C144  C152  1.392689 A    
Zn7   O19   1.941023 S    
Zn13  O32   1.939686 S    
O49   C17   1.272987 A    
Zn14  O31   1.938006 S    
C127  C135  1.391921 A    
C191  N11   1.157140 T    
O51   C19   1.272106 A    
C110  C118  1.414262 A    
H28   C140  1.082730 S    
C27   H11   1.113639 S    
C74   C86   1.408933 A    
C55   C191  1.440204 S    
Zn4   O5    1.940979 S    
H23   C36   1.113151 S    
O20   C16   1.277583 A    
C169  C173  1.441950 A    
C73   C89   1.415358 A    
O10   C6    1.281984 A    
O23   C2    1.274964 A    
C110  C150  1.416755 A    
Zn11  O25   1.937755 S    
C99   C111  1.411017 A    
Zn10  O38   1.945692 S    
C155  H87   1.082166 S    
C128  C136  1.392960 A    
C97   C109  1.412303 A    
O14   C10   1.278421 A    
Zn9   O37   1.944229 S    
C102  C106  1.413656 A    
C82   C114  1.412749 A    
C181  N1    1.157921 T    
C155  C164  1.422469 A    
H18   C34   1.113070 S    
C111  C151  1.416875 A    
C183  N3    1.157878 T    
O17   C13   1.275980 A    
O45   C23   1.278131 A    
