data_mof_unit_21302.cif
_audit_creation_date              2013-03-05T16:47:54-0500
_audit_creation_method            fapswitch 2.2
_symmetry_space_group_name_H-M    P1
_symmetry_Int_Tables_number       1
_space_group_crystal_system       triclinic
_cell_length_a                    8.110074
_cell_length_b                    8.930831
_cell_length_c                    16.693427
_cell_angle_alpha                 89.96983
_cell_angle_beta                  82.122594
_cell_angle_gamma                 90.158521
_cell_volume                      1197.68526249

loop_
_atom_site_label
_atom_site_type_symbol
_atom_site_description
_atom_site_fract_x
_atom_site_fract_y
_atom_site_fract_z
_atom_type_partial_charge
O1    O     O_R   0.363150 0.714660 0.500000 -0.609031
O2    O     O_R   0.636850 0.285340 0.500000 -0.607200
O3    O     O_R   0.636850 0.714660 0.500000 -0.610101
O4    O     O_R   0.363150 0.285340 0.500000 -0.597634
H1    H     H_    0.333683 0.163507 0.864858 0.186455
H2    H     H_    0.742207 0.200237 0.128590 0.170703
C1    C     C_R   0.500157 0.782018 0.499958 0.994336
C2    C     C_R   0.499888 0.217985 0.499904 0.915766
O5    O     O_R   0.346950 0.500000 0.615800 -0.584395
O6    O     O_R   0.653050 0.500000 0.384200 -0.590668
O7    O     O_R   0.620700 0.500000 0.615800 -0.597570
O8    O     O_R   0.379300 0.500000 0.384200 -0.588781
C3    C     C_R   0.472324 0.493969 0.653744 0.943391
C4    C     C_R   0.527870 0.494481 0.346170 0.930715
Zn1   Zn    Zn3+2 0.317220 0.500000 0.500010 1.093912
Zn2   Zn    Zn3+2 0.682780 0.500000 0.499990 1.087976
H3    H     H_    0.445666 0.578343 0.080943 0.179065
H4    H     H_    0.552342 0.583653 0.917747 0.173511
N1    N     N_1   0.926360 0.500000 0.499990 0.016081
N2    N     N_1   0.073640 0.500000 0.500010 0.015778
C5    C     C_R   0.444930 0.460254 0.739651 -0.218012
C6    C     C_R   0.557928 0.463529 0.259908 -0.229617
C7    C     C_R   0.508307 0.557380 0.794768 0.301906
C8    C     C_R   0.483528 0.553129 0.205153 0.310174
C9    C     C_R   0.506289 0.509649 0.874365 -0.183263
C10   C     C_R   0.502270 0.511417 0.123949 -0.183779
C11   C     C_R   0.449584 0.365921 0.898504 0.070825
C12   C     C_R   0.594401 0.384306 0.097191 0.068694
C13   C     C_R   0.380768 0.273089 0.844983 -0.060140
C14   C     C_R   0.671749 0.298604 0.150437 -0.044816
C15   C     C_R   0.373948 0.319759 0.765950 -0.097750
C16   C     C_R   0.654507 0.336345 0.231899 -0.073410
C17   C     C_2   0.461955 0.314753 0.981197 -0.131852
C18   C     C_2   0.605218 0.340053 0.012384 -0.155265
C19   C     C_1   0.500239 0.934823 0.499914 -0.116306
C20   C     C_1   0.499833 0.065206 0.499896 -0.119132
N3    N     N_R   0.575759 0.702993 0.771138 0.220733
O9    O     O_R   0.679972 0.768031 0.812807 -0.332417
O10   O     O_R   0.523598 0.777045 0.712394 -0.374042
N4    N     N_R   0.391285 0.686559 0.230459 0.222616
O11   O     O_R   0.273732 0.732801 0.190740 -0.338370
O12   O     O_R   0.436734 0.771964 0.286726 -0.365462
C21   C     C_2   0.730222 0.233554 0.286000 0.905013
O13   O     O_2   0.842675 0.276993 0.322091 -0.578400
O14   O     O_R   0.678381 0.084115 0.292006 -0.751022
H5    H     H_    0.740333 0.023734 0.329749 0.354911
C22   C     C_2   0.298885 0.214562 0.712430 0.895400
O15   O     O_2   0.191914 0.257418 0.672899 -0.583733
O16   O     O_R   0.343709 0.063546 0.711185 -0.736198
H6    H     H_    0.282126 0.001937 0.673703 0.360745
C23   C     C_2   0.769536 0.355101 0.960656 0.977372
O17   O     O_2   0.878605 0.433062 0.983096 -0.551192
O18   O     O_R   0.799807 0.279293 0.886812 -0.750303
H7    H     H_    0.915899 0.298564 0.857489 0.365870
C24   C     C_2   0.308145 0.259454 0.032435 0.959646
O19   O     O_2   0.171865 0.278994 0.010759 -0.582597
O20   O     O_R   0.319425 0.181939 0.104330 -0.750692
H8    H     H_    0.206611 0.150248 0.133287 0.371555

loop_
_geom_bond_atom_site_label_1
_geom_bond_atom_site_label_2
_geom_bond_distance
_ccdc_geom_bond_type
C17   C24   1.495061 S    
C21   O13   1.222341 D    
N3    O9    1.301695 A    
O1    Zn1   1.951929 S    
C7    N3    1.443049 S    
C11   C13   1.389960 A    
O2    Zn2   1.951930 S    
O7    Zn2   1.929819 S    
N1    N2    1.194498 T    
C10   C12   1.400085 A    
C19   C20   1.164449 T    
O8    Zn1   1.929819 S    
O4    C2    1.262869 A    
C4    C6    1.453980 S    
O4    Zn1   1.953953 S    
C12   C14   1.387153 A    
C17   C18   1.355190 D    
C18   C23   1.490998 S    
C3    C5    1.452062 S    
C22   O16   1.397225 S    
C13   C15   1.391748 A    
C15   C22   1.482667 S    
O18   H7    1.014080 S    
C11   C17   1.470377 S    
C14   C16   1.389626 A    
C21   O14   1.397576 S    
O20   H8    1.013935 S    
H4    C9    1.083533 S    
C6    C16   1.423866 A    
Zn2   N1    1.975452 S    
H3    C10   1.083876 S    
N4    O12   1.301536 A    
N4    O11   1.301625 A    
C8    N4    1.441162 S    
C16   C21   1.479765 S    
C8    C10   1.394212 A    
O3    C1    1.262835 A    
H1    C13   1.084682 S    
C24   O20   1.399149 S    
C5    C7    1.411081 A    
O6    C4    1.269856 A    
Zn1   N2    1.975452 S    
C6    C8    1.411727 A    
C24   O19   1.222114 D    
C9    C11   1.402466 A    
C12   C18   1.461122 S    
C23   O17   1.222801 D    
O7    C3    1.281723 A    
C7    C9    1.393182 A    
C5    C15   1.422909 A    
N3    O10   1.300984 A    
O16   H6    1.013994 S    
C2    C20   1.364442 S    
O5    C3    1.270740 A    
O6    Zn2   1.980432 S    
O1    C1    1.261983 A    
O14   H5    1.013976 S    
C1    C19   1.364667 S    
H2    C14   1.085027 S    
O2    C2    1.261919 A    
O3    Zn2   1.953952 S    
C22   O15   1.221925 D    
O5    Zn1   1.980432 S    
O8    C4    1.283732 A    
C23   O18   1.398944 S    
