data_mof_unit_13630.cif
_audit_creation_date              2012-10-26T18:47:53-0400
_audit_creation_method            fapswitch 2.2
_symmetry_space_group_name_H-M    P1
_symmetry_Int_Tables_number       1
_space_group_crystal_system       triclinic
_cell_length_a                    15.846771
_cell_length_b                    8.707377
_cell_length_c                    7.558162
_cell_angle_alpha                 103.436216
_cell_angle_beta                  95.080336
_cell_angle_gamma                 94.360027
_cell_volume                      1005.33883393

loop_
_atom_site_label
_atom_site_type_symbol
_atom_type_description
_atom_site_fract_x
_atom_site_fract_y
_atom_site_fract_z
_atom_type_partial_charge
C1    C     C_R   0.497300 0.199812 0.452927 0.528909
C2    C     C_2   0.503683 0.968710 0.572696 -0.115939
C3    C     C_R   0.340452 0.497201 0.500245 0.538888
C4    C     C_R   0.502408 0.800165 0.547142 0.568420
C5    C     C_R   0.659475 0.502413 0.499704 0.575457
C6    C     C_3   0.051518 0.417852 0.641609 -0.194490
C7    C     C_3   0.037479 0.408038 0.304702 -0.183022
C8    C     C_3   0.938016 0.401404 0.303379 0.416620
C9    C     C_1   0.749071 0.505861 0.498860 0.093542
C10   C     C_3   0.082869 0.500490 0.494438 -0.101545
C11   C     C_3   0.954612 0.431871 0.657534 0.431062
C12   C     C_3   0.916543 0.500641 0.495695 0.022999
C13   C     C_3   0.959708 0.674204 0.527338 -0.258323
C14   C     C_3   0.058409 0.675077 0.540835 0.125614
C15   C     C_1   0.824555 0.506027 0.497753 0.080339
C16   C     C_1   0.175057 0.495752 0.497896 0.001135
C17   C     C_1   0.250731 0.494913 0.500405 0.048604
C18   C     C_2   0.495985 0.031266 0.427412 -0.105484
Cu1   Cu    Cu3+1 0.509300 0.517380 0.684380 1.113634
Cu2   Cu    Cu3+1 0.490700 0.482620 0.315620 1.105021
H1    H     H_    0.089792 0.468794 0.776254 0.127534
H2    H     H_    0.941657 0.751245 0.654743 0.166369
H3    H     H_    0.856918 0.292660 0.688562 0.368584
H4    H     H_    0.987388 0.620939 0.863847 0.329573
H5    H     H_    0.717329 0.792048 0.969439 0.373392
H6    H     H_    0.842055 0.160261 0.958485 0.381213
H7    H     H_    0.935889 0.565592 0.162039 0.365627
H8    H     H_    0.120062 0.056983 0.442756 0.361273
H9    H     H_    0.935231 0.731704 0.419427 0.210133
H10   H     H_    0.488655 0.958376 0.288054 0.165410
H11   H     H_    0.511004 0.041606 0.712053 0.145985
H12   H     H_    0.424376 0.394091 0.955103 0.199053
H13   H     H_    0.063470 0.291036 0.604688 0.201219
H14   H     H_    0.059399 0.463019 0.195981 0.182810
H15   H     H_    0.058778 0.286850 0.271423 0.161750
H16   H     H_    0.084141 0.730011 0.685522 0.150080
N1    N     N_2   0.476670 0.456430 0.038530 -0.235003
N2    N     N_2   0.523330 0.543570 0.961470 0.028520
O1    O     O_R   0.506050 0.286130 0.619770 -0.528701
O2    O     O_3   0.941885 0.531507 0.827613 -0.658814
O3    O     O_2   0.626105 0.743316 0.244856 -0.268316
O4    O     O_2   0.686119 0.517641 0.054621 -0.239847
O5    O     O_3   0.656165 0.760620 0.926686 -0.482459
O6    O     O_2   0.944259 0.093833 0.336780 -0.191712
O7    O     O_2   0.802656 0.179647 0.287314 -0.264883
O8    O     O_3   0.893532 0.124869 0.015076 -0.445104
O9    O     O_3   0.901829 0.466230 0.163236 -0.618585
O10   O     O_2   0.199311 0.796806 0.415084 -0.289056
O11   O     O_2   0.065434 0.760696 0.215030 -0.298458
O12   O     O_R   0.490330 0.256780 0.308370 -0.505021
O13   O     O_3   0.086844 0.990513 0.507421 -0.472982
O14   O     O_R   0.387300 0.514690 0.655770 -0.537276
O15   O     O_R   0.371580 0.485340 0.344370 -0.507278
O16   O     O_R   0.509670 0.743220 0.691630 -0.463686
O17   O     O_R   0.493950 0.713870 0.380230 -0.466883
O18   O     O_R   0.628420 0.514660 0.655630 -0.450443
O19   O     O_R   0.612700 0.485310 0.344230 -0.420032
O20   O     O_3   0.914722 0.280105 0.649654 -0.563570
S1    S     S_3+6 0.623530 0.639331 0.056244 0.186082
S2    S     S_3+6 0.892905 0.195149 0.241943 0.106066
S3    S     S_3+6 0.104711 0.803738 0.410504 0.005992

loop_
_geom_bond_atom_site_label_1
_geom_bond_atom_site_label_2
_ccdc_geom_bond_type
O4    S1    D    
C6    C10   S    
C7    C10   S    
C2    C4    S    
C3    O14   A    
C6    H13   S    
O7    S2    D    
C5    C9    S    
N1    N2    D    
C18   H10   S    
Cu1   N2    S    
C5    O19   A    
C2    C18   D    
C11   O20   S    
C1    O12   A    
C5    O18   A    
Cu1   Cu2   S    
O13   S3    S    
C12   C15   S    
O5    S1    S    
C8    C12   S    
O8    S2    S    
H5    O5    S    
C9    C15   T    
C8    O9    S    
C7    C8    S    
C10   C16   S    
C13   C14   S    
C12   C13   S    
Cu2   N1    S    
C3    O15   A    
C1    C18   S    
Cu1   O1    S    
O6    S2    D    
Cu2   O17   S    
Cu2   O15   S    
Cu1   O16   S    
C13   H9    S    
H4    O2    S    
Cu1   O18   S    
C13   H2    S    
C3    C17   S    
H3    O20   S    
C4    O17   A    
C14   H16   S    
C11   O2    S    
H8    O13   S    
O11   S3    D    
H6    O8    S    
N2    S1    S    
C14   S3    S    
C7    H14   S    
O3    S1    D    
C10   C14   S    
H7    O9    S    
C6    C11   S    
C1    O1    A    
C2    H11   S    
Cu2   O12   S    
C4    O16   A    
Cu2   O19   S    
H12   N1    S    
C6    H1    S    
C7    H15   S    
Cu1   O14   S    
C8    S2    S    
O10   S3    D    
C11   C12   S    
C16   C17   T    
