data_mof_unit_14255.cif
_audit_creation_date              2012-12-10T17:40:51-0500
_audit_creation_method            fapswitch 2.2
_symmetry_space_group_name_H-M    P1
_symmetry_Int_Tables_number       1
_space_group_crystal_system       triclinic
_cell_length_a                    14.878255
_cell_length_b                    15.369322
_cell_length_c                    9.874037
_cell_angle_alpha                 92.085812
_cell_angle_beta                  89.188743
_cell_angle_gamma                 90.30389
_cell_volume                      2256.13505156

loop_
_atom_site_label
_atom_site_type_symbol
_atom_type_description
_atom_site_fract_x
_atom_site_fract_y
_atom_site_fract_z
_atom_type_partial_charge
Br1   Br    Br    0.777323 0.009288 0.648224 -0.567838
Br2   Br    Br    0.545333 0.232076 0.800144 -0.553442
Br3   Br    Br    0.277323 0.509295 0.648216 -0.567845
Br4   Br    Br    0.045314 0.732107 0.800058 -0.553430
C1    C     C_R   0.385106 0.874997 0.499064 0.857874
C2    C     C_R   0.697278 0.236266 0.385438 -0.203270
C3    C     C_R   0.206016 0.267846 0.383969 -0.212611
C4    C     C_R   0.197318 0.736228 0.385437 -0.203290
C5    C     C_R   0.701284 0.828477 0.492181 -0.092953
C6    C     C_R   0.668148 0.203737 0.508999 -0.092079
C7    C     C_R   0.201285 0.328479 0.492180 -0.092950
C8    C     C_R   0.168163 0.703726 0.508989 -0.092072
C9    C     C_R   0.335596 0.992876 0.143191 -0.186077
C10   C     C_R   0.835597 0.492870 0.143191 -0.186084
C11   C     C_R   0.254823 0.988348 0.074042 -0.209607
C12   C     C_R   0.376772 0.117817 0.503399 0.870209
C13   C     C_R   0.754824 0.488334 0.074042 -0.209614
C14   C     C_R   0.254923 0.989114 0.933970 -0.171166
C15   C     C_R   0.754924 0.489098 0.933970 -0.171158
C16   C     C_R   0.335813 0.994156 0.862404 -0.184974
C17   C     C_R   0.835813 0.494148 0.862405 -0.184972
C18   C     C_R   0.419027 0.996576 0.928994 0.167661
C19   C     C_R   0.919027 0.496572 0.928994 0.167657
C20   C     C_R   0.419010 0.996300 0.073793 0.179375
C21   C     C_R   0.919010 0.496296 0.073793 0.179382
C22   C     C_R   0.577433 0.003698 0.070198 -0.130140
C23   C     C_R   0.885103 0.374999 0.499063 0.857863
C24   C     C_R   0.077433 0.503701 0.070198 -0.130153
C25   C     C_R   0.611263 0.127432 0.502498 0.969616
C26   C     C_R   0.625813 0.886152 0.497674 0.923937
C27   C     C_R   0.111268 0.627429 0.502496 0.969638
C28   C     C_R   0.125813 0.386153 0.497674 0.923933
C29   C     C_R   0.577358 0.003705 0.926915 -0.075477
C30   C     C_R   0.077358 0.503709 0.926915 -0.075500
C31   C     C_R   0.321633 0.222957 0.760400 -0.114195
C32   C     C_R   0.353276 0.763277 0.735338 -0.119575
C33   C     C_R   0.821624 0.722948 0.760399 -0.114185
C34   C     C_R   0.876770 0.617815 0.503399 0.870230
C35   C     C_R   0.853299 0.263254 0.735324 -0.119551
C36   C     C_R   0.322471 0.288560 0.861812 -0.151672
C37   C     C_R   0.318717 0.742059 0.861839 -0.171059
C38   C     C_R   0.822462 0.788550 0.861814 -0.151669
C39   C     C_R   0.818759 0.242021 0.861837 -0.171012
C40   C     C_R   0.803090 0.873564 0.829865 -0.165255
C41   C     C_R   0.727149 0.226439 0.877431 -0.161538
C42   C     C_R   0.303095 0.373574 0.829861 -0.165266
C43   C     C_R   0.227108 0.726479 0.877407 -0.161550
C44   C     C_R   0.772074 0.890937 0.701134 0.257543
C45   C     C_R   0.262057 0.197798 0.391217 -0.207127
C46   C     C_R   0.671831 0.222623 0.764049 0.299108
C47   C     C_R   0.272078 0.390944 0.701130 0.257536
C48   C     C_R   0.171809 0.722648 0.764015 0.299085
C49   C     C_R   0.756437 0.821504 0.605892 0.046211
C50   C     C_R   0.709895 0.230830 0.632046 0.065834
C51   C     C_R   0.256441 0.321510 0.605890 0.046209
C52   C     C_R   0.209892 0.730836 0.632032 0.065850
C53   C     C_R   0.295823 0.240795 0.626610 0.063685
C54   C     C_R   0.296398 0.765780 0.621788 0.071597
C55   C     C_R   0.795816 0.740789 0.626610 0.063703
C56   C     C_R   0.271413 0.789367 0.381518 -0.213975
C57   C     C_R   0.796403 0.265774 0.621785 0.071550
C58   C     C_R   0.307675 0.183470 0.511149 -0.104575
C59   C     C_R   0.321090 0.804759 0.499079 -0.101228
C60   C     C_R   0.807671 0.683467 0.511148 -0.104579
C61   C     C_R   0.821077 0.304769 0.499074 -0.101216
C62   C     C_R   0.762055 0.697796 0.391216 -0.207132
C63   C     C_R   0.771373 0.289404 0.381514 -0.213943
C64   C     C_R   0.706015 0.767844 0.383969 -0.212610
H1    H     H_    0.267970 0.153581 0.303630 0.165893
H2    H     H_    0.424415 0.777456 0.727311 0.162684
H3    H     H_    0.838724 0.659151 0.791363 0.184747
H4    H     H_    0.924441 0.277433 0.727277 0.162667
H5    H     H_    0.343640 0.274239 0.963038 0.171000
H6    H     H_    0.361984 0.742919 0.949122 0.150631
H7    H     H_    0.843629 0.774227 0.963038 0.170990
H8    H     H_    0.862041 0.242870 0.949111 0.150620
H9    H     H_    0.813662 0.926015 0.904187 0.161147
H10   H     H_    0.698798 0.219206 0.978069 0.157120
H11   H     H_    0.313667 0.426025 0.904181 0.161149
H12   H     H_    0.289831 0.817906 0.286199 0.171303
H13   H     H_    0.198742 0.719259 0.978031 0.157135
H14   H     H_    0.664881 0.773338 0.295037 0.168498
H15   H     H_    0.663929 0.219295 0.291128 0.171237
H16   H     H_    0.164881 0.273337 0.295038 0.168498
H17   H     H_    0.163989 0.719236 0.291130 0.171250
H18   H     H_    0.640625 0.006721 0.123053 0.151676
H19   H     H_    0.140625 0.506727 0.123053 0.151677
H20   H     H_    0.329543 0.994488 0.250632 0.202617
H21   H     H_    0.829543 0.494487 0.250631 0.202610
H22   H     H_    0.191724 0.985470 0.129769 0.159287
H23   H     H_    0.767969 0.653581 0.303629 0.165891
H24   H     H_    0.691725 0.485453 0.129770 0.159285
H25   H     H_    0.191921 0.987158 0.880361 0.167547
H26   H     H_    0.691922 0.487138 0.880362 0.167546
H27   H     H_    0.789772 0.317961 0.286192 0.171286
H28   H     H_    0.330210 0.998929 0.755610 0.201342
H29   H     H_    0.830210 0.498924 0.755611 0.201334
H30   H     H_    0.640430 0.007057 0.871939 0.177135
H31   H     H_    0.140429 0.507063 0.871938 0.177137
H32   H     H_    0.338735 0.159161 0.791367 0.184762
N1    N     N_R   0.498810 0.000000 0.142780 -0.121305
N2    N     N_R   0.998810 0.500000 0.142780 -0.121304
N3    N     N_R   0.498740 0.000000 0.857170 -0.111025
N4    N     N_R   0.998740 0.500000 0.857170 -0.111030
O1    O     O_R   0.408390 0.908380 0.614690 -0.650927
O2    O     O_R   0.591620 0.908390 0.614640 -0.613106
O3    O     O_R   0.091620 0.591610 0.614640 -0.562587
O4    O     O_R   0.091620 0.408390 0.614640 -0.613105
O5    O     O_R   0.591610 0.091610 0.385310 -0.625600
O6    O     O_R   0.591610 0.908390 0.385310 -0.621372
O7    O     O_R   0.091610 0.591610 0.385310 -0.625617
O8    O     O_R   0.091610 0.408390 0.385310 -0.621370
O9    O     O_R   0.408390 0.091620 0.614690 -0.633954
O10   O     O_R   0.908390 0.408380 0.614690 -0.650920
O11   O     O_R   0.908390 0.591620 0.614690 -0.633945
O12   O     O_R   0.408370 0.908380 0.385360 -0.643460
O13   O     O_R   0.408370 0.091620 0.385360 -0.635918
O14   O     O_R   0.908370 0.408380 0.385360 -0.643454
O15   O     O_R   0.908370 0.591620 0.385360 -0.635918
O16   O     O_R   0.591620 0.091610 0.614640 -0.562589
Zn1   Zn    Zn3+2 0.500010 1.000000 0.653130 0.967813
Zn2   Zn    Zn3+2 0.000010 0.500000 0.653130 0.967815
Zn3   Zn    Zn3+2 0.499980 0.000000 0.346870 0.944751
Zn4   Zn    Zn3+2 0.999980 0.500000 0.346870 0.944751

loop_
_geom_bond_atom_site_label_1
_geom_bond_atom_site_label_2
_ccdc_geom_bond_type
C11   C14   A    
C62   C64   A    
O12   Zn3   S    
C12   O9    A    
C49   C55   A    
C53   C58   A    
C1    O1    A    
O15   Zn4   S    
C3    C7    A    
C55   C60   A    
C46   C50   A    
C12   C58   S    
Br4   C48   S    
C56   C59   A    
C25   O5    A    
C40   H9    S    
C15   C17   A    
O8    Zn4   S    
C32   C54   A    
C22   N1    A    
C42   H11   S    
C21   N2    A    
N4    Zn2   S    
C54   C59   A    
C36   H5    S    
C1    C59   S    
C4    H17   S    
C33   C38   A    
Br2   C46   S    
C37   H6    S    
C29   H30   S    
C61   C63   A    
C35   H4    S    
C41   H10   S    
C45   C58   A    
C47   C51   A    
C4    C8    A    
C62   H23   S    
C43   H13   S    
C3    H16   S    
C16   H28   S    
C24   C30   A    
O11   Zn2   S    
C38   H7    S    
C26   O2    A    
C63   H27   S    
C10   C13   A    
C32   C37   A    
C13   H24   S    
C38   C40   A    
N2    Zn4   S    
C32   H2    S    
C34   C60   S    
C17   C19   A    
C44   C49   A    
C35   C57   A    
C25   O16   A    
C3    C45   A    
Br3   C47   S    
O5    Zn3   S    
O14   Zn4   S    
C42   C47   A    
C30   N4    A    
C18   N3    A    
C9    C20   A    
C60   C62   A    
C36   C42   A    
C10   H21   S    
C23   C61   S    
C57   C61   A    
O6    Zn3   S    
C17   H29   S    
C22   C29   A    
C19   N4    A    
C9    C11   A    
C22   H18   S    
C24   H19   S    
C30   H31   S    
C37   C43   A    
O1    Zn1   S    
C33   C55   A    
C39   C41   A    
C8    C52   A    
C15   H26   S    
C5    C26   S    
N1    Zn3   S    
C34   O15   A    
C2    C63   A    
C16   C18   A    
C7    C28   S    
C51   C53   A    
C8    C27   S    
C18   C20   A    
C5    C49   A    
C31   H32   S    
N3    Zn1   S    
C7    C51   A    
O16   Zn1   S    
C23   O14   A    
C39   H8    S    
C56   H12   S    
C2    H15   S    
C28   O8    A    
O7    Zn4   S    
C29   N3    A    
C26   O6    A    
C27   O3    A    
O4    Zn2   S    
C2    C6    A    
C35   C39   A    
Br1   C44   S    
C43   C48   A    
C50   C57   A    
O2    Zn1   S    
C31   C53   A    
C20   N1    A    
C64   H14   S    
C33   H3    S    
C31   C36   A    
O13   Zn3   S    
C5    C64   A    
C1    O12   A    
C40   C44   A    
C12   O13   A    
C4    C56   A    
C11   H22   S    
C34   O11   A    
C6    C25   S    
C41   C46   A    
C9    H20   S    
C13   C15   A    
C52   C54   A    
C14   C16   A    
C19   C21   A    
C10   C21   A    
C6    C50   A    
O10   Zn2   S    
C23   O10   A    
C24   N2    A    
O9    Zn1   S    
C28   O4    A    
C14   H25   S    
C27   O7    A    
C45   H1    S    
O3    Zn2   S    
C48   C52   A    
