data_mof_unit_40660.cif
_audit_creation_date              2013-03-05T15:55:06-0500
_audit_creation_method            fapswitch 2.2
_symmetry_space_group_name_H-M    P1
_symmetry_Int_Tables_number       1
_space_group_crystal_system       triclinic
_cell_length_a                    13.463315
_cell_length_b                    14.006819
_cell_length_c                    30.085036
_cell_angle_alpha                 97.444718
_cell_angle_beta                  90.697609
_cell_angle_gamma                 118.783161
_cell_volume                      4912.32965591

loop_
_atom_site_label
_atom_site_type_symbol
_atom_site_description
_atom_site_fract_x
_atom_site_fract_y
_atom_site_fract_z
_atom_type_partial_charge
O1    O     O_R   0.493980 0.188910 0.559650 -0.509759
O2    O     O_R   0.678640 0.153520 0.554450 -0.523886
C1    C     C_R   0.722442 0.099359 0.568913 0.805043
O3    O     O_R   0.698130 0.004030 0.549500 -0.510754
O4    O     O_R   0.481060 0.827210 0.535360 -0.501218
C2    C     C_R   0.383236 0.786831 0.550662 0.876945
O5    O     O_R   0.309260 0.811560 0.537660 -0.534980
O6    O     O_R   0.341620 0.023400 0.546290 -0.532615
C3    C     C_R   0.397490 0.118518 0.569492 0.810544
O7    O     O_R   0.493030 0.185890 0.461780 -0.493282
O8    O     O_R   0.677760 0.150720 0.463730 -0.513200
C4    C     C_R   0.722302 0.097057 0.443119 0.870039
O9    O     O_R   0.697180 0.001010 0.451640 -0.506070
O10   O     O_R   0.480180 0.824400 0.444640 -0.503508
C5    C     C_R   0.402490 0.832248 0.421955 0.781072
O11   O     O_R   0.308310 0.808540 0.439800 -0.484302
O12   O     O_R   0.340740 0.020600 0.455570 -0.527309
C6    C     C_R   0.394150 0.116002 0.443615 0.879385
Cr1   Cr    Cr6+3 0.583430 0.162610 0.509470 1.100506
Cr2   Cr    Cr6+3 0.584210 0.916680 0.495400 1.136561
Cr3   Cr    Cr6+3 0.332380 0.920740 0.495100 1.092645
O13   O     O_3   0.500010 0.000010 0.499990 -0.410746
H1    H     H_    0.194184 0.710891 0.595524 0.210282
C7    C     C_R   0.362566 0.728134 0.590024 -0.238421
C8    C     C_R   0.448433 0.714349 0.611411 0.367688
C9    C     C_R   0.439519 0.693742 0.655929 -0.173192
C10   C     C_R   0.344601 0.681060 0.678219 -0.066230
C11   C     C_R   0.253226 0.680507 0.655299 0.490625
C12   C     C_R   0.262615 0.704200 0.611523 -0.198414
C13   C     C_R   0.258490 0.677563 0.835792 0.356102
C14   C     C_R   0.242570 0.652467 0.879690 0.304176
C15   C     C_R   0.401939 0.614502 0.876958 0.325949
C16   C     C_R   0.417300 0.640689 0.833223 0.386721
C17   C     C_R   0.341393 0.665401 0.811987 -0.214010
C18   C     C_1   0.344698 0.672405 0.764896 0.318281
C19   C     C_1   0.344998 0.675512 0.725288 0.231668
C20   C     C_R   0.307410 0.610483 0.899220 -0.352602
H2    H     H_    0.507594 0.689211 0.673475 0.217490
C21   C     C_3   0.222451 0.148253 0.720838 0.211493
C22   C     C_3   0.223104 0.068270 0.751561 0.252738
C23   C     C_1   0.292421 0.198966 0.876258 -0.049920
C24   C     C_1   0.365359 0.135079 0.613520 -0.042629
C25   C     C_3   0.301870 0.245678 0.757239 0.247661
C26   C     C_3   0.301637 0.165537 0.787954 -0.237771
C27   C     C_3   0.405986 0.248907 0.736265 0.294365
C28   C     C_3   0.327966 0.151896 0.699847 -0.200492
C29   C     C_3   0.407666 0.169054 0.766915 -0.238896
C30   C     C_3   0.327407 0.070616 0.730282 0.381684
C31   C     C_1   0.295844 0.179290 0.836493 0.222348
C32   C     C_1   0.345378 0.144049 0.652101 0.261744
H3    H     H_    0.483388 0.177964 0.786089 0.235181
C33   C     C_3   0.927871 0.264197 0.733701 0.412440
C34   C     C_3   0.842479 0.273229 0.765188 -0.250148
H4    H     H_    0.843763 0.350296 0.780581 0.227297
C35   C     C_1   0.894766 0.205071 0.878408 -0.080995
C36   C     C_1   0.776899 0.133883 0.613594 -0.046829
C37   C     C_3   0.937345 0.180785 0.759719 -0.160632
C38   C     C_3   0.848912 0.186871 0.790574 -0.094489
C39   C     C_3   0.838447 0.084620 0.727457 -0.197364
C40   C     C_3   0.831996 0.170303 0.701660 -0.109827
C41   C     C_3   0.751594 0.091914 0.758905 0.415779
C42   C     C_3   0.745273 0.176850 0.732967 0.340492
C43   C     C_1   0.867213 0.195364 0.839217 0.137369
C44   C     C_1   0.809430 0.154605 0.652835 0.209828
H5    H     H_    0.837034 0.007575 0.711936 0.239590
H6    H     H_    0.017568 0.184336 0.771689 0.212043
C45   C     C_3   0.261276 0.641091 0.258092 0.210487
C46   C     C_3   0.273042 0.719287 0.224733 0.201905
C47   C     C_1   0.314302 0.616056 0.109203 -0.016802
C48   C     C_1   0.389740 0.794109 0.375087 -0.026125
C49   C     C_3   0.336085 0.604990 0.230565 0.208396
C50   C     C_3   0.348442 0.683689 0.196916 -0.287630
C51   C     C_3   0.442505 0.697376 0.259011 0.193440
C52   C     C_3   0.367745 0.733759 0.286854 -0.279263
C53   C     C_3   0.455630 0.776846 0.225555 0.306872
C54   C     C_3   0.379531 0.813159 0.253276 0.269934
C55   C     C_1   0.334857 0.652067 0.148452 0.281472
C56   C     C_1   0.379541 0.765177 0.335328 0.281056
C57   C     C_R   0.350687 0.138972 0.402858 -0.366112
C58   C     C_R   0.415551 0.241233 0.387299 0.313481
C59   C     C_R   0.401122 0.249505 0.342037 0.274213
C60   C     C_R   0.315391 0.159075 0.313273 -0.248524
C61   C     C_R   0.238384 0.064259 0.330183 0.359679
C62   C     C_R   0.255412 0.053385 0.374968 0.240782
C63   C     C_R   0.242460 0.087407 0.147039 0.348012
C64   C     C_R   0.242284 0.103443 0.101952 0.310338
C65   C     C_R   0.412672 0.283210 0.121282 0.274898
C66   C     C_R   0.413196 0.265631 0.166046 0.343758
C67   C     C_R   0.324255 0.171304 0.179225 -0.248830
C68   C     C_1   0.316496 0.162909 0.226121 0.271879
C69   C     C_1   0.313308 0.160239 0.265741 0.275508
C70   C     C_R   0.320376 0.206453 0.089741 -0.380034
C71   C     C_R   0.788882 0.140224 0.404045 -0.371241
C72   C     C_R   0.820740 0.073255 0.374950 0.249458
C73   C     C_R   0.848902 0.096847 0.331374 0.312462
C74   C     C_R   0.849594 0.188749 0.317230 -0.244941
C75   C     C_R   0.834732 0.264096 0.347842 0.357273
C76   C     C_R   0.806640 0.241593 0.391483 0.302306
C77   C     C_R   0.861852 0.292599 0.163378 0.296144
C78   C     C_R   0.873794 0.293612 0.116838 0.162322
C79   C     C_R   0.867901 0.115255 0.109754 0.273549
C80   C     C_R   0.861844 0.116970 0.156225 0.315163
C81   C     C_R   0.862385 0.206757 0.183164 -0.235483
C82   C     C_1   0.861770 0.207808 0.231058 0.278164
C83   C     C_1   0.858892 0.202067 0.270587 0.268882
C84   C     C_R   0.889158 0.210293 0.090863 -0.348944
O14   O     O_R   0.969650 0.150960 0.933380 -0.515566
O15   O     O_R   0.187740 0.180870 0.937580 -0.527274
C85   C     C_R   0.283410 0.232711 0.922025 0.806034
O16   O     O_R   0.358510 0.327410 0.940870 -0.507737
O17   O     O_R   0.324180 0.507870 0.953930 -0.508782
C86   C     C_R   0.267799 0.550008 0.938464 0.914722
O18   O     O_R   0.170560 0.527890 0.952050 -0.505261
O19   O     O_R   0.987620 0.318470 0.945550 -0.530788
C87   C     C_R   0.944644 0.222155 0.922929 0.802484
O20   O     O_R   0.976400 0.159270 0.031530 -0.496544
O21   O     O_R   0.194000 0.188570 0.028560 -0.510542
C88   C     C_R   0.294281 0.242195 0.048694 0.903429
O22   O     O_R   0.365260 0.335720 0.039020 -0.501882
O23   O     O_R   0.330440 0.515580 0.044910 -0.518977
C89   C     C_R   0.276353 0.560068 0.064512 0.803438
O24   O     O_R   0.177310 0.536200 0.050190 -0.516353
O25   O     O_R   0.993870 0.326170 0.036530 -0.527256
C90   C     C_R   0.950601 0.231028 0.049196 0.875537
Cr4   Cr    Cr6+3 0.086810 0.177030 0.983130 1.113992
Cr5   Cr    Cr6+3 0.337180 0.419300 0.994610 1.122355
Cr6   Cr    Cr6+3 0.084840 0.422330 0.995830 1.082535
O26   O     O_3   0.169610 0.339550 0.991190 -0.388238
Cl1   Cl    Cl    0.141545 0.676278 0.909204 -0.406560
Cl2   Cl    Cl    0.103027 0.133876 0.688570 -0.506073
Cl3   Cl    Cl    0.342694 0.952333 0.712647 -0.474810
N1    N     N_R   0.506386 0.350280 0.729282 0.213510
O27   O     O_R   0.567374 0.423306 0.763726 -0.261811
O28   O     O_R   0.536064 0.368195 0.688932 -0.298859
N2    N     N_R   0.289174 0.342768 0.770491 0.170502
O29   O     O_R   0.298770 0.406605 0.741171 -0.296309
O30   O     O_R   0.265636 0.364746 0.811052 -0.383690
N3    N     N_R   0.025624 0.359240 0.720661 0.188229
O31   O     O_R   0.097316 0.437530 0.751492 -0.318757
O32   O     O_R   0.040303 0.367839 0.678430 -0.311740
Cl4   Cl    Cl    0.620075 0.175226 0.712631 -0.546816
Cl5   Cl    Cl    0.631924 0.977037 0.775708 -0.506482
Cl6   Cl    Cl    0.171443 0.720831 0.809788 -0.336593
N4    N     N_R   0.178715 0.730754 0.207067 0.240014
O33   O     O_R   0.116552 0.753141 0.234629 -0.200277
O34   O     O_R   0.153381 0.714655 0.163935 -0.287629
N5    N     N_R   0.154715 0.565290 0.274685 0.225479
O35   O     O_R   0.074975 0.484958 0.246906 -0.303211
O36   O     O_R   0.140217 0.574885 0.317349 -0.277497
Cl7   Cl    Cl    0.407401 0.951741 0.268006 -0.543210
Cl8   Cl    Cl    0.584382 0.868112 0.204298 -0.382093
N6    N     N_R   0.534446 0.682094 0.276448 0.253408
O37   O     O_R   0.591409 0.652304 0.248741 -0.193416
O38   O     O_R   0.555901 0.692066 0.319551 -0.261712
N7    N     N_R   0.310870 0.490634 0.219496 0.191913
O39   O     O_R   0.286134 0.429240 0.250944 -0.290946
O40   O     O_R   0.304860 0.447120 0.177989 -0.367510
Cl9   Cl    Cl    0.145749 0.992511 0.061193 -0.368754
Cl10  Cl    Cl    0.137715 0.963537 0.163529 -0.277058
Cl11  Cl    Cl    0.121087 0.957966 0.294892 -0.253932
Cl12  Cl    Cl    0.129273 0.658515 0.681596 -0.360676
N8    N     N_R   0.176414 0.955159 0.391644 0.191175
O41   O     O_R   0.157971 0.858912 0.372107 -0.269419
O42   O     O_R   0.120641 0.961740 0.425860 -0.283596
Cl13  Cl    Cl    0.512116 0.362446 0.423951 -0.339375
Cl14  Cl    Cl    0.525837 0.363122 0.205788 -0.259993
N9    N     N_R   0.505296 0.379765 0.108384 0.196619
O43   O     O_R   0.569666 0.369806 0.078295 -0.307847
O44   O     O_R   0.526648 0.477573 0.127096 -0.251007
N10   N     N_R   0.476806 0.348492 0.324952 0.207470
O45   O     O_R   0.436475 0.400003 0.304253 -0.258622
O46   O     O_R   0.586308 0.387473 0.330079 -0.218374
N11   N     N_R   0.865289 0.377207 0.096679 -0.074986
O47   O     O_R   0.808543 0.353718 0.057849 -0.000003
O48   O     O_R   0.808542 0.353717 0.057849 -0.000003
N12   N     N_R   0.847332 0.377486 0.190094 0.212512
O49   O     O_R   0.902994 0.479223 0.182929 -0.223100
O50   O     O_R   0.774361 0.352654 0.220409 -0.271738
Cl15  Cl    Cl    0.847586 0.385678 0.330861 -0.249939
Cl16  Cl    Cl    0.795899 0.343502 0.429414 -0.376272
N13   N     N_R   0.825875 0.982074 0.389559 0.204424
O51   O     O_R   0.765123 0.882784 0.367643 -0.231704
O52   O     O_R   0.893005 0.998678 0.424597 -0.287950
Cl17  Cl    Cl    0.855724 0.006355 0.180797 -0.297308
N14   N     N_R   0.850287 0.016321 0.081639 0.199253
O53   O     O_R   0.911146 0.970093 0.089449 -0.239471
O54   O     O_R   0.775612 0.974481 0.046915 -0.312804
Cl18  Cl    Cl    0.883950 0.010773 0.294501 -0.309917
N15   N     N_R   0.545115 0.722374 0.588983 0.141869
O55   O     O_R   0.644512 0.767422 0.611265 -0.316331
O56   O     O_R   0.530453 0.668450 0.548668 -0.302086
Cl19  Cl    Cl    0.529646 0.638217 0.803984 -0.349940
Cl20  Cl    Cl    0.503160 0.586679 0.902055 -0.401515
N16   N     N_R   0.122421 0.967989 0.759239 0.207135
O57   O     O_R   0.063684 0.891252 0.725491 -0.247058
O58   O     O_R   0.090409 0.954780 0.799626 -0.303250

loop_
_geom_bond_atom_site_label_1
_geom_bond_atom_site_label_2
_geom_bond_distance
_ccdc_geom_bond_type
C26   C31   1.456051 S    
O6    C3    1.268547 A    
C77   C81   1.412014 A    
C65   C66   1.400626 A    
C57   C62   1.420858 A    
C79   C80   1.399245 A    
C48   C56   1.196100 T    
C51   C52   1.542190 S    
C47   C55   1.195219 T    
C73   C74   1.403084 A    
C37   H6    1.110346 S    
C25   C26   1.542526 S    
C13   C17   1.399518 A    
C59   N10   1.435882 S    
O19   C87   1.272291 A    
C37   C38   1.546178 S    
N2    O29   1.300075 A    
N9    O44   1.301278 A    
O4    Cr2   1.923405 S    
C22   N16   1.456676 S    
N13   O51   1.300663 A    
C33   C34   1.539674 S    
O8    Cr1   1.929015 S    
C9    C10   1.395495 A    
O11   Cr3   2.040006 S    
C52   C54   1.551635 S    
C16   Cl19  1.771367 S    
H1    C12   1.083204 S    
C11   C12   1.391927 A    
N5    O36   1.300124 A    
C13   C14   1.402980 A    
O23   Cr5   1.925940 S    
N14   O54   1.301520 A    
N7    O40   1.300066 A    
N10   O45   1.299488 A    
C5    O11   1.289780 A    
C38   C43   1.460912 S    
O15   C85   1.267819 A    
C40   C42   1.538281 S    
C17   C18   1.432511 S    
C1    C36   1.429858 S    
O24   Cr6   2.032416 S    
N15   O56   1.301423 A    
C70   C88   1.489305 S    
C7    C12   1.408735 A    
C86   O18   1.277577 A    
C20   C86   1.495100 S    
C33   C40   1.526899 S    
C88   O22   1.270447 A    
C65   N9    1.434701 S    
C77   N12   1.441504 S    
N5    O35   1.299316 A    
C53   Cl8   1.775619 S    
C6    C57   1.488456 S    
C35   C43   1.202309 T    
C11   Cl12  1.762393 S    
Cr4   O26   1.972331 S    
C33   N3    1.455657 S    
C36   C44   1.202512 T    
C30   Cl3   1.781006 S    
C72   N13   1.434866 S    
C54   Cl7   1.782328 S    
O15   Cr4   1.929080 S    
C85   O16   1.266018 A    
C41   C42   1.538821 S    
O9    Cr2   2.040448 S    
C26   C29   1.550210 S    
C38   C41   1.535107 S    
N12   O50   1.301111 A    
N16   O57   1.300234 A    
C49   N7    1.458476 S    
C39   C40   1.546085 S    
C23   C85   1.422903 S    
Cr3   O13   1.970874 S    
C51   C53   1.545516 S    
C80   C81   1.401935 A    
C50   C53   1.546786 S    
C79   N14   1.437678 S    
C23   C31   1.198907 T    
C82   C83   1.202113 T    
C73   Cl18  1.766580 S    
C75   C76   1.403828 A    
N8    O42   1.301114 A    
C27   C29   1.546886 S    
C28   C30   1.548103 S    
C39   C41   1.545900 S    
O1    Cr1   2.047557 S    
C61   Cl11  1.767238 S    
C45   C46   1.534142 S    
C29   C30   1.557491 S    
O10   Cr2   1.912458 S    
O25   C90   1.284483 A    
Cr1   O13   1.972412 S    
O1    C3    1.264505 A    
C7    C8    1.420152 A    
O14   Cr4   2.026777 S    
N4    O34   1.300129 A    
C33   C37   1.540125 S    
N13   O52   1.301147 A    
N9    O43   1.301065 A    
C49   C51   1.535402 S    
C63   C67   1.401506 A    
N1    O27   1.300031 A    
C21   C25   1.543983 S    
C8    C9    1.400793 A    
C63   C64   1.403501 A    
C59   C60   1.403289 A    
C13   Cl6   1.771230 S    
C14   C20   1.422856 A    
C15   Cl20  1.772500 S    
C78   N11   1.436435 S    
C18   C19   1.198016 T    
O3    Cr2   2.028418 S    
C53   C54   1.554565 S    
C50   C55   1.450420 S    
C64   Cl9   1.769129 S    
C34   C42   1.550317 S    
C41   Cl5   1.781717 S    
O25   Cr6   1.920622 S    
C61   C62   1.403726 A    
C47   C89   1.417036 S    
O7    Cr1   2.026582 S    
C46   C50   1.542534 S    
C2    C7    1.481795 S    
C74   C75   1.399282 A    
O17   Cr5   1.914378 S    
O12   C6    1.279689 A    
C3    C24   1.423540 S    
N15   O55   1.301439 A    
C45   C52   1.541193 S    
C15   C20   1.425818 A    
C4    O9    1.281906 A    
C25   N2    1.456908 S    
C25   C27   1.527414 S    
O14   C87   1.268306 A    
C89   O24   1.262901 A    
N11   O48   1.301243 A    
N3    O32   1.300245 A    
C24   C32   1.199061 T    
C21   C28   1.542667 S    
N12   O49   1.301493 A    
O16   Cr5   2.044748 S    
C66   Cl14  1.769905 S    
O20   Cr4   2.045060 S    
C51   N6    1.456598 S    
C45   N5    1.456942 S    
C4    C71   1.496312 S    
C42   Cl4   1.774932 S    
C76   Cl16  1.772388 S    
Cr6   O26   1.975524 S    
N16   O58   1.300202 A    
C58   Cl13  1.772857 S    
N7    O39   1.299319 A    
C62   N8    1.434758 S    
O23   C89   1.272211 A    
C74   C83   1.438504 S    
N8    O41   1.301259 A    
N6    O38   1.299859 A    
C79   C84   1.417759 A    
N2    O30   1.300103 A    
C5    C48   1.419036 S    
C22   C30   1.538113 S    
Cr5   O26   1.971257 S    
O20   C90   1.271070 A    
O17   C86   1.278698 A    
O2    Cr1   1.910528 S    
C9    H2    1.084258 S    
Cr2   O13   1.975522 S    
C58   C59   1.400548 A    
O6    Cr3   1.924610 S    
C29   H3    1.110038 S    
C34   C38   1.546809 S    
C34   H4    1.110081 S    
C2    O5    1.273872 A    
O18   Cr6   2.037472 S    
C21   Cl2   1.779804 S    
C10   C19   1.428308 S    
C46   C54   1.543969 S    
C63   Cl10  1.768904 S    
C71   C72   1.419098 A    
C28   C32   1.456889 S    
C78   C84   1.419672 A    
C77   C78   1.412434 A    
C40   C44   1.462658 S    
C80   Cl17  1.768937 S    
C15   C16   1.402578 A    
O2    C1    1.273851 A    
C49   C50   1.544102 S    
C14   Cl1   1.771749 S    
C64   C70   1.417060 A    
O21   C88   1.280444 A    
C39   H5    1.110147 S    
O5    Cr3   2.033161 S    
O19   Cr6   1.914572 S    
C68   C69   1.198032 T    
O4    C2    1.277233 A    
C35   C87   1.429182 S    
O7    C6    1.271948 A    
C75   Cl15  1.770548 S    
C16   C17   1.398011 A    
C46   N4    1.457098 S    
C45   C49   1.535635 S    
C72   C73   1.405467 A    
O12   Cr3   1.914716 S    
C37   C39   1.559444 S    
N3    O31   1.299950 A    
C60   C69   1.432308 S    
N11   O47   1.301240 A    
C57   C58   1.418617 A    
C21   C22   1.545031 S    
O22   Cr5   2.029230 S    
C27   C28   1.536828 S    
N4    O33   1.299470 A    
C22   C26   1.539765 S    
C66   C67   1.400164 A    
C27   N1    1.457177 S    
N1    O28   1.300173 A    
C60   C61   1.399797 A    
C52   C56   1.451338 S    
C84   C90   1.492756 S    
C81   C82   1.439234 S    
O10   C5    1.297952 A    
N14   O53   1.300580 A    
C8    N15   1.436098 S    
N6    O37   1.300253 A    
N10   O46   1.301095 A    
C67   C68   1.431799 S    
C65   C70   1.421553 A    
O21   Cr4   1.909684 S    
C71   C76   1.424899 A    
C1    O3    1.266302 A    
O8    C4    1.277268 A    
C10   C11   1.399203 A    
