data_mof_unit_66116.cif
_audit_creation_date              2012-10-26T18:01:03-0400
_audit_creation_method            fapswitch 2.2
_symmetry_space_group_name_H-M    P1
_symmetry_Int_Tables_number       1
_space_group_crystal_system       triclinic
_cell_length_a                    30.166596
_cell_length_b                    30.69932
_cell_length_c                    21.51581
_cell_angle_alpha                 89.971681
_cell_angle_beta                  134.467043
_cell_angle_gamma                 90.044174
_cell_volume                      14220.0143106

loop_
_atom_site_label
_atom_site_type_symbol
_atom_type_description
_atom_site_fract_x
_atom_site_fract_y
_atom_site_fract_z
_atom_type_partial_charge
C1    C     C_R   0.309265 0.809351 0.118526 0.550230
C2    C     C_R   0.477632 0.670561 0.001676 -0.123220
C3    C     C_R   0.408389 0.159780 0.254376 -0.142458
C4    C     C_R   0.061615 0.631473 0.672121 -0.145275
C5    C     C_R   0.940759 0.627563 0.319029 -0.146607
C6    C     C_R   0.561614 0.131472 0.672123 -0.145260
C7    C     C_R   0.440783 0.127464 0.318806 -0.146588
C8    C     C_R   0.092463 0.593421 0.683682 0.027381
C9    C     C_R   0.907984 0.594041 0.316982 0.019560
C10   C     C_R   0.592463 0.093421 0.683683 0.027383
C11   C     C_R   0.407996 0.094057 0.316998 0.019425
C12   C     C_R   0.156554 0.590281 0.755568 0.016409
C13   C     C_R   0.022999 0.170549 0.999826 -0.123767
C14   C     C_R   0.843134 0.596044 0.255079 0.017109
C15   C     C_R   0.656555 0.090282 0.755566 0.016410
C16   C     C_R   0.343161 0.096184 0.255339 0.017110
C17   C     C_3   0.195397 0.554412 0.820610 -0.141903
C18   C     C_3   0.794460 0.562245 0.194657 -0.129601
C19   C     C_3   0.695399 0.054413 0.820609 -0.141904
C20   C     C_3   0.294307 0.062454 0.195061 -0.129455
C21   C     C_3   0.230156 0.589479 0.890998 -0.253809
C22   C     C_3   0.759792 0.597017 0.123610 -0.264651
C23   C     C_3   0.730158 0.089480 0.890996 -0.253812
C24   C     C_R   0.977660 0.170561 0.001731 -0.123223
C25   C     C_3   0.259634 0.097222 0.124004 -0.264826
C26   C     C_R   0.940600 0.559468 0.381185 0.543705
C27   C     C_R   0.059487 0.559296 0.618948 0.541552
C28   C     C_R   0.440603 0.059473 0.381188 0.543724
C29   C     C_R   0.559487 0.059296 0.618948 0.541576
C30   C     C_R   0.440281 0.940626 0.380654 0.579084
C31   C     C_R   0.559345 0.940597 0.618746 0.583956
C32   C     C_R   0.940281 0.440626 0.380655 0.579050
C33   C     C_R   0.059345 0.440597 0.618746 0.583952
C34   C     C_R   0.164501 0.750082 0.000215 0.541921
C35   C     C_R   0.476042 0.829244 0.998207 -0.122621
C36   C     C_R   0.835707 0.750008 0.999997 0.544679
C37   C     C_R   0.664501 0.250082 0.000215 0.541919
C38   C     C_R   0.335707 0.250008 0.999997 0.544655
C39   C     C_R   0.594199 0.789485 0.002491 -0.127518
C40   C     C_R   0.405481 0.789497 0.996701 -0.127938
C41   C     C_R   0.094188 0.289485 0.002468 -0.127515
C42   C     C_R   0.905469 0.289496 0.996677 -0.127940
C43   C     C_R   0.616045 0.749900 0.000063 -0.000986
C44   C     C_R   0.383926 0.749928 0.999854 0.000512
C45   C     C_R   0.116047 0.249899 0.000066 -0.000977
C46   C     C_R   0.523339 0.829243 0.000235 -0.122232
C47   C     C_R   0.883926 0.249928 0.999854 0.000503
C48   C     C_R   0.591725 0.710301 0.997638 -0.128198
C49   C     C_R   0.408562 0.710340 0.003029 -0.125735
C50   C     C_R   0.091740 0.210300 0.997668 -0.128216
C51   C     C_R   0.908575 0.210341 0.003055 -0.125737
C52   C     C_R   0.546094 0.709991 0.999052 0.015750
C53   C     C_R   0.454192 0.710012 0.001621 0.016008
C54   C     C_R   0.046110 0.209990 0.999081 0.015750
C55   C     C_R   0.954207 0.210011 0.001649 0.016007
C56   C     C_R   0.523306 0.749895 0.999984 0.062726
C57   C     C_R   0.976018 0.329243 0.998158 -0.122618
C58   C     C_R   0.476667 0.749902 0.999925 0.062903
C59   C     C_R   0.023308 0.249894 0.999987 0.062727
C60   C     C_R   0.976669 0.249901 0.999927 0.062903
C61   C     C_1   0.160044 0.524489 0.826149 0.190000
C62   C     C_1   0.816836 0.525918 0.177914 0.217292
C63   C     C_1   0.660048 0.024490 0.826151 0.189995
C64   C     C_1   0.316393 0.026009 0.178093 0.217505
C65   C     C_R   0.023315 0.329242 0.000187 -0.122231
C66   C     C_R   0.321634 0.856255 0.222021 -0.026776
C67   C     C_R   0.593145 0.841249 0.745951 -0.032166
C68   C     C_R   0.821629 0.356259 0.222013 -0.026846
C69   C     C_R   0.690946 0.809455 0.881246 0.551497
C70   C     C_R   0.093145 0.341251 0.745954 -0.032170
C71   C     C_R   0.341934 0.843112 0.183516 0.021992
C72   C     C_R   0.657522 0.843388 0.815778 0.025221
C73   C     C_R   0.841935 0.343111 0.183517 0.021974
C74   C     C_R   0.157522 0.343388 0.815778 0.025222
C75   C     C_R   0.388747 0.867009 0.199631 -0.128268
C76   C     C_R   0.688831 0.881004 0.826125 -0.126001
C77   C     C_R   0.888756 0.367002 0.199644 -0.128236
C78   C     C_R   0.188832 0.381004 0.826123 -0.126001
C79   C     C_R   0.420592 0.899604 0.263377 -0.112220
C80   C     C_R   0.809265 0.309351 0.118526 0.550229
C81   C     C_R   0.656815 0.913016 0.761177 -0.120142
C82   C     C_R   0.920602 0.399596 0.263392 -0.112065
C83   C     C_R   0.156816 0.413015 0.761175 -0.120146
C84   C     C_R   0.404837 0.908952 0.310048 0.021726
C85   C     C_R   0.592955 0.908239 0.687105 0.068496
C86   C     C_R   0.904839 0.408950 0.310051 0.021646
C87   C     C_R   0.092955 0.408239 0.687105 0.068494
C88   C     C_R   0.352476 0.888743 0.284224 0.077701
C89   C     C_R   0.561318 0.873279 0.682900 0.038790
C90   C     C_R   0.852472 0.388746 0.284218 0.077510
C91   C     C_R   0.190946 0.309455 0.881246 0.551491
C92   C     C_R   0.061318 0.373281 0.682904 0.038791
C93   C     C_3   0.344501 0.865779 0.337152 0.126107
C94   C     C_3   0.517308 0.840980 0.611700 0.089787
C95   C     C_3   0.844490 0.365785 0.337139 0.126145
C96   C     C_3   0.017303 0.340982 0.611705 0.089794
C97   C     C_R   0.335604 0.749950 0.999937 0.544720
C98   C     C_R   0.664392 0.749930 0.000048 0.546661
C99   C     C_R   0.835604 0.249949 0.999937 0.544724
C100  C     C_R   0.164393 0.249929 0.000049 0.546639
C101  C     C_3   0.310540 0.830033 0.268448 -0.218827
C102  C     C_R   0.547121 0.789795 0.000986 0.014932
C103  C     C_3   0.552565 0.805771 0.681561 -0.207193
C104  C     C_3   0.810527 0.330040 0.268433 -0.218798
C105  C     C_3   0.052561 0.305773 0.681565 -0.207196
C106  C     C_R   0.868069 0.744239 0.921695 -0.095031
C107  C     C_R   0.132903 0.753673 0.079338 -0.097510
C108  C     C_R   0.368069 0.244240 0.921695 -0.095030
C109  C     C_R   0.632903 0.253673 0.079338 -0.097520
C110  C     C_R   0.884083 0.750130 0.999921 -0.014538
C111  C     C_R   0.116403 0.750252 0.000457 -0.006958
C112  C     C_R   0.384083 0.250130 0.999922 -0.014543
C113  C     C_R   0.452551 0.789801 0.998184 0.015764
C114  C     C_R   0.616403 0.250252 0.000458 -0.006963
C115  C     C_R   0.946170 0.756264 0.077970 -0.125858
C116  C     C_R   0.054084 0.747168 0.921740 -0.121705
C117  C     C_R   0.446170 0.256263 0.077970 -0.125878
C118  C     C_R   0.554084 0.247169 0.921740 -0.121710
C119  C     C_R   0.992804 0.755819 0.078689 -0.024416
C120  C     C_R   0.007625 0.746500 0.921324 -0.022623
C121  C     C_R   0.492804 0.255818 0.078690 -0.024420
C122  C     C_R   0.507625 0.246501 0.921324 -0.022626
C123  C     C_R   0.976797 0.750465 0.999805 0.012893
C124  C     C_R   0.047111 0.289795 0.000963 0.014931
C125  C     C_R   0.023810 0.750557 0.000553 0.012999
C126  C     C_R   0.476798 0.250464 0.999805 0.012892
C127  C     C_R   0.523810 0.250556 0.000553 0.012997
C128  C     C_R   0.913854 0.745021 0.920303 0.032264
C129  C     C_R   0.086933 0.754708 0.080370 0.035103
C130  C     C_R   0.413854 0.245021 0.920303 0.032262
C131  C     C_R   0.586933 0.254707 0.080371 0.035101
C132  C     C_R   0.055141 0.760597 0.157196 -0.079993
C133  C     C_R   0.945329 0.741702 0.842845 -0.081855
C134  C     C_R   0.555142 0.260595 0.157197 -0.080003
C135  C     C_R   0.952540 0.289801 0.998160 0.015760
C136  C     C_R   0.445329 0.241703 0.842845 -0.081859
C137  C     C_R   0.102178 0.759843 0.158716 0.241266
C138  C     C_R   0.898538 0.740620 0.841777 0.237417
C139  C     C_R   0.602178 0.259842 0.158717 0.241261
C140  C     C_R   0.398538 0.240620 0.841777 0.237415
C141  C     C_R   0.188285 0.621904 0.819474 -0.004443
C142  C     C_R   0.811364 0.627424 0.190817 -0.007436
C143  C     C_R   0.688285 0.121905 0.819472 -0.004440
C144  C     C_R   0.311387 0.127561 0.191071 -0.007471
C145  C     C_R   0.190224 0.690608 0.881094 0.547486
C146  C     C_R   0.522971 0.670549 0.999770 -0.123753
C147  C     C_R   0.809731 0.690660 0.118803 0.549098
C148  C     C_R   0.690224 0.190608 0.881094 0.547489
C149  C     C_R   0.309728 0.190661 0.118800 0.549086
C150  C     C_R   0.157101 0.657854 0.813228 0.019430
C151  C     C_R   0.843254 0.658021 0.186511 0.024420
C152  C     C_R   0.657101 0.157854 0.813228 0.019430
C153  C     C_R   0.343259 0.158025 0.186505 0.024518
C154  C     C_R   0.094094 0.663917 0.736224 -0.142746
C155  C     C_R   0.908365 0.659884 0.254610 -0.142458
C156  C     C_R   0.594093 0.163916 0.736226 -0.142742
Cl1   Cl    Cl    0.179446 0.766018 0.260389 -0.582838
Cl2   Cl    Cl    0.821383 0.734020 0.740142 -0.580448
Cl3   Cl    Cl    0.679447 0.266016 0.260390 -0.582848
Cl4   Cl    Cl    0.321382 0.234022 0.740142 -0.580460
Cl5   Cl    Cl    0.294998 0.895477 0.339767 -0.527586
Cl6   Cl    Cl    0.525081 0.836050 0.536811 -0.610192
Cl7   Cl    Cl    0.794987 0.395487 0.339748 -0.527646
Cl8   Cl    Cl    0.025068 0.336051 0.536807 -0.610195
Cu1   Cu    Cu3+1 0.280880 0.719080 0.061820 0.972827
Cu2   Cu    Cu3+1 0.455570 0.999980 0.500010 1.050106
Cu3   Cu    Cu3+1 0.044430 0.499980 0.499990 0.990158
Cu4   Cu    Cu3+1 0.955570 0.499980 0.500010 1.050126
Cu5   Cu    Cu3+1 0.719120 0.719080 0.938180 0.972507
Cu6   Cu    Cu3+1 0.780880 0.219080 0.061820 0.972821
Cu7   Cu    Cu3+1 0.219120 0.219080 0.938180 0.972557
Cu8   Cu    Cu3+1 0.219090 0.780890 0.938220 0.969187
Cu9   Cu    Cu3+1 0.780910 0.780890 0.061780 0.961407
Cu10  Cu    Cu3+1 0.719090 0.280890 0.938220 0.969171
Cu11  Cu    Cu3+1 0.280910 0.280890 0.061780 0.961443
Cu12  Cu    Cu3+1 0.544430 0.999980 0.499990 0.990056
H1    H     H_    0.613008 0.819965 0.003707 0.124579
H2    H     H_    0.181617 0.756352 0.139126 0.169703
H3    H     H_    0.319617 0.239932 0.862128 0.190601
H4    H     H_    0.681617 0.256351 0.139126 0.169704
H5    H     H_    0.958199 0.760510 0.138366 0.125503
H6    H     H_    0.042039 0.744323 0.861114 0.118618
H7    H     H_    0.458200 0.260508 0.138366 0.125496
H8    H     H_    0.542039 0.244324 0.861114 0.118618
H9    H     H_    0.067433 0.764734 0.217771 0.153497
H10   H     H_    0.932937 0.738501 0.782051 0.152119
H11   H     H_    0.567433 0.264732 0.217771 0.153496
H12   H     H_    0.386466 0.819975 0.994962 0.120083
H13   H     H_    0.432937 0.238502 0.782051 0.152117
H14   H     H_    0.069417 0.692662 0.727532 0.133022
H15   H     H_    0.934098 0.685037 0.255659 0.126953
H16   H     H_    0.569415 0.192660 0.727536 0.133020
H17   H     H_    0.434122 0.184841 0.255233 0.126812
H18   H     H_    0.012530 0.635701 0.614623 0.130852
H19   H     H_    0.991059 0.628283 0.369110 0.136537
H20   H     H_    0.512528 0.135699 0.614627 0.130855
H21   H     H_    0.491087 0.128095 0.368701 0.136678
H22   H     H_    0.224257 0.537593 0.813503 0.117512
H23   H     H_    0.112987 0.319965 0.003663 0.124574
H24   H     H_    0.769791 0.551574 0.213187 0.140130
H25   H     H_    0.724258 0.037594 0.813500 0.117515
H26   H     H_    0.269762 0.051915 0.213849 0.140117
H27   H     H_    0.223774 0.588227 0.936049 0.162681
H28   H     H_    0.756888 0.590933 0.069836 0.161545
H29   H     H_    0.723778 0.088228 0.936049 0.162679
H30   H     H_    0.256512 0.091047 0.070051 0.161497
H31   H     H_    0.609316 0.679824 0.996490 0.116087
H32   H     H_    0.391227 0.679871 0.004783 0.118045
H33   H     H_    0.109342 0.179823 0.996539 0.116041
H34   H     H_    0.886445 0.319974 0.994919 0.120106
H35   H     H_    0.891250 0.179871 0.004828 0.118054
H36   H     H_    0.279133 0.593407 0.923730 0.127136
H37   H     H_    0.715227 0.606819 0.101846 0.125988
H38   H     H_    0.779134 0.093410 0.923724 0.127137
H39   H     H_    0.215194 0.107155 0.102496 0.125916
H40   H     H_    0.540202 0.639708 0.999342 0.117103
H41   H     H_    0.460651 0.639727 0.002715 0.117073
H42   H     H_    0.040241 0.139707 0.999418 0.117095
H43   H     H_    0.960688 0.139727 0.002789 0.117074
H44   H     H_    0.458070 0.860083 0.997146 0.120590
H45   H     H_    0.260246 0.827393 0.230180 0.200747
H46   H     H_    0.541085 0.860081 0.000732 0.122380
H47   H     H_    0.958036 0.360082 0.997077 0.120608
H48   H     H_    0.041052 0.360080 0.000664 0.122387
H49   H     H_    0.402242 0.859282 0.165643 0.118158
H50   H     H_    0.738346 0.884609 0.882120 0.134111
H51   H     H_    0.902256 0.359271 0.165664 0.118177
H52   H     H_    0.238347 0.384608 0.882117 0.134111
H53   H     H_    0.458475 0.916426 0.277746 0.150843
H54   H     H_    0.681894 0.940985 0.768063 0.122883
H55   H     H_    0.958491 0.416414 0.277769 0.150955
H56   H     H_    0.578242 0.782508 0.676642 0.203143
H57   H     H_    0.181894 0.440984 0.768060 0.122881
H58   H     H_    0.389067 0.855152 0.402057 0.168224
H59   H     H_    0.468756 0.845513 0.580340 0.146325
H60   H     H_    0.889053 0.355155 0.402045 0.168252
H61   H     H_    0.968754 0.345518 0.580351 0.146329
H62   H     H_    0.336002 0.798528 0.293037 0.144906
H63   H     H_    0.524487 0.790363 0.691367 0.119743
H64   H     H_    0.835985 0.298533 0.293022 0.144914
H65   H     H_    0.024486 0.290367 0.691376 0.119744
H66   H     H_    0.760231 0.327404 0.230159 0.200732
H67   H     H_    0.078235 0.282509 0.676641 0.203142
H68   H     H_    0.819617 0.739931 0.862128 0.190600
N1    N     N_1   0.132218 0.501030 0.830436 -0.283927
N2    N     N_1   0.834426 0.497383 0.164805 -0.288101
N3    N     N_1   0.632223 0.001031 0.830440 -0.283933
N4    N     N_1   0.333755 0.997380 0.164807 -0.287964
O1    O     O_R   0.321150 0.768980 0.142380 -0.503471
O2    O     O_R   0.507570 0.954900 0.590190 -0.499712
O3    O     O_R   0.992430 0.454900 0.409810 -0.504526
O4    O     O_R   0.007570 0.454900 0.590190 -0.499707
O5    O     O_R   0.417320 0.954950 0.409780 -0.470797
O6    O     O_R   0.582680 0.954950 0.590220 -0.497601
O7    O     O_R   0.917320 0.454950 0.409780 -0.470845
O8    O     O_R   0.082680 0.454950 0.590220 -0.497613
O9    O     O_R   0.268980 0.821170 0.038000 -0.501337
O10   O     O_R   0.731020 0.821170 0.962000 -0.511159
O11   O     O_R   0.768980 0.321170 0.038000 -0.501349
O12   O     O_R   0.678850 0.768980 0.857620 -0.506437
O13   O     O_R   0.231020 0.321170 0.962000 -0.511160
O14   O     O_R   0.340930 0.723870 0.052190 -0.506728
O15   O     O_R   0.659070 0.723870 0.947810 -0.511015
O16   O     O_R   0.840930 0.223870 0.052190 -0.506733
O17   O     O_R   0.159070 0.223870 0.947810 -0.511011
O18   O     O_R   0.288760 0.776060 0.947810 -0.508094
O19   O     O_R   0.711240 0.776060 0.052190 -0.505082
O20   O     O_R   0.788760 0.276060 0.947810 -0.508090
O21   O     O_R   0.211240 0.276060 0.052190 -0.505089
O22   O     O_R   0.230990 0.678800 0.962040 -0.513095
O23   O     O_R   0.821150 0.268980 0.142380 -0.503465
O24   O     O_R   0.769010 0.678800 0.037960 -0.511194
O25   O     O_R   0.730990 0.178800 0.962040 -0.513096
O26   O     O_R   0.269010 0.178800 0.037960 -0.511173
O27   O     O_R   0.178820 0.731000 0.857660 -0.512011
O28   O     O_R   0.821180 0.731000 0.142340 -0.509073
O29   O     O_R   0.678820 0.231000 0.857660 -0.512006
O30   O     O_R   0.321180 0.231000 0.142340 -0.509024
O31   O     O_R   0.211210 0.723910 0.052230 -0.504281
O32   O     O_R   0.788790 0.723910 0.947770 -0.500504
O33   O     O_R   0.711210 0.223910 0.052230 -0.504279
O34   O     O_R   0.178850 0.268980 0.857620 -0.506437
O35   O     O_R   0.288790 0.223910 0.947770 -0.500506
O36   O     O_R   0.159040 0.776100 0.947850 -0.505451
O37   O     O_R   0.840960 0.776100 0.052150 -0.511263
O38   O     O_R   0.659040 0.276100 0.947850 -0.505460
O39   O     O_R   0.340960 0.276100 0.052150 -0.511261
O40   O     O_R   0.992480 0.545070 0.409820 -0.515082
O41   O     O_R   0.007520 0.545070 0.590180 -0.505673
O42   O     O_R   0.492480 0.045070 0.409820 -0.515187
O43   O     O_R   0.507520 0.045070 0.590180 -0.505682
O44   O     O_R   0.917370 0.545120 0.409780 -0.509703
O45   O     O_R   0.082630 0.545120 0.590220 -0.520445
O46   O     O_R   0.417370 0.045120 0.409780 -0.509708
O47   O     O_R   0.582630 0.045120 0.590220 -0.520428
O48   O     O_R   0.492430 0.954900 0.409810 -0.504573

loop_
_geom_bond_atom_site_label_1
_geom_bond_atom_site_label_2
_ccdc_geom_bond_type
Cu3   O45   S    
C82   H55   S    
C126  C127  A    
C34   O36   A    
C96   H61   S    
C83   C87   A    
C107  C129  A    
C130  C140  A    
C6    H20   S    
C90   C95   S    
C4    H18   S    
C26   O44   A    
C16   C144  A    
Cu6   Cu10  S    
C148  O29   A    
C91   O34   A    
C120  C133  A    
C89   C94   S    
C149  C153  S    
Cu8   O18   S    
C17   C61   S    
C152  C156  A    
C50   H33   S    
C19   C63   S    
C70   C74   A    
C58   C113  A    
C68   C90   A    
C151  C155  A    
Cu11  O21   S    
C136  C140  A    
C139  Cl3   S    
C59   C60   A    
C23   C143  S    
C105  H65   S    
C9    C26   S    
C100  O21   A    
Cu1   O22   S    
Cu6   O33   S    
C86   C90   A    
C93   C101  S    
C120  C125  A    
C37   C114  S    
C132  C137  A    
C5    C155  A    
C2    C53   A    
C17   C21   S    
C142  C151  A    
C7    H21   S    
C19   C23   S    
C147  O24   A    
C95   Cl7   S    
Cu3   O40   S    
C75   H49   S    
C16   C20   S    
C32   C86   S    
C30   O5    A    
Cu11  O39   S    
C122  C136  A    
C38   O35   A    
C69   O12   A    
Cu4   O44   S    
C25   H30   S    
Cu8   O27   S    
C96   C105  S    
C13   C54   A    
C57   H47   S    
C59   C124  A    
C104  H64   S    
C52   C146  A    
C31   O6    A    
C145  O27   A    
C84   C88   A    
C70   C105  S    
C53   C58   A    
C119  C123  A    
C93   H58   S    
C63   N3    T    
C46   H46   S    
C149  O26   A    
C45   C50   A    
C49   C53   A    
C32   O7    A    
Cu7   O17   S    
C51   C55   A    
C19   H25   S    
C127  C131  A    
C123  C125  A    
C96   Cl8   S    
C48   C52   A    
C129  C137  A    
C13   C24   A    
C73   C77   A    
C57   C135  A    
Cu8   O9    S    
C75   C79   A    
C105  H67   S    
C65   H48   S    
C14   C142  A    
C31   C85   S    
C69   C72   S    
C21   H27   S    
Cu11  O30   S    
C28   O46   A    
C67   C103  S    
C3    H17   S    
C77   C82   A    
C66   C88   A    
C79   C84   A    
C1    O1    A    
Cu10  O38   S    
Cu5   O15   S    
C47   C99   S    
C12   C141  A    
Cu6   O16   S    
C67   C72   A    
C118  C122  A    
C65   C124  A    
C122  C127  A    
C128  C138  A    
C79   H53   S    
C83   H57   S    
C116  H6    S    
C35   C113  A    
C13   H42   S    
C108  C130  A    
C145  C150  S    
C91   O13   A    
C23   H29   S    
C66   C101  S    
Cu12  O47   S    
C27   O45   A    
C141  C150  A    
C54   C59   A    
C92   C96   S    
C99   O20   A    
C25   H39   S    
C134  C139  A    
C18   C62   S    
C116  C120  A    
C108  H3    S    
C145  O22   A    
C33   O4    A    
C147  C151  S    
C5    C9    A    
C125  C129  A    
C138  Cl2   S    
C40   C113  A    
C64   N4    T    
C49   H32   S    
C8    C12   A    
C22   C142  S    
C80   O11   A    
C109  C114  A    
C15   C143  A    
Cu2   O43   S    
C115  C119  A    
C36   C110  S    
C25   C144  S    
C95   H60   S    
C38   C112  S    
C37   O33   A    
C39   C102  A    
C41   C45   A    
C18   C22   S    
C107  C111  A    
C148  C152  S    
C106  H68   S    
C132  H9    S    
C40   H12   S    
C21   H36   S    
C22   H28   S    
C136  H13   S    
C33   C87   S    
C56   C102  A    
C140  Cl4   S    
C18   H24   S    
C109  H4    S    
C56   C58   A    
C131  C139  A    
Cu4   O41   S    
Cu10  O29   S    
Cu5   O24   S    
C22   H37   S    
Cu6   O23   S    
Cu5   Cu9   S    
Cu1   O14   S    
C55   C60   A    
Cu6   O25   S    
C81   C85   A    
C4    C154  A    
C34   O31   A    
C41   H23   S    
C29   O47   A    
C30   O48   A    
C15   C19   S    
C32   O3    A    
C50   C54   A    
C41   C124  A    
C3    C7    A    
C112  C117  A    
C94   H59   S    
C62   N2    T    
C20   C25   S    
C126  C130  A    
C106  C128  A    
Cu2   O5    S    
C36   O32   A    
C78   C83   A    
C12   C17   S    
C109  C131  A    
Cu5   O12   S    
C111  C116  A    
C121  C134  A    
Cu7   O34   S    
C42   H34   S    
C4    C8    A    
C154  H14   S    
C133  C138  A    
C87   C92   A    
C36   O37   A    
C39   H1    S    
C1    O9    A    
Cu4   O4    S    
Cu3   Cu4   S    
C85   C89   A    
C47   C51   A    
C82   C86   A    
C108  C112  A    
C42   C135  A    
C20   H26   S    
C74   C91   S    
C9    C14   A    
C26   O40   A    
Cu9   O28   S    
C11   C16   A    
C66   C71   A    
C17   H22   S    
Cu5   O32   S    
Cu2   O2    S    
C27   O41   A    
C97   O14   A    
C143  C152  A    
C94   C103  S    
C77   H51   S    
C81   H54   S    
Cu9   O19   S    
Cu10  O20   S    
C101  H45   S    
Cu2   O46   S    
Cu3   O8    S    
C134  H11   S    
C33   O8    A    
C70   C92   A    
C68   C104  S    
C57   C65   A    
C45   C100  S    
C37   O38   A    
C6    C10   A    
C137  Cl1   S    
C80   O23   A    
C21   C141  S    
Cu9   O10   S    
C10   C29   S    
C11   C28   S    
C104  H66   S    
C48   H31   S    
Cu12  O6    S    
C24   H43   S    
C97   O18   A    
C103  H63   S    
C74   C78   A    
C8    C27   S    
C148  O25   A    
C35   C46   A    
C110  C115  A    
Cu11  O13   S    
C23   H38   S    
C44   C49   A    
C14   C18   S    
Cu12  O48   S    
C43   C98   S    
C3    C153  A    
C72   C76   A    
C35   H44   S    
C24   C55   A    
C7    C11   A    
C46   C102  A    
C1    C71   S    
Cu1   O1    S    
C10   C15   A    
C100  O17   A    
C61   N1    T    
C67   C89   A    
Cu3   O3    S    
C144  C153  A    
C117  C121  A    
C98   O15   A    
C2    H41   S    
C93   Cl5   S    
C43   C48   A    
C29   O43   A    
C147  O28   A    
C5    H19   S    
Cu1   Cu8   S    
C34   C111  S    
Cu1   O31   S    
Cu7   O35   S    
C115  H5    S    
C38   O39   A    
C78   H52   S    
C76   H50   S    
Cu10  O11   S    
C39   C43   A    
C68   C73   A    
Cu4   O7    S    
Cu7   Cu11  S    
C31   O2    A    
C20   C64   S    
C44   C97   S    
C40   C44   A    
C98   O19   A    
C119  C132  A    
C149  O30   A    
C60   C135  A    
C114  C118  A    
C155  H15   S    
C133  H10   S    
C156  H16   S    
C107  H2    S    
Cu12  O42   S    
C95   C104  S    
C106  C110  A    
C103  H56   S    
C94   Cl6   S    
C88   C93   S    
C101  H62   S    
C76   C81   A    
C99   O16   A    
C117  H7    S    
C118  H8    S    
C2    C146  A    
Cu2   Cu12  S    
C28   O42   A    
C121  C126  A    
Cu7   O26   S    
C71   C75   A    
C123  C128  A    
C73   C80   S    
C42   C47   A    
C30   C84   S    
C6    C156  A    
Cu8   O36   S    
C51   H35   S    
Cu9   O37   S    
C150  C154  A    
C146  H40   S    
C52   C56   A    
C69   O10   A    
