data_mof_unit_64953.cif
_audit_creation_date              2012-12-10T16:43:33-0500
_audit_creation_method            fapswitch 2.2
_symmetry_space_group_name_H-M    P1
_symmetry_Int_Tables_number       1
_space_group_crystal_system       triclinic
_cell_length_a                    18.472059
_cell_length_b                    18.446449
_cell_length_c                    18.473827
_cell_angle_alpha                 119.53483
_cell_angle_beta                  90.53193
_cell_angle_gamma                 119.928364
_cell_volume                      4466.35478257

loop_
_atom_site_label
_atom_site_type_symbol
_atom_type_description
_atom_site_fract_x
_atom_site_fract_y
_atom_site_fract_z
_atom_type_partial_charge
C1    C     C_R   0.361145 0.998255 0.138167 0.516838
C2    C     C_2   0.814331 0.007051 0.701671 -0.011395
C3    C     C_2   0.725615 0.947833 0.782555 -0.107061
C4    C     C_R   0.637075 0.998936 0.860111 0.512662
C5    C     C_2   0.680549 0.989349 0.793829 0.087525
C6    C     C_2   0.281194 0.444188 0.720678 -0.157695
C7    C     C_2   0.192435 0.387702 0.696744 -0.091965
C8    C     C_2   0.337215 0.556527 0.779403 -0.158486
C9    C     C_2   0.304361 0.612253 0.802982 -0.091232
C10   C     C_2   0.281884 0.048080 0.336155 0.093320
C11   C     C_2   0.194898 0.008188 0.307515 -0.022107
C12   C     C_R   0.119628 0.808326 0.581987 -0.116991
C13   C     C_2   0.334691 0.057466 0.278006 -0.096502
C14   C     C_2   0.304228 0.984310 0.191115 0.082346
C15   C     C_2   0.779920 0.942328 0.218378 -0.158845
C16   C     C_R   0.638152 0.277016 0.138452 0.514889
C17   C     C_2   0.799621 0.995059 0.306169 -0.088968
C18   C     C_2   0.719861 0.938175 0.162402 -0.159046
C19   C     C_2   0.700305 0.006441 0.195383 -0.090051
C20   C     C_2   0.776868 0.556589 0.219383 -0.156208
C21   C     C_2   0.809054 0.612237 0.307945 -0.094071
C22   C     C_2   0.723216 0.444245 0.162983 -0.156609
C23   C     C_R   0.183282 0.901162 0.663502 0.010970
C24   C     C_2   0.690863 0.387682 0.195199 -0.092970
C25   C     C_R   0.138493 0.277024 0.638852 0.510669
C26   C     C_R   0.861808 0.722962 0.361720 0.509718
C27   C     C_R   0.861970 0.000158 0.639093 0.525388
C28   C     C_R   0.361317 0.722966 0.861088 0.510174
C29   C     C_R   0.138857 0.000538 0.361891 0.511606
C30   C     C_R   0.859630 0.999271 0.360492 0.515069
C31   C     C_R   0.139955 0.998523 0.638607 0.490861
C32   C     C_R   0.640309 0.000736 0.139562 0.514033
C33   C     C_R   0.359916 0.998969 0.858931 0.527608
C34   C     C_R   0.238124 0.901721 0.718266 -0.032998
C35   C     C_R   0.227714 0.809249 0.689328 -0.064927
C36   C     C_R   0.163533 0.717831 0.609108 0.119119
C37   C     C_R   0.109392 0.717881 0.555762 -0.100120
C38   C     C_R   0.303887 0.995327 0.798999 0.061359
C39   C     C_R   0.317115 0.087164 0.822596 0.074760
C40   C     C_R   0.263455 0.085862 0.768002 -0.138850
C41   C     C_R   0.195846 0.994160 0.690327 0.013490
C42   C     C_2   0.770600 0.934271 0.716605 0.085431
H1    H     H_    0.315020 0.407240 0.697563 0.159521
H2    H     H_    0.692465 0.878133 0.092073 0.157551
H3    H     H_    0.729820 0.070206 0.264258 0.107461
H4    H     H_    0.790970 0.594309 0.185926 0.158419
H5    H     H_    0.798801 0.577978 0.343770 0.106724
H6    H     H_    0.701087 0.421251 0.264863 0.107873
H7    H     H_    0.059891 0.648005 0.492993 0.107516
H8    H     H_    0.727515 0.919160 0.821211 0.121679
H9    H     H_    0.352825 0.213282 0.941740 0.224135
H10   H     H_    0.427139 0.232054 0.888503 0.234978
H11   H     H_    0.599017 0.973933 0.705185 0.239004
H12   H     H_    0.156407 0.421343 0.720293 0.110694
H13   H     H_    0.691832 0.093715 0.775600 0.241657
H14   H     H_    0.393342 0.119533 0.435769 0.220655
H15   H     H_    0.300892 0.022143 0.426297 0.236414
H16   H     H_    0.181544 0.876458 0.098139 0.243702
H17   H     H_    0.229211 0.830162 0.123439 0.240416
H18   H     H_    0.709250 0.407367 0.092217 0.158094
H19   H     H_    0.212906 0.634160 0.571702 0.223402
H20   H     H_    0.102836 0.563769 0.522613 0.228672
H21   H     H_    0.078153 0.804546 0.536740 0.132809
H22   H     H_    0.273314 0.156957 0.787615 0.123746
H23   H     H_    0.408377 0.594169 0.802976 0.156685
H24   H     H_    0.702795 0.780658 0.639031 0.231463
H25   H     H_    0.797451 0.841629 0.718842 0.226105
H26   H     H_    0.818665 0.077303 0.739340 0.111561
H27   H     H_    0.234296 0.578050 0.778950 0.114956
H28   H     H_    0.163584 0.983694 0.242377 0.114386
H29   H     H_    0.402217 0.125971 0.308897 0.126534
H30   H     H_    0.807203 0.899278 0.185798 0.158573
H31   H     H_    0.270047 0.806644 0.727364 0.139612
H32   H     H_    0.770204 0.034508 0.340347 0.108682
N1    N     N_3   0.383891 0.182023 0.903725 -0.604945
N2    N     N_3   0.667303 0.016442 0.736556 -0.643819
N3    N     N_3   0.325323 0.085495 0.424023 -0.579499
N4    N     N_3   0.219143 0.887889 0.150196 -0.647283
N5    N     N_3   0.154613 0.625634 0.582804 -0.624336
N6    N     N_3   0.769162 0.843890 0.671377 -0.579393
O1    O     O_3   0.500000 0.000000 0.000000 -0.445111
O2    O     O_R   0.054120 0.939900 0.325040 -0.549459
O3    O     O_R   0.884120 0.060070 0.444330 -0.537659
O4    O     O_R   0.325020 0.939940 0.054210 -0.538305
O5    O     O_R   0.175860 0.060090 0.615830 -0.541566
O6    O     O_R   0.884120 0.939900 0.324160 -0.542931
O7    O     O_R   0.055710 0.939940 0.615850 -0.545518
O8    O     O_R   0.885720 0.939940 0.614980 -0.495398
O9    O     O_R   0.174930 0.060060 0.445830 -0.504596
O10   O     O_R   0.054120 0.229160 0.614300 -0.539520
O11   O     O_R   0.885050 0.770830 0.325070 -0.540113
O12   O     O_R   0.614240 0.229150 0.054160 -0.534464
O13   O     O_R   0.614240 0.060060 0.885070 -0.546273
O14   O     O_R   0.614900 0.229170 0.174980 -0.541120
O15   O     O_R   0.445840 0.770840 0.885740 -0.542130
O16   O     O_R   0.615830 0.060100 0.175880 -0.540828
O17   O     O_R   0.324090 0.939910 0.884220 -0.553207
O18   O     O_R   0.615830 0.939930 0.055710 -0.543691
O19   O     O_R   0.444240 0.060060 0.884190 -0.514030
O20   O     O_R   0.325020 0.770840 0.885120 -0.541949
O21   O     O_R   0.445840 0.060100 0.175010 -0.551132
O22   O     O_R   0.614900 0.939900 0.885710 -0.553472
O23   O     O_3   0.999960 0.000000 0.500040 -0.450652
O24   O     O_R   0.174930 0.229160 0.614920 -0.539099
O25   O     O_R   0.885720 0.770850 0.445880 -0.540528
O26   O     O_R   0.885050 0.060100 0.614330 -0.550391
Zn1   Zn    Zn3+2 0.542440 0.085830 0.956610 0.945749
Zn2   Zn    Zn3+2 0.543390 0.085850 0.129220 0.940695
Zn3   Zn    Zn3+2 0.543390 0.914160 0.957530 0.926486
Zn4   Zn    Zn3+2 0.370780 0.914160 0.956640 0.940142
Zn5   Zn    Zn3+2 0.957510 0.914170 0.543430 0.949978
Zn6   Zn    Zn3+2 0.956570 0.085840 0.542520 0.944727
Zn7   Zn    Zn3+2 0.956570 0.914150 0.370820 0.934467
Zn8   Zn    Zn3+2 0.129180 0.085840 0.543400 0.945754

loop_
_geom_bond_atom_site_label_1
_geom_bond_atom_site_label_2
_ccdc_geom_bond_type
C15   C18   S    
C21   C26   S    
O1    Zn1   S    
C3    C42   S    
O20   Zn4   S    
C31   O5    A    
C35   C36   A    
O10   Zn6   S    
H10   N1    S    
C29   O9    A    
C11   H28   S    
O26   Zn6   S    
C1    O4    A    
C42   N6    S    
C15   H30   S    
C12   C23   A    
O14   Zn2   S    
C25   O10   A    
C28   O15   A    
C36   C37   A    
O23   Zn7   S    
H9    N1    S    
C18   C19   D    
C2    H26   S    
C22   H18   S    
C38   C39   A    
O7    Zn5   S    
C12   C37   A    
H17   N4    S    
O23   Zn5   S    
C34   C35   A    
C30   O3    A    
O8    Zn5   S    
C3    H8    S    
C8    C9    D    
C4    O22   A    
C2    C27   S    
C39   N1    S    
C30   O6    A    
C28   O20   A    
O21   Zn2   S    
O25   Zn5   S    
O1    Zn2   S    
C8    H23   S    
C16   C24   S    
O18   Zn3   S    
C13   C14   D    
C17   C30   S    
C19   C32   S    
C26   O25   A    
C10   N3    S    
C31   O7    A    
C24   H6    S    
H15   N3    S    
H20   N5    S    
O23   Zn8   S    
O15   Zn3   S    
C39   C40   A    
C12   H21   S    
C6    C8    S    
C13   H29   S    
C27   O26   A    
C26   O11   A    
C36   N5    S    
O4    Zn4   S    
H14   N3    S    
O11   Zn7   S    
O23   Zn6   S    
C33   O19   A    
C18   H2    S    
C37   H7    S    
O12   Zn1   S    
H19   N5    S    
C23   C34   A    
O1    Zn4   S    
O24   Zn8   S    
H13   N2    S    
C40   C41   A    
C32   O16   A    
C20   C22   S    
C16   O12   A    
C6    H1    S    
O6    Zn7   S    
C17   H32   S    
C22   C24   D    
H11   N2    S    
C1    O21   A    
O19   Zn1   S    
C15   C17   D    
O9    Zn8   S    
C35   H31   S    
C31   C41   S    
C34   C38   A    
H25   N6    S    
O2    Zn7   S    
C9    H27   S    
C4    C5    S    
C3    C5    D    
C10   C13   S    
C40   H22   S    
C19   H3    S    
C25   O24   A    
C6    C7    D    
H24   N6    S    
O1    Zn3   S    
C16   O14   A    
C33   C38   S    
C7    C25   S    
C5    N2    S    
C23   C41   A    
C29   O2    A    
O13   Zn1   S    
O17   Zn4   S    
C2    C42   D    
C32   O18   A    
C33   O17   A    
C14   N4    S    
O16   Zn2   S    
C27   O8    A    
O5    Zn8   S    
C10   C11   D    
H16   N4    S    
C4    O13   A    
C20   C21   D    
C11   C29   S    
O3    Zn6   S    
O22   Zn3   S    
C1    C14   S    
C7    H12   S    
C20   H4    S    
C9    C28   S    
C21   H5    S    
