data_mof_unit_53993.cif
_audit_creation_date              2013-03-05T15:50:17-0500
_audit_creation_method            fapswitch 2.2
_symmetry_space_group_name_H-M    P1
_symmetry_Int_Tables_number       1
_space_group_crystal_system       triclinic
_cell_length_a                    18.29827
_cell_length_b                    25.698425
_cell_length_c                    18.370134
_cell_angle_alpha                 89.671712
_cell_angle_beta                  90.111659
_cell_angle_gamma                 90.148671
_cell_volume                      8638.12451344

loop_
_atom_site_label
_atom_site_type_symbol
_atom_site_description
_atom_site_fract_x
_atom_site_fract_y
_atom_site_fract_z
_atom_type_partial_charge
Zn1   Zn    Zn3+2 0.249990 0.293780 0.913250 0.966474
Zn2   Zn    Zn3+2 0.249990 0.706220 0.086750 0.966322
Zn3   Zn    Zn3+2 0.249990 0.706220 0.913250 0.962275
Zn4   Zn    Zn3+2 0.249990 0.293780 0.086750 0.957965
Zn5   Zn    Zn3+2 0.749990 0.793780 0.413250 0.976975
Zn6   Zn    Zn3+2 0.749990 0.206220 0.586750 0.958357
Zn7   Zn    Zn3+2 0.749990 0.206220 0.413250 0.973463
Zn8   Zn    Zn3+2 0.749990 0.793780 0.586750 0.956321
Zn9   Zn    Zn3+2 0.336760 0.206240 0.000000 0.979808
Zn10  Zn    Zn3+2 0.336760 0.793760 0.000000 0.973071
Zn11  Zn    Zn3+2 0.836760 0.706240 0.500000 0.965073
Zn12  Zn    Zn3+2 0.836760 0.293760 0.500000 0.980416
Zn13  Zn    Zn3+2 0.163250 0.206230 0.000000 0.969009
Zn14  Zn    Zn3+2 0.163250 0.793770 0.000000 0.967988
Zn15  Zn    Zn3+2 0.663250 0.706230 0.500000 0.996259
Zn16  Zn    Zn3+2 0.663250 0.293770 0.500000 0.954643
O1    O     O_3   0.249990 0.250010 0.000000 -0.481976
O2    O     O_3   0.249990 0.749990 0.000000 -0.480228
O3    O     O_3   0.749990 0.750010 0.500000 -0.480723
O4    O     O_3   0.749990 0.249990 0.500000 -0.484818
O5    O     O_R   0.335430 0.280650 0.146160 -0.633523
O6    O     O_R   0.335430 0.719350 0.853840 -0.631028
O7    O     O_R   0.335430 0.719350 0.146160 -0.637903
O8    O     O_R   0.335430 0.280650 0.853840 -0.633199
O9    O     O_R   0.835430 0.780650 0.646160 -0.635247
O10   O     O_R   0.835430 0.219350 0.353840 -0.639559
O11   O     O_R   0.835430 0.219350 0.646160 -0.642178
O12   O     O_R   0.835430 0.780650 0.353840 -0.636202
O13   O     O_R   0.164550 0.280640 0.853840 -0.641219
O14   O     O_R   0.164550 0.719360 0.146160 -0.640452
O15   O     O_R   0.164550 0.719360 0.853840 -0.635663
O16   O     O_R   0.164550 0.280640 0.146160 -0.633799
O17   O     O_R   0.664550 0.780640 0.353840 -0.636714
O18   O     O_R   0.664550 0.219360 0.646160 -0.635241
O19   O     O_R   0.664550 0.219360 0.353840 -0.629038
O20   O     O_R   0.664550 0.780640 0.646160 -0.634367
O21   O     O_R   0.396160 0.219380 0.914560 -0.653763
O22   O     O_R   0.396160 0.780620 0.085440 -0.653002
O23   O     O_R   0.396160 0.780620 0.914560 -0.661275
O24   O     O_R   0.396160 0.219380 0.085440 -0.649075
O25   O     O_R   0.896160 0.719380 0.414560 -0.657906
O26   O     O_R   0.896160 0.280620 0.585440 -0.650692
O27   O     O_R   0.896160 0.280620 0.414560 -0.634590
O28   O     O_R   0.896160 0.719380 0.585440 -0.657073
O29   O     O_R   0.103840 0.219370 0.085450 -0.655842
O30   O     O_R   0.103840 0.780630 0.914550 -0.651932
O31   O     O_R   0.103840 0.780630 0.085450 -0.653482
O32   O     O_R   0.103840 0.219370 0.914550 -0.653674
O33   O     O_R   0.603840 0.719370 0.585450 -0.668987
O34   O     O_R   0.603840 0.280630 0.414550 -0.649617
O35   O     O_R   0.603840 0.280630 0.585450 -0.654256
O36   O     O_R   0.603840 0.719370 0.414550 -0.624749
O37   O     O_R   0.310730 0.133160 0.000000 -0.634996
O38   O     O_R   0.310730 0.866840 0.000000 -0.634778
O39   O     O_R   0.810730 0.633160 0.500000 -0.654678
O40   O     O_R   0.810730 0.366840 0.500000 -0.621480
O41   O     O_R   0.249970 0.366860 0.060720 -0.655761
O42   O     O_R   0.249970 0.633140 0.939280 -0.656066
O43   O     O_R   0.249970 0.633140 0.060720 -0.652918
O44   O     O_R   0.249970 0.366860 0.939280 -0.658714
O45   O     O_R   0.749970 0.866860 0.560720 -0.649052
O46   O     O_R   0.749970 0.133140 0.439280 -0.647295
O47   O     O_R   0.749970 0.133140 0.560720 -0.652333
O48   O     O_R   0.749970 0.866860 0.439280 -0.661284
O49   O     O_R   0.189290 0.133150 0.000000 -0.650009
O50   O     O_R   0.189290 0.866850 0.000000 -0.649004
O51   O     O_R   0.689290 0.633150 0.500000 -0.604829
O52   O     O_R   0.689290 0.366850 0.500000 -0.648910
C1    C     C_R   0.389876 0.249969 0.139731 0.785012
C2    C     C_R   0.393743 0.746981 0.863571 0.804366
C3    C     C_R   0.393651 0.746405 0.136640 0.819739
C4    C     C_R   0.393879 0.253595 0.863762 0.817365
C5    C     C_R   0.893680 0.753234 0.636513 0.797699
C6    C     C_R   0.893702 0.246982 0.363472 0.847015
C7    C     C_R   0.893534 0.246220 0.636680 0.799920
C8    C     C_R   0.893401 0.753632 0.363099 0.797356
C9    C     C_R   0.106600 0.253599 0.863044 0.810042
C10   C     C_R   0.106628 0.746356 0.136963 0.808621
C11   C     C_R   0.106212 0.746628 0.863731 0.800365
C12   C     C_R   0.106245 0.253069 0.136419 0.823498
C13   C     C_R   0.606326 0.753655 0.363414 0.837713
C14   C     C_R   0.606426 0.246892 0.636934 0.797599
C15   C     C_R   0.610102 0.250042 0.360291 0.779720
C16   C     C_R   0.606358 0.752858 0.636608 0.789143
C17   C     C_R   0.249721 0.108997 0.991810 0.883825
C18   C     C_R   0.250060 0.891015 0.008202 0.875968
C19   C     C_R   0.749775 0.609319 0.499709 0.865928
C20   C     C_R   0.749916 0.390678 0.499835 0.776599
C21   C     C_R   0.250166 0.391136 0.999938 0.796017
C22   C     C_R   0.249555 0.608880 0.000225 0.793543
C23   C     C_R   0.750358 0.891136 0.499937 0.794214
C24   C     C_R   0.749747 0.108881 0.500229 0.795589
C25   C     C_3   0.178993 0.469232 0.960931 -0.022757
C26   C     C_3   0.322408 0.531157 0.965220 -0.041195
C27   C     C_3   0.183281 0.530099 0.953741 -0.016453
C28   C     C_3   0.318310 0.470442 0.956881 -0.028443
C29   C     C_3   0.677853 0.969221 0.463646 -0.027262
C30   C     C_3   0.821192 0.031172 0.462218 -0.040748
C31   C     C_3   0.681730 0.030107 0.456488 -0.021906
C32   C     C_3   0.816978 0.970417 0.454348 -0.028492
H1    H     H_    0.178146 0.453374 0.904575 0.152626
H2    H     H_    0.326254 0.547891 0.909379 0.205988
H3    H     H_    0.196080 0.538777 0.895597 0.160321
H4    H     H_    0.308108 0.462728 0.898105 0.201982
H5    H     H_    0.674944 0.953417 0.407317 0.152862
H6    H     H_    0.822562 0.047724 0.406116 0.204198
H7    H     H_    0.692032 0.038897 0.397883 0.165295
H8    H     H_    0.804794 0.962471 0.395949 0.182709
H9    H     H_    0.116725 0.918379 0.075304 0.177522
H10   H     H_    0.111993 0.080947 0.931249 0.186665
H11   H     H_    0.689186 0.403637 0.620690 0.164587
H12   H     H_    0.687868 0.595086 0.619882 0.149970
H13   H     H_    0.208759 0.452328 0.113241 0.187542
H14   H     H_    0.285128 0.546587 0.115562 0.226561
H15   H     H_    0.189297 0.539361 0.102850 0.183079
H16   H     H_    0.305095 0.459768 0.105506 0.192921
H17   H     H_    0.713604 0.952389 0.614850 0.204147
H18   H     H_    0.790174 0.046611 0.614024 0.223770
H19   H     H_    0.693906 0.039381 0.605293 0.185922
H20   H     H_    0.809558 0.959781 0.603054 0.223203
C33   C     C_3   0.252374 0.470099 0.079050 -0.376544
C34   C     C_3   0.243191 0.529243 0.079086 -0.363297
C35   C     C_3   0.755795 0.970112 0.578873 -0.337894
C36   C     C_3   0.746747 0.029253 0.579294 -0.361327
C37   C     C_3   0.250139 0.448886 0.999684 0.086614
C38   C     C_3   0.249391 0.551165 0.000161 0.082728
C39   C     C_3   0.750422 0.948888 0.499669 0.067121
C40   C     C_3   0.749676 0.051166 0.500162 0.071833
H21   H     H_    0.887335 0.156639 0.944081 0.129323
H22   H     H_    0.887337 0.842013 0.054607 0.132124
H23   H     H_    0.906394 0.870208 0.922849 0.121173
H24   H     H_    0.910423 0.123199 0.083710 0.125655
H25   H     H_    0.394030 0.645644 0.437360 0.125431
H26   H     H_    0.408204 0.372445 0.577524 0.139950
H27   H     H_    0.380830 0.187658 0.464788 0.134829
H28   H     H_    0.416112 0.618354 0.588091 0.128374
C41   C     C_R   0.105556 0.330093 0.738292 -0.112448
C42   C     C_R   0.105262 0.669858 0.261795 -0.113404
C43   C     C_R   0.088842 0.660214 0.758143 -0.114928
C44   C     C_R   0.085724 0.341326 0.237605 -0.118761
C45   C     C_R   0.598394 0.835023 0.246073 -0.101785
C46   C     C_R   0.591905 0.162375 0.747641 -0.104414
C47   C     C_R   0.642917 0.285214 0.215268 -0.140820
C48   C     C_R   0.584845 0.841436 0.736658 -0.113895
C49   C     C_R   0.124526 0.350839 0.670641 -0.143399
C50   C     C_R   0.124012 0.649090 0.329507 -0.143605
C51   C     C_R   0.103350 0.631113 0.696164 -0.136454
C52   C     C_R   0.098569 0.372672 0.297864 -0.138139
C53   C     C_R   0.615240 0.859676 0.180443 -0.138218
C54   C     C_R   0.606985 0.134289 0.810961 -0.142197
C55   C     C_R   0.659708 0.301866 0.144952 -0.127825
C56   C     C_R   0.597344 0.873363 0.796397 -0.134102
C57   C     C_R   0.587781 0.840077 0.115656 -0.198478
C58   C     C_R   0.581328 0.151971 0.877388 -0.197792
C59   C     C_R   0.606338 0.301357 0.091103 -0.152959
C60   C     C_R   0.572437 0.858215 0.864607 -0.163197
C61   C     C_R   0.094805 0.329866 0.607703 -0.155863
C62   C     C_R   0.094341 0.670006 0.392294 -0.163553
C63   C     C_R   0.078057 0.648179 0.628907 -0.161777
C64   C     C_R   0.073599 0.357052 0.365847 -0.144302
C65   C     C_R   0.538177 0.798892 0.117190 -0.130903
C66   C     C_R   0.535008 0.194874 0.879572 -0.136613
C67   C     C_R   0.535872 0.284301 0.107344 -0.160287
C68   C     C_R   0.529559 0.813599 0.871830 -0.123222
C69   C     C_R   0.041356 0.291366 0.612851 -0.117615
C70   C     C_R   0.041017 0.708394 0.386930 -0.119471
C71   C     C_R   0.032847 0.691653 0.624636 -0.119706
C72   C     C_R   0.030212 0.312638 0.372361 -0.090835
C73   C     C_R   0.514870 0.776714 0.184120 0.097105
C74   C     C_R   0.513261 0.220824 0.814729 0.088500
C75   C     C_R   0.517576 0.266565 0.178274 0.081014
C76   C     C_R   0.510016 0.783380 0.810269 0.085344
C77   C     C_R   0.017013 0.272977 0.681555 0.083757
C78   C     C_R   0.016637 0.726679 0.318149 0.080444
C79   C     C_R   0.011531 0.718766 0.688206 0.085040
C80   C     C_R   0.010179 0.283147 0.310297 0.118341
C81   C     C_R   0.056814 0.287201 0.744080 0.073232
C82   C     C_R   0.056575 0.712589 0.255805 0.070654
C83   C     C_R   0.048460 0.707136 0.753613 0.072321
C84   C     C_R   0.047022 0.293706 0.244544 0.089491
C85   C     C_R   0.553300 0.790049 0.247862 0.076943
C86   C     C_R   0.550563 0.208943 0.749909 0.076008
C87   C     C_R   0.571908 0.266921 0.232956 0.065000
C88   C     C_R   0.546757 0.793600 0.744371 0.072567
C89   C     C_R   0.455157 0.741556 0.188965 -0.211752
C90   C     C_R   0.456549 0.258452 0.812939 -0.213853
C91   C     C_R   0.446009 0.249810 0.195903 -0.147558
C92   C     C_R   0.456309 0.743190 0.812565 -0.209124
C93   C     C_R   0.954765 0.240617 0.689129 -0.208619
C94   C     C_R   0.954417 0.758922 0.310362 -0.212283
C95   C     C_R   0.955779 0.757273 0.688322 -0.208170
C96   C     C_R   0.955903 0.243343 0.311959 -0.207956
C97   C     C_R   0.446486 0.710387 0.252494 0.033144
C98   C     C_R   0.451783 0.293379 0.753327 0.031822
C99   C     C_R   0.427807 0.233565 0.267413 0.022863
C100  C     C_R   0.453827 0.705779 0.756284 0.029538
C101  C     C_R   0.944207 0.211999 0.754758 0.030907
C102  C     C_R   0.943825 0.787255 0.244488 0.032365
C103  C     C_R   0.950761 0.792186 0.747612 0.029377
C104  C     C_R   0.952388 0.206769 0.254592 0.034789
C105  C     C_R   0.983626 0.226374 0.817316 0.084311
C106  C     C_R   0.983370 0.772919 0.182156 0.082143
C107  C     C_R   0.987747 0.780436 0.812872 0.083127
C108  C     C_R   0.989158 0.217505 0.188929 0.095388
C109  C     C_R   0.484847 0.723808 0.316137 0.093582
C110  C     C_R   0.488948 0.281742 0.688413 0.079404
C111  C     C_R   0.482231 0.233670 0.321921 0.080963
C112  C     C_R   0.490600 0.715995 0.690465 0.080379
C113  C     C_R   0.045871 0.258804 0.809939 -0.215284
C114  C     C_R   0.045799 0.740920 0.189896 -0.215058
C115  C     C_R   0.043741 0.742213 0.812524 -0.215805
C116  C     C_R   0.043760 0.257003 0.187503 -0.208727
C117  C     C_R   0.544781 0.758715 0.311207 -0.225988
C118  C     C_R   0.544942 0.243325 0.689477 -0.215258
C119  C     C_R   0.553882 0.250232 0.304234 -0.150052
C120  C     C_R   0.544107 0.756314 0.688006 -0.209802
C121  C     C_R   0.400989 0.665641 0.254511 -0.102737
C122  C     C_R   0.411278 0.340216 0.756964 -0.112441
C123  C     C_R   0.356385 0.216261 0.285470 -0.128569
C124  C     C_R   0.415888 0.657874 0.764139 -0.109560
C125  C     C_R   0.896044 0.168803 0.760065 -0.103467
C126  C     C_R   0.895699 0.830264 0.238718 -0.100268
C127  C     C_R   0.910187 0.839081 0.743548 -0.105844
C128  C     C_R   0.913478 0.159163 0.261109 -0.101891
C129  C     C_R   0.382217 0.641678 0.320647 0.062705
C130  C     C_R   0.396510 0.369643 0.694242 0.044638
C131  C     C_R   0.338756 0.200355 0.356435 0.055505
C132  C     C_R   0.403366 0.625478 0.704230 0.042193
C133  C     C_R   0.875935 0.148010 0.827887 0.057736
C134  C     C_R   0.875669 0.850789 0.170690 0.058565
C135  C     C_R   0.894901 0.868013 0.806154 0.047040
C136  C     C_R   0.899464 0.128120 0.200131 0.048309
C137  C     C_R   0.904870 0.170021 0.890872 -0.274750
C138  C     C_R   0.904475 0.828597 0.107949 -0.280839
C139  C     C_R   0.920666 0.850207 0.873169 -0.263125
C140  C     C_R   0.924414 0.144715 0.132291 -0.266181
C141  C     C_R   0.410243 0.661848 0.385233 -0.258542
C142  C     C_R   0.422253 0.352100 0.627423 -0.269582
C143  C     C_R   0.393091 0.200293 0.409758 -0.257781
C144  C     C_R   0.428647 0.641075 0.636058 -0.268375
C145  C     C_R   0.958645 0.208301 0.885838 -0.122754
C146  C     C_R   0.958337 0.790601 0.113443 -0.122994
C147  C     C_R   0.966304 0.807004 0.876700 -0.109306
C148  C     C_R   0.968606 0.188730 0.126525 -0.115937
C149  C     C_R   0.461071 0.702254 0.383170 -0.107451
C150  C     C_R   0.467469 0.308630 0.624296 -0.115605
C151  C     C_R   0.463900 0.216215 0.392871 -0.152546
C152  C     C_R   0.471142 0.685815 0.628993 -0.115049
H29   H     H_    0.127483 0.349513 0.785534 0.167557
H30   H     H_    0.127263 0.650548 0.214654 0.169508
H31   H     H_    0.108205 0.644959 0.809643 0.155074
H32   H     H_    0.105025 0.355350 0.185441 0.144216
H33   H     H_    0.619132 0.852711 0.295201 0.161538
H34   H     H_    0.611322 0.146366 0.696981 0.157380
H35   H     H_    0.686072 0.287400 0.255456 0.150380
H36   H     H_    0.603998 0.855162 0.684288 0.151121
H37   H     H_    0.163152 0.382739 0.667092 0.147322
H38   H     H_    0.162459 0.617241 0.333247 0.158349
H39   H     H_    0.135761 0.596022 0.700149 0.148113
H40   H     H_    0.129592 0.408378 0.292063 0.137879
H41   H     H_    0.650706 0.893437 0.179792 0.171293
H42   H     H_    0.639929 0.099416 0.808615 0.169288
H43   H     H_    0.714250 0.315603 0.132371 0.146478
H44   H     H_    0.628021 0.909177 0.790020 0.150112
H45   H     H_    0.603568 0.857516 0.064232 0.129056
H46   H     H_    0.596008 0.131794 0.927178 0.140996
H47   H     H_    0.619376 0.314669 0.036621 0.135824
H48   H     H_    0.585499 0.881396 0.911941 0.127824
H49   H     H_    0.111783 0.344297 0.554881 0.130110
H50   H     H_    0.111330 0.655646 0.445160 0.128245
H51   H     H_    0.092490 0.627247 0.580060 0.130181
H52   H     H_    0.087018 0.379720 0.413556 0.129968
H53   H     H_    0.520006 0.783893 0.065391 0.145223
H54   H     H_    0.518671 0.208256 0.932737 0.163348
H55   H     H_    0.496073 0.285724 0.063792 0.123562
H56   H     H_    0.515101 0.802275 0.926574 0.152765
H57   H     H_    0.020711 0.275338 0.562556 0.140176
H58   H     H_    0.020601 0.724470 0.437130 0.141963
H59   H     H_    0.017491 0.704609 0.570792 0.151676
H60   H     H_    0.015642 0.300899 0.426906 0.144425
H61   H     H_    0.381616 0.648008 0.204790 0.188013
H62   H     H_    0.392611 0.354864 0.808768 0.183003
H63   H     H_    0.313783 0.214648 0.244681 0.175878
H64   H     H_    0.397367 0.644830 0.817089 0.179270
H65   H     H_    0.875807 0.149706 0.711789 0.192685
H66   H     H_    0.875629 0.849556 0.286762 0.194312
H67   H     H_    0.891847 0.854205 0.691602 0.182632
H68   H     H_    0.895338 0.145272 0.313768 0.178415
H69   H     H_    0.978838 0.224582 0.936153 0.146986
H70   H     H_    0.978730 0.774300 0.063367 0.148296
H71   H     H_    0.981995 0.793743 0.930319 0.157492
H72   H     H_    0.983425 0.200861 0.072187 0.157256
H73   H     H_    0.479568 0.717422 0.434776 0.145457
H74   H     H_    0.482605 0.295453 0.570714 0.174125
H75   H     H_    0.503907 0.214430 0.436212 0.133335
H76   H     H_    0.485246 0.697309 0.574229 0.164092
C153  C     C_R   0.381426 0.043604 0.948239 0.040521
C154  C     C_R   0.384711 0.957092 0.042784 0.038782
C155  C     C_R   0.804042 0.554982 0.370197 0.024588
C156  C     C_R   0.803175 0.446199 0.369687 0.017556
C157  C     C_R   0.447968 0.020893 0.968346 -0.233906
C158  C     C_R   0.449704 0.979667 0.017667 -0.238794
C159  C     C_R   0.843412 0.527794 0.318013 -0.269888
C160  C     C_R   0.842801 0.474156 0.317537 -0.118301
C161  C     C_R   0.316559 0.975839 0.015488 0.034327
C162  C     C_R   0.315385 0.024517 0.979897 0.032004
C163  C     C_R   0.775405 0.472663 0.432859 -0.042829
C164  C     C_R   0.775495 0.527940 0.432973 0.054381
C165  C     C_R   0.249874 0.947800 0.020737 -0.118788
C166  C     C_R   0.248613 0.052270 0.978796 -0.117334
C167  C     C_R   0.748066 0.446241 0.495739 -0.119984
C168  C     C_R   0.747761 0.553772 0.495658 -0.122469
C169  C     C_R   0.182625 0.974730 0.016261 0.004333
C170  C     C_R   0.181765 0.025036 0.986809 0.005224
C171  C     C_R   0.717205 0.472596 0.555703 0.041775
C172  C     C_R   0.716869 0.526805 0.555593 0.008543
C173  C     C_R   0.116243 0.953161 0.041803 -0.156461
C174  C     C_R   0.113987 0.046363 0.965130 -0.167135
C175  C     C_R   0.687573 0.445607 0.616765 -0.218878
C176  C     C_R   0.686674 0.553155 0.616443 -0.214580
C177  C     C_R   0.048876 0.977006 0.027114 0.248309
C178  C     C_R   0.047683 0.022909 0.984697 0.245840
C179  C     C_R   0.654270 0.471637 0.674491 0.239702
C180  C     C_R   0.653640 0.526364 0.674319 0.251176
H77   H     H_    0.498998 0.035455 0.946244 0.132459
H78   H     H_    0.502177 0.965157 0.036093 0.131195
H79   H     H_    0.868533 0.548116 0.272559 0.139568
H80   H     H_    0.867388 0.454680 0.271519 0.177288
C181  C     C_3   0.108162 0.448309 0.997216 -0.882695
H81   H     H_    0.059945 0.457042 0.962598 0.244077
H82   H     H_    0.109608 0.405345 0.003184 0.211933
H83   H     H_    0.099595 0.465422 0.051799 0.250558
C182  C     C_3   0.391379 0.551321 0.005575 -0.867653
H84   H     H_    0.441223 0.543118 0.973381 0.247146
H85   H     H_    0.389714 0.594175 0.012240 0.214453
H86   H     H_    0.397211 0.533217 0.060204 0.257555
C183  C     C_3   0.110056 0.558617 0.967511 -0.900854
H87   H     H_    0.114572 0.600622 0.953970 0.221570
H88   H     H_    0.066748 0.542989 0.931297 0.246332
H89   H     H_    0.092320 0.554978 0.024976 0.245947
C184  C     C_3   0.390712 0.441518 0.973653 -0.862910
H90   H     H_    0.386622 0.399801 0.958911 0.219850
H91   H     H_    0.435711 0.457754 0.940006 0.252275
H92   H     H_    0.405695 0.443983 0.032030 0.244558
C185  C     C_3   0.608460 0.948173 0.502483 -0.878571
H93   H     H_    0.558933 0.957057 0.469830 0.246733
H94   H     H_    0.610059 0.905184 0.508020 0.212310
H95   H     H_    0.602069 0.965057 0.557514 0.250721
C186  C     C_3   0.891749 0.051623 0.499481 -0.862432
H96   H     H_    0.940214 0.043358 0.465292 0.251179
H97   H     H_    0.890242 0.094505 0.505842 0.213113
H98   H     H_    0.899924 0.033787 0.553989 0.257213
C187  C     C_3   0.609142 0.058568 0.473490 -0.874605
H99   H     H_    0.613139 0.100621 0.460042 0.227022
H100  H     H_    0.564327 0.043058 0.439026 0.249926
H101  H     H_    0.593827 0.054749 0.531632 0.241714
C188  C     C_3   0.890020 0.941678 0.468913 -0.867108
H102  H     H_    0.885578 0.899867 0.454837 0.222704
H103  H     H_    0.933746 0.957771 0.433511 0.254856
H104  H     H_    0.907127 0.944512 0.526679 0.245020
C189  C     C_2   0.823924 0.104037 0.833857 0.367263
H105  H     H_    0.809041 0.088840 0.887082 0.053929
O53   O     O_2   0.797178 0.084194 0.779707 -0.585661
C190  C     C_2   0.824277 0.894913 0.164280 0.363832
H106  H     H_    0.808932 0.909620 0.110893 0.050659
O54   O     O_2   0.798694 0.915508 0.218260 -0.583048
C191  C     C_2   0.850497 0.915980 0.802882 0.388396
H107  H     H_    0.840128 0.937842 0.852188 0.058653
O55   O     O_2   0.824841 0.931649 0.745439 -0.592108
C192  C     C_2   0.857167 0.079151 0.205841 0.403028
H108  H     H_    0.847777 0.055701 0.157716 0.060412
O56   O     O_2   0.832247 0.064368 0.263997 -0.590916
C193  C     C_2   0.332099 0.596462 0.323260 0.355475
H109  H     H_    0.318235 0.578736 0.375227 0.053546
O57   O     O_2   0.305530 0.578535 0.267727 -0.605926
C194  C     C_2   0.352513 0.417778 0.697292 0.376227
H110  H     H_    0.341987 0.439906 0.647874 0.047101
O58   O     O_2   0.327408 0.433304 0.754723 -0.579776
C195  C     C_2   0.263799 0.183525 0.375708 0.381870
H111  H     H_    0.251775 0.170595 0.430775 0.060579
O59   O     O_2   0.214560 0.184076 0.330709 -0.572921
C196  C     C_2   0.361968 0.576218 0.711288 0.389016
H112  H     H_    0.354036 0.551587 0.664094 0.055010
O60   O     O_2   0.335996 0.562567 0.769500 -0.589315
C197  C     C_3   0.978070 0.049129 0.960591 -0.954483
H113  H     H_    0.927940 0.029230 0.979919 0.241091
H114  H     H_    0.977528 0.089503 0.981536 0.241996
H115  H     H_    0.976048 0.050626 0.900194 0.250905
C198  C     C_3   0.979925 0.952639 0.056375 -0.941539
H116  H     H_    0.944210 0.940269 0.010724 0.230155
H117  H     H_    0.991901 0.917907 0.090470 0.251521
H118  H     H_    0.950450 0.981007 0.090899 0.245802
C199  C     C_3   0.618506 0.556958 0.734697 -0.919095
H119  H     H_    0.645710 0.547857 0.787303 0.242593
H120  H     H_    0.622803 0.599615 0.725407 0.239480
H121  H     H_    0.559485 0.547077 0.738161 0.251922
C200  C     C_3   0.620583 0.439113 0.734445 -0.923719
H122  H     H_    0.595085 0.462444 0.777984 0.252402
H123  H     H_    0.577623 0.413503 0.711082 0.252573
H124  H     H_    0.663303 0.414336 0.759906 0.236866
C201  C     C_2   0.383140 0.082438 0.888009 0.430833
H125  H     H_    0.434270 0.101184 0.873340 0.073067
O61   O     O_2   0.328525 0.092397 0.852317 -0.592499
C202  C     C_2   0.390740 0.918979 0.103630 0.442461
H126  H     H_    0.442720 0.900336 0.115019 0.066957
O62   O     O_2   0.338849 0.909446 0.143265 -0.587164
C203  C     C_2   0.788839 0.609826 0.350247 0.390981
H127  H     H_    0.832827 0.634651 0.330766 0.063525
O63   O     O_2   0.726362 0.626385 0.349724 -0.567888
C204  C     C_2   0.785121 0.391593 0.350010 0.399999
H128  H     H_    0.732438 0.374998 0.363928 0.043602
O64   O     O_2   0.828058 0.365094 0.315510 -0.591605

loop_
_geom_bond_atom_site_label_1
_geom_bond_atom_site_label_2
_geom_bond_distance
_ccdc_geom_bond_type
C170  C174  1.412874 A    
C48   C88   1.418094 A    
C188  H102  1.109341 S    
C41   H29   1.079704 S    
C32   C39   1.574030 S    
C129  C141  1.393792 A    
C154  C202  1.486063 S    
C183  H87   1.109268 S    
C21   C37   1.484069 S    
C182  H84   1.109320 S    
C94   C102  1.421899 A    
O26   C7    1.288506 A    
C162  C166  1.416404 A    
C26   C182  1.551843 S    
C23   C39   1.484113 S    
C75   C87   1.411986 A    
C109  C149  1.416151 A    
C200  H123  1.111078 S    
C129  C193  1.479028 S    
O30   C11   1.283213 A    
C198  H117  1.109524 S    
C154  C158  1.399736 A    
C53   C57   1.387739 A    
Zn12  O26   1.935990 S    
C100  C124  1.418551 A    
C56   C60   1.387450 A    
C194  O58   1.221049 D    
C55   C59   1.388787 A    
C26   C28   1.570227 S    
C29   H5    1.114905 S    
C110  C118  1.424695 A    
C47   C55   1.393062 A    
H26   C142  1.083505 S    
C180  C199  1.508993 S    
C31   C187  1.551122 S    
C52   H40   1.082585 S    
O11   C7    1.277924 A    
C53   H41   1.082141 S    
C187  H100  1.109654 S    
H10   C174  1.082739 S    
O34   C15   1.278459 A    
C63   H51   1.082367 S    
C175  C179  1.398590 A    
C64   H52   1.082619 S    
H16   C33   1.111472 S    
C49   H37   1.082775 S    
C179  C180  1.406483 A    
Zn1   O44   1.940614 S    
C25   H1    1.114819 S    
C165  C169  1.415368 A    
Zn2   O43   1.940612 S    
H23   C139  1.082719 S    
C157  C158  1.390463 A    
C150  H74   1.079638 S    
Zn5   O48   1.940614 S    
C57   C65   1.392701 A    
Zn6   O47   1.940612 S    
Zn15  O3    1.943117 S    
Zn7   O46   1.935302 S    
O16   C12   1.291920 A    
C189  O53   1.221349 D    
C192  O56   1.220637 D    
C159  C160  1.378503 A    
Zn16  O4    1.947880 S    
C108  C116  1.422585 A    
Zn1   O13   1.934988 S    
C22   C38   1.483187 S    
C141  C149  1.392602 A    
C124  H64   1.081801 S    
H18   C36   1.112166 S    
C185  H95   1.108920 S    
Zn3   O15   1.934221 S    
H24   C140  1.082473 S    
C139  C147  1.392121 A    
Zn4   O16   1.936242 S    
C65   H53   1.080219 S    
C46   C86   1.418308 A    
C188  H104  1.108525 S    
H28   C144  1.083691 S    
C198  H116  1.109628 S    
C71   H59   1.078796 S    
C183  H89   1.108375 S    
C155  C203  1.481147 S    
C72   H60   1.078533 S    
C166  C170  1.415202 A    
C182  H86   1.108786 S    
C93   C101  1.421873 A    
C7    C93   1.483043 S    
C111  C151  1.416582 A    
H11   C175  1.081044 S    
C31   C40   1.574775 S    
C199  H119  1.110185 S    
C30   H6    1.112968 S    
Zn10  O22   1.935990 S    
C45   H33   1.080540 S    
C126  H66   1.080201 S    
C131  C195  1.480092 S    
O25   C8    1.289000 A    
Zn13  O29   1.942802 S    
Zn6   O4    1.945318 S    
Zn10  O2    1.943419 S    
C44   C84   1.417542 A    
C63   C71   1.393636 A    
C105  C145  1.415474 A    
C134  C138  1.393893 A    
O29   C12   1.279655 A    
C45   C85   1.418623 A    
Zn15  O33   1.942802 S    
C43   C83   1.417797 A    
C145  H69   1.080829 S    
C26   H2    1.112309 S    
C177  C178  1.410220 A    
H9    C173  1.082350 S    
O37   C17   1.285031 A    
O48   C23   1.280149 A    
C122  C130  1.400832 A    
C177  C198  1.505845 S    
C197  H114  1.108738 S    
C130  C194  1.479049 S    
C186  H96   1.109375 S    
C167  C171  1.415609 A    
Zn16  O35   1.938691 S    
C99   C123  1.418708 A    
C192  H108  1.085915 S    
C35   C36   1.529314 S    
C97   C121  1.418231 A    
C153  C201  1.486091 S    
Zn7   O10   1.936200 S    
O33   C16   1.278599 A    
C132  C144  1.392317 A    
C101  C125  1.418621 A    
C52   C64   1.387456 A    
O40   C20   1.271648 A    
C106  C146  1.414865 A    
C136  C140  1.392307 A    
C190  H106  1.085696 S    
C82   C114  1.422878 A    
C84   C116  1.414930 A    
C13   C117  1.483248 S    
Zn5   O17   1.934988 S    
C102  C106  1.407091 A    
C198  H118  1.110512 S    
C1    C91   1.454526 S    
C2    C92   1.484569 S    
C12   C116  1.484596 S    
C65   C73   1.418151 A    
C64   C72   1.393351 A    
C61   H49   1.082617 S    
C25   C27   1.570776 S    
C47   H35   1.081536 S    
C74   C86   1.409046 A    
C181  H82   1.109288 S    
C107  C115  1.421271 A    
H25   C141  1.083647 S    
C3    C89   1.483672 S    
C132  C196  1.478730 S    
C105  C113  1.415837 A    
C27   H3    1.115097 S    
C184  H91   1.109684 S    
C199  H121  1.110661 S    
C32   H8    1.115184 S    
Zn8   O3    1.955849 S    
C97   C109  1.406656 A    
C8    C94   1.485101 S    
C202  H126  1.085540 S    
C135  C191  1.479012 S    
C29   C31   1.570897 S    
C61   C69   1.392351 A    
O38   C18   1.283117 A    
C96   C104  1.417352 A    
C59   C67   1.393111 A    
O5    C1    1.278183 A    
O32   C9    1.289182 A    
C100  C112  1.407920 A    
C112  C152  1.417936 A    
C33   C37   1.559897 S    
C35   C39   1.559605 S    
C60   H48   1.082799 S    
C104  C108  1.407920 A    
Zn15  O51   1.938742 S    
Zn11  O28   1.938142 S    
Zn12  O40   1.938699 S    
C159  H79   1.084672 S    
C204  H128  1.083567 S    
C138  C146  1.392301 A    
C156  C163  1.442417 A    
C161  C162  1.408358 A    
C186  H98   1.108883 S    
C6    C96   1.485061 S    
C50   H38   1.082453 S    
O8    C4    1.289237 A    
C71   C79   1.419117 A    
Zn9   O1    1.948183 S    
C72   C80   1.419674 A    
C90   C98   1.414641 A    
C28   C184  1.550336 S    
C42   H30   1.079608 S    
O50   C18   1.281288 A    
C169  C173  1.413721 A    
C50   C62   1.387492 A    
H12   C176  1.079957 S    
Zn1   O1    1.945320 S    
C46   H34   1.080743 S    
Zn13  O1    1.943117 S    
Zn2   O14   1.939834 S    
C48   C56   1.392184 A    
C200  H122  1.106941 S    
C66   H54   1.080266 S    
C27   C38   1.575273 S    
C42   C50   1.393369 A    
C161  C165  1.418643 A    
O9    C5    1.292263 A    
C203  O63   1.220893 D    
O39   C19   1.271183 A    
O36   C13   1.285021 A    
C29   C185  1.552234 S    
C158  H78   1.083832 S    
C68   C76   1.420175 A    
C154  C161  1.427113 A    
C30   C186  1.552023 S    
C80   C84   1.409097 A    
O13   C9    1.277273 A    
C126  C134  1.402104 A    
Zn1   O8    1.939790 S    
Zn2   O7    1.934945 S    
C153  C157  1.399685 A    
Zn3   O6    1.936200 S    
C135  C139  1.392695 A    
O18   C14   1.289326 A    
O31   C10   1.290101 A    
O6    C2    1.292859 A    
C164  C168  1.427254 A    
Zn4   O41   1.935304 S    
C121  C129  1.401847 A    
C18   C165  1.478678 S    
C196  H112  1.085685 S    
C44   H32   1.081472 S    
C187  H99   1.109459 S    
C195  H111  1.085710 S    
Zn14  O30   1.938395 S    
C67   H55   1.081353 S    
C11   C115  1.483512 S    
C48   H36   1.081448 S    
Zn11  O3    1.948183 S    
O41   C21   1.275920 A    
C176  C180  1.400608 A    
C41   C49   1.393670 A    
C110  C150  1.417568 A    
Zn16  O34   1.938395 S    
C193  O57   1.221306 D    
C88   C120  1.415469 A    
C124  C132  1.401888 A    
C143  C151  1.392773 A    
Zn8   O20   1.936242 S    
C183  H88   1.109592 S    
C185  H94   1.109280 S    
C67   C75   1.418346 A    
C78   C82   1.409321 A    
H20   C35   1.110825 S    
C55   H43   1.082693 S    
C36   C40   1.556876 S    
C56   H44   1.082691 S    
C30   C40   1.572740 S    
C109  C117  1.417738 A    
C171  C172  1.393100 A    
C188  H103  1.109679 S    
C103  C107  1.407165 A    
Zn8   O9    1.934178 S    
C160  H80   1.083996 S    
C108  C148  1.417391 A    
C127  C135  1.402079 A    
C201  H125  1.084970 S    
C182  H85   1.109259 S    
C70   C78   1.417167 A    
C174  C178  1.399963 A    
C157  H77   1.083840 S    
C163  C164  1.420524 A    
O7    C3    1.282344 A    
C200  H124  1.110393 S    
O19   C15   1.278259 A    
H19   C36   1.111421 S    
H22   C138  1.083006 S    
Zn9   O24   1.938142 S    
Zn6   O18   1.939834 S    
Zn10  O23   1.942552 S    
C47   C87   1.418309 A    
C57   H45   1.082693 S    
C178  C197  1.507159 S    
C134  C190  1.479039 S    
C25   C181  1.552063 S    
C66   C74   1.418591 A    
C95   C103  1.418358 A    
C131  C143  1.394355 A    
C142  C150  1.393385 A    
C111  C119  1.415229 A    
C191  O55   1.220748 D    
Zn15  O36   1.936243 S    
O15   C11   1.292152 A    
O42   C22   1.278350 A    
C4    C90   1.484714 S    
C33   C34   1.529620 S    
C78   C94   1.416392 A    
Zn4   O1    1.955849 S    
C30   C32   1.570497 S    
C103  C127  1.418640 A    
O12   C8    1.279842 A    
C187  H101  1.108496 S    
Zn11  O39   1.936303 S    
C62   C70   1.392278 A    
C147  H71   1.079049 S    
C197  H113  1.107143 S    
C19   C168  1.430212 S    
C122  H62   1.081694 S    
C20   C167  1.429935 S    
C68   H56   1.078571 S    
C69   H57   1.080831 S    
C58   C66   1.393223 A    
C15   C119  1.454150 S    
Zn5   O3    1.945320 S    
C31   H7    1.115048 S    
C171  C175  1.422952 A    
C62   H50   1.082253 S    
C172  C176  1.423500 A    
C156  C204  1.487258 S    
C46   C54   1.392925 A    
C169  C170  1.398678 A    
C136  C192  1.478987 S    
C190  O54   1.221344 D    
C163  C167  1.427271 A    
O28   C5    1.284101 A    
C25   C37   1.571823 S    
C80   C96   1.424126 A    
Zn3   O42   1.935302 S    
C173  C177  1.403063 A    
C99   C111  1.410862 A    
Zn7   O4    1.955851 S    
O21   C4    1.279175 A    
C125  C133  1.402252 A    
C144  C152  1.391912 A    
C123  C131  1.401956 A    
C155  C159  1.392525 A    
C156  C160  1.397071 A    
C17   C166  1.478688 S    
C123  H63   1.081091 S    
C130  C142  1.393394 A    
C83   C115  1.415331 A    
Zn2   O2    1.945318 S    
C181  H81   1.109244 S    
Zn14  O2    1.947880 S    
C191  H107  1.085857 S    
C29   C39   1.571760 S    
C51   C63   1.387676 A    
C44   C52   1.392025 A    
C45   C53   1.393418 A    
C98   C122  1.417121 A    
Zn13  O49   1.938742 S    
O44   C21   1.280158 A    
C199  H120  1.111067 S    
C43   C51   1.392138 A    
Zn12  O4    1.943419 S    
C51   H39   1.082661 S    
C102  C126  1.418345 A    
C202  O62   1.221127 D    
Zn12  O27   1.942552 S    
C128  C136  1.401801 A    
C79   C95   1.423106 A    
C155  C164  1.441176 A    
C195  O59   1.221605 D    
C107  C147  1.416789 A    
C69   C77   1.417352 A    
C27   C183  1.550781 S    
C151  H75   1.081380 S    
C49   C61   1.387869 A    
C152  H76   1.078498 S    
Zn3   O2    1.955851 S    
C81   C113  1.423522 A    
C41   C81   1.419738 A    
C14   C118  1.486099 S    
C148  H72   1.078956 S    
C149  H73   1.080519 S    
O46   C24   1.278382 A    
O47   C24   1.277258 A    
C203  H127  1.085702 S    
C101  C105  1.406292 A    
Zn16  O52   1.936345 S    
C204  O64   1.221625 D    
C9    C113  1.483056 S    
Zn8   O45   1.935304 S    
C197  H115  1.110484 S    
O27   C6    1.280231 A    
C186  H97   1.109261 S    
H15   C34   1.111309 S    
C133  C137  1.393756 A    
C74   C90   1.420473 A    
C106  C114  1.415737 A    
C24   C40   1.483202 S    
C32   C188  1.550778 S    
C201  O61   1.221055 D    
C26   C38   1.572335 S    
C98   C110  1.407924 A    
O24   C1    1.278963 A    
C104  C128  1.418459 A    
C79   C83   1.408341 A    
C168  C172  1.415507 A    
H21   C137  1.083243 S    
O43   C22   1.277333 A    
O14   C10   1.278658 A    
C34   C38   1.556679 S    
C125  H65   1.080372 S    
Zn5   O12   1.939790 S    
C76   C88   1.408897 A    
C121  H61   1.080711 S    
Zn6   O11   1.934945 S    
C77   C81   1.408352 A    
C73   C85   1.408262 A    
C87   C119  1.414825 A    
Zn9   O21   1.938440 S    
Zn14  O50   1.936345 S    
H13   C33   1.112114 S    
O35   C14   1.280256 A    
C92   C100  1.416412 A    
C5    C95   1.484615 S    
C127  H67   1.081415 S    
C137  C145  1.392426 A    
C128  H68   1.081699 S    
C54   H42   1.082461 S    
C133  C189  1.479258 S    
O52   C20   1.265735 A    
C181  H83   1.108803 S    
C42   C82   1.419496 A    
C153  C162  1.426711 A    
C194  H110  1.085617 S    
C184  H92   1.108474 S    
C10   C114  1.485199 S    
O22   C3    1.284665 A    
C196  O60   1.220362 D    
C91   C99   1.416189 A    
Zn7   O19   1.934221 S    
C43   H31   1.081401 S    
O20   C16   1.292721 A    
C89   C97   1.420596 A    
C58   H46   1.082571 S    
Zn13  O32   1.936243 S    
C85   C117  1.419890 A    
O49   C17   1.279044 A    
Zn14  O31   1.938691 S    
C189  H105  1.085717 S    
O51   C19   1.266339 A    
C75   C91   1.415031 A    
C140  C148  1.392385 A    
C28   H4    1.114184 S    
H17   C35   1.112199 S    
C73   C89   1.418610 A    
C193  H109  1.085629 S    
Zn4   O5    1.934178 S    
C76   C92   1.424329 A    
C77   C93   1.415162 A    
O10   C6    1.291998 A    
O23   C2    1.278886 A    
H27   C143  1.083715 S    
C28   C37   1.573655 S    
Zn11  O25   1.938440 S    
Zn10  O38   1.938699 S    
H14   C34   1.111819 S    
O45   C23   1.275952 A    
Zn9   O37   1.936303 S    
C60   C68   1.393486 A    
C112  C120  1.424273 A    
C54   C58   1.387676 A    
C86   C118  1.418607 A    
C184  H90   1.109532 S    
C146  H70   1.080514 S    
C185  H93   1.109323 S    
O17   C13   1.281564 A    
C70   H58   1.080367 S    
C59   H47   1.082689 S    
C16   C120  1.484105 S    
C179  C200  1.510288 S    
