data_mof_unit_11737.cif
_audit_creation_date              2012-12-11T18:11:30-0500
_audit_creation_method            fapswitch 2.2
_symmetry_space_group_name_H-M    P1
_symmetry_Int_Tables_number       1
_space_group_crystal_system       triclinic
_cell_length_a                    8.168807
_cell_length_b                    12.641639
_cell_length_c                    18.799079
_cell_angle_alpha                 99.373745
_cell_angle_beta                  91.105711
_cell_angle_gamma                 98.553472
_cell_volume                      1892.21436063

loop_
_atom_site_label
_atom_site_type_symbol
_atom_type_description
_atom_site_fract_x
_atom_site_fract_y
_atom_site_fract_z
_atom_type_partial_charge
Ba1   Ba    Ba6+2 0.852780 0.548340 0.465070 1.637065
Ba2   Ba    Ba6+2 0.337060 0.451750 0.534940 1.637339
C1    C     C_3   0.580237 0.901617 0.252808 -0.417911
C2    C     C_R   0.905622 0.372407 0.095236 0.385022
C3    C     C_R   0.798005 0.359722 0.938789 -0.102860
C4    C     C_3   0.129269 0.763563 0.266213 0.366149
C5    C     C_R   0.944202 0.425580 0.970876 0.031074
C6    C     C_R   0.733515 0.369293 0.872054 -0.140984
C7    C     C_R   0.822567 0.433268 0.827988 -0.027101
C8    C     C_R   0.979833 0.491324 0.853529 0.003308
C9    C     C_R   0.038681 0.490702 0.926118 0.020852
C10   C     C_R   0.762739 0.435507 0.757463 -0.011632
C11   C     C_R   0.867754 0.482947 0.709781 -0.292426
C12   C     C_3   0.633470 0.823445 0.298992 0.343155
C13   C     C_R   0.023743 0.541154 0.732679 0.039898
C14   C     C_R   0.077376 0.550001 0.806579 -0.035815
C15   C     C_R   0.154058 0.492729 0.070772 -0.027354
C16   C     C_3   0.109993 0.789589 0.190583 -0.367870
C17   C     C_R   0.212375 0.498217 0.144188 -0.005894
C18   C     C_R   0.113489 0.444899 0.192941 -0.093055
C19   C     C_R   0.965476 0.379781 0.166225 -0.062057
C20   C     C_R   0.224699 0.615332 0.835181 -0.028207
C21   C     C_R   0.280451 0.617496 0.906072 -0.091229
C22   C     C_R   0.192861 0.553012 0.952330 0.013430
C23   C     C_3   0.449880 0.272321 0.315070 0.308824
C24   C     C_R   0.253554 0.550602 0.023801 0.038563
C25   C     C_R   0.413279 0.603466 0.049762 -0.098544
C26   C     C_R   0.372322 0.554440 0.168383 -0.029958
C27   C     C_R   0.470783 0.605025 0.119904 -0.123857
C28   C     C_3   0.235164 0.788025 0.620107 0.275909
C29   C     C_R   0.429987 0.557377 0.240303 -0.017308
C30   C     C_R   0.323905 0.513317 0.288948 -0.287312
C31   C     C_R   0.166886 0.456686 0.266914 0.054808
C32   C     C_R   0.765324 0.182469 0.528057 -0.279542
C33   C     C_R   0.427440 0.807302 0.470459 -0.286367
C34   C     C_3   0.394270 0.226720 0.237188 -0.403290
C35   C     C_R   0.401923 0.984461 0.444656 -0.105147
C36   C     C_R   0.337004 0.875972 0.441030 -0.012622
C37   C     C_R   0.577143 0.848128 0.509456 0.067569
C38   C     C_R   0.642086 0.960229 0.516772 -0.061104
C39   C     C_R   0.553752 0.028390 0.482572 -0.063236
C40   C     C_3   0.244108 0.910317 0.635218 -0.340889
C41   C     C_R   0.617835 0.139412 0.488584 0.044932
C42   C     C_R   0.856750 0.116075 0.558845 -0.012303
C43   C     C_R   0.793304 0.006348 0.555712 -0.094927
C44   C     C_3   0.960684 0.211620 0.380238 0.275397
C45   C     C_3   0.064686 0.232136 0.733974 0.369685
C46   C     C_3   0.950213 0.089210 0.364212 -0.344970
C47   C     C_3   0.726908 0.704932 0.681814 0.313043
C48   C     C_3   0.740958 0.739927 0.763346 -0.397627
C49   C     C_3   0.624441 0.357254 0.096132 0.244760
C50   C     C_3   0.464762 0.287402 0.062593 -0.346377
C51   C     C_3   0.086618 0.203978 0.808874 -0.360260
C52   C     C_3   0.557370 0.173000 0.698208 0.343751
C53   C     C_3   0.610226 0.095822 0.745321 -0.425737
C54   C     C_R   0.998905 0.428663 0.044859 -0.045724
H1    H     H_    0.723058 0.869070 0.342404 0.075420
H2    H     H_    0.846186 0.682622 0.662896 0.010885
H3    H     H_    0.627700 0.633694 0.668809 0.071301
H4    H     H_    0.523994 0.965836 0.286875 0.105821
H5    H     H_    0.844023 0.808527 0.778211 0.125345
H6    H     H_    0.765459 0.671613 0.790149 0.058066
H7    H     H_    0.623354 0.765915 0.782898 0.120630
H8    H     H_    0.522050 0.788560 0.325117 -0.050773
H9    H     H_    0.487783 0.856981 0.210266 0.113884
H10   H     H_    0.343056 0.302112 0.342982 0.026148
H11   H     H_    0.552651 0.340946 0.316251 0.048320
H12   H     H_    0.327819 0.944691 0.682993 0.115875
H13   H     H_    0.289641 0.159053 0.235080 0.137971
H14   H     H_    0.352604 0.290926 0.210848 0.049287
H15   H     H_    0.498686 0.196078 0.207613 0.129486
H16   H     H_    0.688545 0.939738 0.226295 0.133756
H17   H     H_    0.147773 0.724246 0.150372 0.075808
H18   H     H_    0.144836 0.310446 0.731678 0.093266
H19   H     H_    0.933219 0.241006 0.725051 -0.076461
H20   H     H_    0.053604 0.269364 0.850243 0.076119
H21   H     H_    0.005426 0.126819 0.813143 0.109536
H22   H     H_    0.217363 0.194689 0.819589 0.151196
H23   H     H_    0.291947 0.946019 0.588340 0.081126
H24   H     H_    0.669658 0.209147 0.673165 -0.055405
H25   H     H_    0.471362 0.126154 0.653888 0.077417
H26   H     H_    0.704318 0.140591 0.787095 0.110172
H27   H     H_    0.664461 0.030194 0.711685 0.099520
H28   H     H_    0.046769 0.686402 0.269150 0.095642
H29   H     H_    0.502230 0.059474 0.772846 0.131395
H30   H     H_    0.824324 0.478710 0.654522 0.070902
H31   H     H_    0.616399 0.319963 0.854259 0.112944
H32   H     H_    0.892048 0.331710 0.200066 0.115907
H33   H     H_    0.298779 0.666585 0.803350 0.091194
H34   H     H_    0.118843 0.931360 0.646115 0.141419
H35   H     H_    0.595037 0.646033 0.135074 0.108612
H36   H     H_    0.366886 0.519210 0.344451 0.072454
H37   H     H_    0.730651 0.294994 0.960927 0.154575
H38   H     H_    0.393042 0.672512 0.923163 0.058202
H39   H     H_    0.259752 0.753024 0.275676 -0.072562
H40   H     H_    0.500525 0.642615 0.016452 0.069445
H41   H     H_    0.329102 0.033562 0.419261 0.101657
H42   H     H_    0.865375 0.958675 0.582635 0.102812
H43   H     H_    0.814445 0.267552 0.531158 0.063991
H44   H     H_    0.376054 0.722490 0.466627 0.071640
H45   H     H_    0.838930 0.232707 0.395608 0.005483
H46   H     H_    0.978890 0.796359 0.178273 0.151422
H47   H     H_    0.188971 0.867549 0.186286 0.111272
H48   H     H_    0.359096 0.767800 0.607472 0.006929
H49   H     H_    0.146936 0.755828 0.573281 0.074702
H50   H     H_    0.636352 0.436138 0.076149 0.048095
H51   H     H_    0.615717 0.371502 0.155767 0.062121
H52   H     H_    0.456114 0.204250 0.075608 0.134892
H53   H     H_    0.356155 0.323152 0.083844 0.079915
H54   H     H_    0.460632 0.282397 0.003089 0.108998
H55   H     H_    0.053118 0.243209 0.425482 0.079820
H56   H     H_    0.860470 0.055448 0.318373 0.117613
H57   H     H_    0.908864 0.053295 0.411902 0.086246
H58   H     H_    0.073752 0.067640 0.350017 0.139366
O1    O     O_2   0.873090 0.425890 0.325140 -0.464383
O2    O     O_2   0.195808 0.121057 0.549893 -0.480784
O3    O     O_3   0.110393 0.149032 0.682834 -0.597115
O4    O     O_3   0.122420 0.434370 0.414380 -0.496584
O5    O     O_3   0.578370 0.633800 0.536380 -0.489986
O6    O     O_2   0.341510 0.231850 0.465510 -0.468704
O7    O     O_3   0.504238 0.189785 0.346503 -0.650519
O8    O     O_2   0.422078 0.451389 0.757293 -0.491510
O9    O     O_3   0.473567 0.249058 0.740251 -0.595420
O10   O     O_3   0.659500 0.627100 0.368810 -0.467307
O11   O     O_2   0.772028 0.547017 0.243300 -0.510838
O12   O     O_3   0.690049 0.791813 0.650156 -0.643438
O13   O     O_3   0.004674 0.252961 0.317656 -0.640645
O14   O     O_3   0.711776 0.746006 0.255421 -0.595170
O15   O     O_2   0.848200 0.768190 0.534530 -0.472204
O16   O     O_3   0.081160 0.685950 0.404810 -0.486421
O17   O     O_2   0.998953 0.879206 0.450097 -0.483988
O18   O     O_3   0.759424 0.302459 0.076339 -0.665674
O19   O     O_3   0.085680 0.848699 0.316458 -0.598989
O20   O     O_2   0.316610 0.574140 0.674900 -0.468845
O21   O     O_3   0.067290 0.565720 0.585630 -0.496323
O22   O     O_3   0.530210 0.372990 0.631200 -0.464288
O23   O     O_3   0.184454 0.747124 0.682150 -0.639739
O24   O     O_3   0.611340 0.366290 0.463630 -0.475186
O25   O     O_3   0.108550 0.314140 0.595200 -0.484136
P1    P     P_3+3 0.041040 0.394770 0.336330 0.969841
P2    P     P_3+3 0.672880 0.754030 0.556100 0.968610
P3    P     P_3+3 0.126304 0.824157 0.403585 0.951091
P4    P     P_3+3 0.148670 0.605320 0.663680 0.971269
P5    P     P_3+3 0.066709 0.174425 0.596283 0.953710
P6    P     P_3+3 0.642868 0.616847 0.275473 0.940614
P7    P     P_3+3 0.522439 0.230229 0.440084 0.934909
P8    P     P_3+3 0.547624 0.379554 0.723751 0.954299

loop_
_geom_bond_atom_site_label_1
_geom_bond_atom_site_label_2
_ccdc_geom_bond_type
C52   O9    S    
O6    P7    D    
Ba1   O4    S    
Ba2   P4    S    
C25   C27   A    
C36   P3    S    
C51   H21   S    
C17   C18   A    
C23   H11   S    
C35   H41   S    
Ba2   O4    S    
C2    O18   S    
C42   C43   A    
C5    C9    A    
C47   O12   S    
C24   C25   A    
Ba2   O20   S    
Ba2   O25   S    
C10   P8    S    
C26   C27   A    
C22   C24   A    
C4    O19   S    
Ba1   O15   S    
C43   H42   S    
C16   H46   S    
O14   P6    S    
O15   P2    D    
C31   P1    S    
C13   C14   A    
C9    C22   A    
C12   O14   S    
Ba1   Ba2   S    
Ba1   O5    S    
C49   O18   S    
O20   P4    D    
O2    P5    D    
C37   P2    S    
C6    C7    A    
C11   H30   S    
C21   C22   A    
C7    C8    A    
C34   H15   S    
C45   C51   S    
C1    H4    S    
O21   P4    S    
O23   P4    S    
C19   H32   S    
C40   H23   S    
C28   O23   S    
C44   H55   S    
C2    C54   A    
C40   H12   S    
C48   H7    S    
C39   C41   A    
C25   H40   S    
C1    H9    S    
C5    C54   A    
O4    P1    S    
C34   H14   S    
C52   H24   S    
C38   C43   A    
C4    C16   S    
C44   H45   S    
C44   C46   S    
C4    H28   S    
C32   C41   A    
C49   C50   S    
Ba2   O24   S    
C44   O13   S    
O3    P5    S    
C32   C42   A    
Ba1   O16   S    
C37   C38   A    
C3    C5    A    
Ba2   O6    S    
Ba2   O22   S    
C47   H2    S    
C40   H34   S    
C53   H29   S    
C33   C37   A    
C35   C36   A    
O25   P5    S    
C29   C30   A    
C50   H54   S    
C42   P5    S    
C12   H8    S    
C33   C36   A    
C32   H43   S    
O19   P3    S    
O8    P8    D    
C18   C19   A    
C53   H26   S    
C17   C26   A    
O17   P3    D    
C15   C54   A    
C1    C12   S    
C13   P4    S    
C18   C31   A    
C38   C39   A    
C46   H56   S    
O9    P8    S    
C4    H39   S    
C16   H17   S    
C11   C13   A    
C28   H49   S    
C48   H6    S    
C51   H20   S    
O13   P1    S    
C15   C24   A    
C53   H27   S    
C33   H44   S    
C27   H35   S    
C34   H13   S    
C46   H58   S    
C12   H1    S    
C52   C53   S    
C14   C20   A    
O7    P7    S    
C26   C29   A    
C23   H10   S    
C45   H18   S    
C3    C6    A    
C3    H37   S    
Ba2   O5    S    
O10   P6    S    
O12   P2    S    
Ba2   O21   S    
C47   H3    S    
C21   H38   S    
C6    H31   S    
C30   C31   A    
C1    H16   S    
Ba1   O10   S    
C45   H19   S    
C41   P7    S    
C8    C14   A    
C2    C19   A    
C30   H36   S    
C50   H53   S    
O24   P7    S    
C49   H50   S    
O5    P2    S    
C15   C17   A    
C20   H33   S    
C51   H22   S    
C16   H47   S    
C35   C39   A    
O16   P3    S    
C7    C10   A    
O22   P8    S    
Ba1   P2    S    
C8    C9    A    
C23   C34   S    
C29   P6    S    
C45   O3    S    
C10   C11   A    
C50   H52   S    
C49   H51   S    
C47   C48   S    
C28   H48   S    
C48   H5    S    
C20   C21   A    
C28   C40   S    
Ba1   P1    S    
Ba1   O1    S    
Ba1   O21   S    
O1    P1    D    
C23   O7    S    
O11   P6    D    
C52   H25   S    
Ba1   O24   S    
C46   H57   S    
