data_mof_unit_51816.cif
_audit_creation_date              2012-12-10T17:33:56-0500
_audit_creation_method            fapswitch 2.2
_symmetry_space_group_name_H-M    P1
_symmetry_Int_Tables_number       1
_space_group_crystal_system       triclinic
_cell_length_a                    10.642422
_cell_length_b                    11.964293
_cell_length_c                    12.818431
_cell_angle_alpha                 93.231818
_cell_angle_beta                  90.154454
_cell_angle_gamma                 86.121656
_cell_volume                      1625.83007865

loop_
_atom_site_label
_atom_site_type_symbol
_atom_type_description
_atom_site_fract_x
_atom_site_fract_y
_atom_site_fract_z
_atom_type_partial_charge
C1    C     C_R   0.487408 0.521660 0.700120 0.932166
C2    C     C_R   0.431487 0.444882 0.971937 0.006168
C3    C     C_R   0.430523 0.551695 0.025338 -0.014642
C4    C     C_R   0.742415 0.500234 0.500279 0.909227
C5    C     C_R   0.423050 0.559251 0.133673 0.033740
C6    C     C_R   0.468408 0.355920 0.135545 -0.085955
C7    C     C_R   0.442716 0.346208 0.027608 0.430388
C8    C     C_R   0.371525 0.956670 0.412449 -0.336902
C9    C     C_R   0.384573 0.839983 0.420221 0.045539
C10   C     C_R   0.557241 0.856996 0.536067 -0.049094
C11   C     C_R   0.547123 0.974870 0.531426 0.090259
C12   C     C_3   0.121431 0.500878 0.501503 0.142551
C13   C     C_R   0.453147 0.025145 0.468390 0.092371
C14   C     C_R   0.443321 0.142946 0.463398 -0.045393
C15   C     C_R   0.614195 0.160257 0.581108 0.068116
C16   C     C_R   0.491660 0.477821 0.299120 0.920896
C17   C     C_R   0.627922 0.043476 0.588220 -0.326180
C18   C     C_R   0.257682 0.500019 0.499180 0.881930
C19   C     C_3   0.931169 0.465300 0.612489 0.176463
C20   C     C_3   0.078707 0.465143 0.609947 0.195784
C21   C     C_3   0.933875 0.418999 0.412651 -0.461727
C22   C     C_3   0.919453 0.619451 0.479032 -0.454216
C23   C     C_3   0.077899 0.416891 0.414335 -0.531681
C24   C     C_3   0.878937 0.500525 0.502413 0.123447
C25   C     C_3   0.061981 0.620249 0.481729 -0.373575
C26   C     C_R   0.462187 0.463568 0.187888 -0.150702
C27   C     C_R   0.456327 0.534118 0.809962 -0.192426
C28   C     C_R   0.444055 0.648188 0.969926 -0.177695
C29   C     C_R   0.462532 0.638468 0.863252 -0.240958
C30   C     C_R   0.424768 0.439812 0.863233 0.436195
H1    H     H_    0.095708 0.648380 0.405906 0.158066
H2    H     H_    0.320279 0.787500 0.378460 0.124192
H3    H     H_    0.628646 0.816802 0.584299 0.122925
H4    H     H_    0.121122 0.378342 0.619871 0.082119
H5    H     H_    0.903130 0.332604 0.418131 0.193127
H6    H     H_    0.116898 0.330191 0.427836 0.185869
H7    H     H_    0.885460 0.642279 0.400208 0.188646
H8    H     H_    0.877616 0.685895 0.535063 0.182516
H9    H     H_    0.089737 0.682148 0.544294 0.223037
H10   H     H_    0.939890 0.291317 0.582751 0.161614
H11   H     H_    0.923963 0.332256 0.708714 0.171137
H12   H     H_    0.898939 0.447347 0.335857 0.181785
H13   H     H_    0.324867 0.714799 0.138664 0.169169
H14   H     H_    0.301315 0.638884 0.237663 0.166045
H15   H     H_    0.426696 0.207695 0.193477 0.168892
H16   H     H_    0.579624 0.213065 0.154011 0.196673
H17   H     H_    0.433046 0.182676 0.021647 0.319976
H18   H     H_    0.331935 0.365948 0.752923 0.327907
H19   H     H_    0.899269 0.515825 0.768820 0.191158
H20   H     H_    0.911167 0.623372 0.692236 0.219483
H21   H     H_    0.128011 0.494858 0.754664 0.323889
H22   H     H_    0.112852 0.439158 0.336868 0.183956
H23   H     H_    0.452517 0.729853 0.009110 0.160886
H24   H     H_    0.483568 0.712164 0.822891 0.182530
H25   H     H_    0.372283 0.183103 0.414794 0.121468
H26   H     H_    0.676630 0.213134 0.624744 0.152198
H27   H     H_    0.297896 0.992933 0.363767 0.139101
H28   H     H_    0.700948 0.007295 0.637524 0.145800
N1    N     N_R   0.523380 0.207800 0.519350 -0.102113
N2    N     N_R   0.476620 0.792180 0.480650 -0.099570
N3    N     N_3   0.894174 0.352013 0.633713 -0.455003
N4    N     N_3   0.373103 0.661257 0.188917 -0.421194
N5    N     N_3   0.503266 0.257857 0.191569 -0.426494
N6    N     N_3   0.875568 0.544402 0.695227 -0.451033
O1    O     O_R   0.506240 0.421700 0.658830 -0.592229
O2    O     O_3   0.388130 0.343238 0.810966 -0.685435
O3    O     O_3   0.125573 0.536651 0.689861 -0.803751
O4    O     O_R   0.491240 0.609310 0.646410 -0.615719
O5    O     O_R   0.692710 0.406190 0.506230 -0.615011
O6    O     O_R   0.677700 0.593810 0.493810 -0.637750
O7    O     O_R   0.508760 0.390690 0.353590 -0.598110
O8    O     O_R   0.493760 0.578300 0.341170 -0.607924
O9    O     O_R   0.322300 0.406190 0.506190 -0.654022
O10   O     O_R   0.307290 0.593810 0.493770 -0.633142
O11   O     O_3   0.443608 0.242751 0.973279 -0.702138
Zn1   Zn    Zn3+2 0.510020 0.374730 0.508290 0.963241
Zn2   Zn    Zn3+2 0.489980 0.625270 0.491710 0.949140

loop_
_geom_bond_atom_site_label_1
_geom_bond_atom_site_label_2
_ccdc_geom_bond_type
C25   H1    S    
C8    C13   A    
C27   C29   A    
H20   N6    S    
C20   O3    S    
C19   C20   S    
C16   O8    A    
H11   N3    S    
C4    O6    A    
C14   N1    A    
C12   C23   S    
O1    Zn1   S    
C28   C29   A    
O7    Zn1   S    
C4    C24   S    
C29   H24   S    
C22   H8    S    
C1    O4    A    
C22   C25   S    
O5    Zn1   S    
C9    H2    S    
C11   C17   A    
C2    C7    A    
C8    C9    A    
O10   Zn2   S    
C1    O1    A    
C17   H28   S    
C20   H4    S    
C14   H25   S    
C18   O10   A    
H19   N6    S    
C13   C14   A    
C27   C30   A    
C16   O7    A    
C4    O5    A    
C16   C26   S    
N2    Zn2   S    
C7    O11   S    
H14   N4    S    
C22   H7    S    
H15   N5    S    
H10   N3    S    
C5    C26   A    
C6    N5    S    
C10   N2    A    
O8    Zn2   S    
C8    H27   S    
C19   N6    S    
C12   C20   S    
H21   O3    S    
C30   O2    S    
C18   O9    A    
C21   C23   S    
O9    Zn1   S    
C22   C24   S    
O4    Zn2   S    
C15   C17   A    
C3    C28   A    
C15   N1    A    
C3    C5    A    
C28   H23   S    
C6    C7    A    
C21   H5    S    
C12   C25   S    
H16   N5    S    
C2    C30   A    
C9    N2    A    
C15   H26   S    
C19   C24   S    
H17   O11   S    
C25   H9    S    
C11   C13   A    
C23   H22   S    
C6    C26   A    
C19   N3    S    
C5    N4    S    
C2    C3    A    
C10   H3    S    
C10   C11   A    
C21   H12   S    
C23   H6    S    
C21   C24   S    
C12   C18   S    
C1    C27   S    
H18   O2    S    
N1    Zn1   S    
H13   N4    S    
O6    Zn2   S    
