data_mof_unit_5934.cif
_audit_creation_date              2012-12-11T15:37:33-0500
_audit_creation_method            fapswitch 2.2
_symmetry_space_group_name_H-M    P1
_symmetry_Int_Tables_number       1
_space_group_crystal_system       triclinic
_cell_length_a                    17.530474
_cell_length_b                    24.681242
_cell_length_c                    14.762934
_cell_angle_alpha                 89.996591
_cell_angle_beta                  126.11323
_cell_angle_gamma                 89.969044
_cell_volume                      5160.19383525

loop_
_atom_site_label
_atom_site_type_symbol
_atom_type_description
_atom_site_fract_x
_atom_site_fract_y
_atom_site_fract_z
_atom_type_partial_charge
C1    C     C_R   0.841861 0.648919 0.907749 -0.170783
C2    C     C_3   0.587642 0.500039 0.555548 0.183121
C3    C     C_3   0.067444 0.985766 0.418313 -0.139190
C4    C     C_3   0.923449 0.999307 0.358510 0.178340
C5    C     C_3   0.096592 0.000708 0.535370 0.182888
C6    C     C_R   0.768094 0.244957 0.922509 -0.191037
C7    C     C_R   0.178941 0.772137 0.059584 -0.150566
C8    C     C_R   0.178577 0.227726 0.059309 -0.147043
C9    C     C_R   0.769416 0.755920 0.923419 -0.157104
C10   C     C_R   0.243618 0.769907 0.925728 -0.154071
C11   C     C_R   0.725800 0.257515 0.077575 -0.188056
C12   C     C_R   0.722895 0.741091 0.074197 -0.155982
C13   C     C_R   0.151790 0.348652 0.091068 -0.204479
C14   C     C_R   0.244320 0.230296 0.926560 -0.152318
C15   C     C_R   0.193324 0.727131 0.923089 -0.203353
C16   C     C_R   0.793478 0.289570 0.085782 -0.132864
C17   C     C_R   0.790115 0.708731 0.081845 -0.196222
C18   C     C_R   0.193996 0.273080 0.923918 -0.204114
C19   C     C_R   0.700897 0.212702 0.914715 -0.193567
C20   C     C_R   0.228677 0.815983 0.060894 -0.216311
C21   C     C_R   0.228331 0.183870 0.060597 -0.216594
C22   C     C_R   0.702245 0.788230 0.915725 -0.197341
C23   C     C_R   0.162291 0.728071 0.990798 0.149361
C24   C     C_R   0.151804 0.651316 0.090976 -0.180832
C25   C     C_R   0.813759 0.283246 0.007716 0.190403
C26   C     C_R   0.813119 0.716527 0.006549 0.150985
C27   C     C_R   0.162405 0.271946 0.991043 0.144777
C28   C     C_R   0.679766 0.219329 0.992039 0.150371
C29   C     C_R   0.262244 0.813841 0.995492 0.169162
C30   C     C_R   0.262358 0.186171 0.995699 0.168989
C31   C     C_R   0.679333 0.780615 0.991205 0.149408
C32   C     C_R   0.885379 0.451151 0.456026 -0.168282
C33   C     C_R   0.887320 0.549202 0.363716 -0.169426
C34   C     C_R   0.886981 0.451205 0.363431 -0.161933
C35   C     C_R   0.840780 0.351550 0.907714 -0.224025
C36   C     C_R   0.885713 0.549208 0.456308 -0.163379
C37   C     C_R   0.612672 0.950969 0.635726 -0.165375
C38   C     C_R   0.617302 0.048994 0.545279 -0.160497
C39   C     C_R   0.617366 0.950942 0.545337 -0.159941
C40   C     C_R   0.612600 0.048976 0.635660 -0.164029
C41   C     C_R   0.900213 0.500199 0.326336 0.140456
C42   C     C_R   0.895691 0.500148 0.510306 0.140751
C43   C     C_R   0.608944 0.999968 0.492054 0.140235
C44   C     C_R   0.598626 0.999977 0.672044 0.147264
C45   C     C_R   0.940169 0.351475 0.094194 0.451132
C46   C     C_R   0.312023 0.127503 0.906478 -0.187199
C47   C     C_R   0.056489 0.648698 0.904006 0.518847
C48   C     C_R   0.056499 0.351280 0.904098 0.521196
C49   C     C_R   0.941101 0.648601 0.094499 0.485069
C50   C     C_R   0.409590 0.870408 0.094567 0.533797
C51   C     C_R   0.555683 0.149316 0.904878 0.483512
C52   C     C_R   0.555579 0.850704 0.904764 0.486862
C53   C     C_R   0.409561 0.129528 0.094614 0.533560
C54   C     C_R   0.979629 0.545642 0.247729 -0.107463
C55   C     C_R   0.949215 0.454657 0.693260 -0.090735
C56   C     C_R   0.949246 0.545420 0.693326 -0.091583
C57   C     C_R   0.653472 0.849276 0.090974 -0.195034
C58   C     C_R   0.978962 0.454564 0.247060 -0.164462
C59   C     C_R   0.554969 0.045159 0.308707 -0.057441
C60   C     C_R   0.519919 0.954399 0.751655 -0.107762
C61   C     C_R   0.519919 0.045595 0.751677 -0.106211
C62   C     C_R   0.554939 0.954807 0.308696 -0.057005
C63   C     C_R   0.733070 0.454611 0.711771 -0.125853
C64   C     C_R   0.267983 0.545175 0.248599 -0.117799
C65   C     C_R   0.268012 0.454777 0.248643 -0.129654
C66   C     C_R   0.733037 0.545441 0.711781 -0.129534
C67   C     C_R   0.239194 0.955188 0.698586 -0.127669
C68   C     C_R   0.653533 0.150598 0.091146 -0.190695
C69   C     C_R   0.768223 0.044961 0.248485 -0.136539
C70   C     C_R   0.767977 0.954549 0.249237 -0.123217
C71   C     C_R   0.239110 0.045331 0.699678 -0.115771
C72   C     C_R   0.869964 0.677140 0.003035 -0.127115
C73   C     C_R   0.121119 0.320153 0.995448 -0.115036
C74   C     C_R   0.121179 0.679799 0.995299 -0.134658
C75   C     C_R   0.868600 0.323581 0.003192 -0.021429
C76   C     C_R   0.320552 0.144446 0.000859 -0.140935
C77   C     C_R   0.623673 0.820698 0.995478 -0.114582
C78   C     C_R   0.623906 0.179210 0.995758 -0.109768
C79   C     C_R   0.312018 0.872560 0.906395 -0.187888
C80   C     C_R   0.320578 0.855505 0.000757 -0.141221
C81   C     C_R   0.947190 0.500158 0.270921 0.025079
C82   C     C_R   0.931812 0.500069 0.628426 -0.024143
C83   C     C_R   0.573435 0.999975 0.374047 -0.044929
C84   C     C_R   0.551514 0.999990 0.727400 -0.014661
C85   C     C_R   0.678566 0.500039 0.661659 0.022320
C86   C     C_R   0.323351 0.499963 0.274384 0.017347
C87   C     C_R   0.188762 0.000449 0.640552 0.017601
C88   C     C_R   0.823056 0.999541 0.273811 0.026509
C89   C     C_3   0.514872 0.455375 0.520053 -0.164939
C90   C     C_3   0.421423 0.499967 0.367445 0.182571
C91   C     C_3   0.494193 0.544728 0.402802 -0.163443
C92   C     C_3   0.494403 0.455265 0.402957 -0.161855
C93   C     C_3   0.514662 0.544641 0.519900 -0.162204
C94   C     C_3   0.019652 0.964716 0.522025 -0.152745
C95   C     C_3   0.999891 0.035470 0.370984 -0.151903
C96   C     C_3   0.988439 0.949707 0.403392 -0.165668
C97   C     C_3   0.031586 0.050255 0.490236 -0.161514
C98   C     C_3   0.440888 0.499979 0.483433 -0.126929
C99   C     C_3   0.569516 0.500025 0.440564 -0.136495
C100  C     C_3   0.954086 0.014147 0.476443 -0.136619
H1    H     H_    0.790701 0.660812 0.821306 0.128751
H2    H     H_    0.930312 0.413488 0.663979 0.157547
H3    H     H_    0.930338 0.586615 0.664127 0.157587
H4    H     H_    0.966742 0.413100 0.257028 0.130086
H5    H     H_    0.577878 0.085857 0.339388 0.152635
H6    H     H_    0.531277 0.912811 0.741127 0.148344
H7    H     H_    0.531269 0.087189 0.741201 0.148084
H8    H     H_    0.577783 0.914079 0.339354 0.152727
H9    H     H_    0.386013 0.499953 0.498806 0.121774
H10   H     H_    0.625673 0.500050 0.427382 0.119042
H11   H     H_    0.905895 0.025708 0.498876 0.118233
H12   H     H_    0.196392 0.334183 0.176638 0.133142
H13   H     H_    0.117160 0.974268 0.398248 0.119937
H14   H     H_    0.783587 0.240683 0.861804 0.125562
H15   H     H_    0.154871 0.772033 0.112402 0.127110
H16   H     H_    0.154084 0.227709 0.111694 0.133549
H17   H     H_    0.786724 0.761164 0.864547 0.121301
H18   H     H_    0.270984 0.767745 0.876393 0.128075
H19   H     H_    0.710246 0.261844 0.138208 0.124388
H20   H     H_    0.705805 0.735977 0.133286 0.120645
H21   H     H_    0.272094 0.232559 0.877672 0.127814
H22   H     H_    0.885880 0.412427 0.490451 0.115754
H23   H     H_    0.196385 0.665788 0.176514 0.138607
H24   H     H_    0.889141 0.587874 0.330728 0.109049
H25   H     H_    0.888527 0.412539 0.330243 0.112328
H26   H     H_    0.886486 0.587916 0.490953 0.114810
H27   H     H_    0.609836 0.912295 0.667918 0.109017
H28   H     H_    0.617228 0.087707 0.511092 0.115706
H29   H     H_    0.617346 0.912229 0.511194 0.115608
H30   H     H_    0.609694 0.087652 0.667789 0.109198
H31   H     H_    0.059283 0.353730 0.239258 0.308348
H32   H     H_    0.004581 0.704644 0.790821 0.313036
H33   H     H_    0.004831 0.295388 0.790932 0.313072
H34   H     H_    0.789653 0.339648 0.821307 0.133004
H35   H     H_    0.988783 0.706430 0.202861 0.311769
H36   H     H_    0.411974 0.828947 0.207174 0.314507
H37   H     H_    0.503384 0.206854 0.795385 0.312295
H38   H     H_    0.503699 0.793407 0.794860 0.313018
H39   H     H_    0.411713 0.170725 0.207327 0.314603
H40   H     H_    0.715083 0.413118 0.683253 0.100932
H41   H     H_    0.290945 0.586879 0.267439 0.104165
H42   H     H_    0.291004 0.413059 0.267511 0.105901
H43   H     H_    0.715004 0.586955 0.683305 0.100974
H44   H     H_    0.224018 0.913876 0.668451 0.106288
H45   H     H_    0.254819 0.135780 0.820086 0.130395
H46   H     H_    0.791654 0.086568 0.266125 0.107611
H47   H     H_    0.790647 0.912813 0.267139 0.099488
H48   H     H_    0.224699 0.086777 0.670370 0.100965
H49   H     H_    0.525288 0.419173 0.570862 0.115852
H50   H     H_    0.483190 0.580885 0.351638 0.117339
H51   H     H_    0.483568 0.419098 0.351923 0.117478
H52   H     H_    0.524918 0.580851 0.570585 0.116518
H53   H     H_    0.029521 0.935970 0.586034 0.116253
H54   H     H_    0.988829 0.064100 0.306233 0.121923
H55   H     H_    0.968863 0.908668 0.365371 0.114308
H56   H     H_    0.701967 0.835971 0.176951 0.125372
H57   H     H_    0.050280 0.091454 0.527513 0.113779
H58   H     H_    0.182269 0.692231 0.872009 0.136259
H59   H     H_    0.826989 0.320622 0.149956 0.128378
H60   H     H_    0.821913 0.676705 0.144034 0.123623
H61   H     H_    0.183285 0.308108 0.873264 0.135870
H62   H     H_    0.667949 0.181509 0.850839 0.127747
H63   H     H_    0.243062 0.850506 0.114121 0.128814
H64   H     H_    0.242344 0.149205 0.113389 0.129776
H65   H     H_    0.670851 0.820304 0.853647 0.124559
H66   H     H_    0.702067 0.163711 0.177224 0.126862
H67   H     H_    0.254764 0.864515 0.819904 0.130107
H68   H     H_    0.968798 0.587181 0.259003 0.147247
N1    N     N_R   0.892620 0.603790 0.941800 -0.067456
N2    N     N_R   0.047790 0.602400 0.942090 -0.073048
N3    N     N_R   0.047790 0.397600 0.942090 -0.068374
N4    N     N_R   0.952210 0.602400 0.057910 -0.072112
N5    N     N_R   0.452210 0.897600 0.057910 -0.074869
N6    N     N_R   0.547790 0.102400 0.942090 -0.071645
N7    N     N_R   0.547790 0.897600 0.942090 -0.071706
N8    N     N_R   0.452210 0.102400 0.057910 -0.074973
N9    N     N_R   0.026300 0.529110 0.206760 -0.033922
N10   N     N_R   0.973700 0.470890 0.793240 -0.045478
N11   N     N_R   0.973700 0.529110 0.793240 -0.046193
N12   N     N_R   0.107380 0.396210 0.058200 -0.070918
N13   N     N_R   0.026300 0.470890 0.206760 -0.052910
N14   N     N_R   0.526300 0.029110 0.206760 -0.054273
N15   N     N_R   0.473700 0.970890 0.793240 -0.038506
N16   N     N_R   0.473700 0.029110 0.793240 -0.038586
N17   N     N_R   0.526300 0.970890 0.206760 -0.054379
N18   N     N_R   0.818530 0.472270 0.792960 -0.038024
N19   N     N_R   0.181470 0.527730 0.207040 -0.037997
N20   N     N_R   0.181470 0.472270 0.207040 -0.045795
N21   N     N_R   0.818530 0.527730 0.792960 -0.040031
N22   N     N_R   0.318530 0.972270 0.792960 -0.039363
N23   N     N_R   0.107380 0.603790 0.058200 -0.067210
N24   N     N_R   0.681470 0.027730 0.207040 -0.044642
N25   N     N_R   0.681470 0.972270 0.207040 -0.044683
N26   N     N_R   0.318530 0.027730 0.792960 -0.039944
N27   N     N_R   0.892620 0.396210 0.941800 -0.057681
N28   N     N_R   0.392620 0.103790 0.941800 -0.063100
N29   N     N_R   0.607380 0.896210 0.058200 -0.067652
N30   N     N_R   0.607380 0.103790 0.058200 -0.068191
N31   N     N_R   0.392620 0.896210 0.941800 -0.062701
N32   N     N_R   0.952210 0.397600 0.057910 -0.102108
Ni1   Ni    Ni4+2 0.934150 0.565840 0.869060 0.238952
Ni2   Ni    Ni4+2 0.065850 0.434160 0.130940 0.197219
Ni3   Ni    Ni4+2 0.065850 0.565840 0.130940 0.251898
Ni4   Ni    Ni4+2 0.934150 0.434160 0.869060 0.240008
Ni5   Ni    Ni4+2 0.434150 0.065840 0.869060 0.253074
Ni6   Ni    Ni4+2 0.565850 0.934160 0.130940 0.222752
Ni7   Ni    Ni4+2 0.565850 0.065840 0.130940 0.222302
Ni8   Ni    Ni4+2 0.434150 0.934160 0.869060 0.252517
O1    O     O_3   0.004127 0.329052 0.198262 -0.777369
O2    O     O_3   0.993491 0.665661 0.794810 -0.803143
O3    O     O_3   0.993648 0.334369 0.794880 -0.802986
O4    O     O_3   0.005705 0.668313 0.201143 -0.791932
O5    O     O_3   0.455574 0.852317 0.203016 -0.799919
O6    O     O_3   0.489864 0.168090 0.797691 -0.790334
O7    O     O_3   0.489877 0.832090 0.797455 -0.790661
O8    O     O_3   0.455521 0.147589 0.203050 -0.799649

loop_
_geom_bond_atom_site_label_1
_geom_bond_atom_site_label_2
_ccdc_geom_bond_type
C62   C83   A    
N15   Ni8   S    
C59   N14   A    
N10   Ni4   S    
H37   O6    S    
N5    N31   A    
C9    H17   S    
C63   H40   S    
C14   C18   A    
C36   C42   A    
N13   Ni2   S    
C42   C82   S    
C70   C88   A    
C97   C100  S    
C66   C85   A    
C46   C76   A    
C5    C94   S    
C67   N22   A    
C65   C86   A    
C45   N32   A    
C6    C19   A    
C55   H2    S    
C35   C75   A    
C59   H5    S    
C58   N13   A    
C94   H53   S    
C17   C26   A    
N8    Ni7   S    
C59   C83   A    
H36   O5    S    
C13   H12   S    
N12   Ni2   S    
C10   C15   A    
C70   N25   A    
C60   C84   A    
C18   H61   S    
C7    C23   A    
C9    C22   A    
C46   H45   S    
C62   H8    S    
C64   H41   S    
C48   N3    A    
C66   N21   A    
N19   Ni3   S    
N28   Ni5   S    
C33   C36   A    
C43   C83   S    
C35   H34   S    
C2    C85   S    
C68   N30   A    
N14   Ni7   S    
C7    H15   S    
N3    Ni4   S    
C17   H60   S    
C6    H14   S    
N2    Ni1   S    
C91   H50   S    
C4    C88   S    
C12   H20   S    
C22   H65   S    
N7    N29   A    
N11   Ni1   S    
C49   C72   A    
C12   C17   A    
H31   O1    S    
N6    Ni5   S    
N9    Ni3   S    
N5    Ni6   S    
C28   C78   S    
C35   N27   A    
C98   H9    S    
C60   N15   A    
C15   C23   A    
C71   H48   S    
C65   N20   A    
C11   H19   S    
C21   H64   S    
C4    C96   S    
C63   C85   A    
C16   H59   S    
C55   C82   A    
C69   H46   S    
C79   H67   S    
N29   Ni6   S    
C34   C41   A    
N23   Ni3   S    
N7    Ni8   S    
C14   C30   A    
C67   H44   S    
N17   Ni6   S    
C69   N24   A    
C64   C86   A    
C9    C26   A    
C31   C77   S    
C20   C29   A    
C50   N5    A    
C68   C78   A    
C57   H56   S    
H38   O7    S    
N6    N30   A    
C1    C72   A    
C79   N31   A    
C22   C31   A    
N10   N11   A    
H32   O2    S    
C47   C74   A    
C15   H58   S    
C86   C90   S    
C58   C81   A    
C54   H68   S    
N22   N26   A    
C71   N26   A    
C39   C43   A    
C66   H43   S    
C39   H29   S    
C50   O5    S    
N21   Ni1   S    
C99   H10   S    
N2    N23   A    
C24   H23   S    
C45   O1    S    
N16   Ni5   S    
N20   Ni2   S    
C19   H62   S    
C32   C34   A    
C2    C89   S    
N15   N16   A    
C10   H18   S    
C32   H22   S    
C91   C93   S    
C4    C95   S    
C30   C76   S    
C11   C16   A    
C90   C92   S    
C48   O3    S    
C94   C100  S    
H39   O8    S    
C63   N18   A    
C41   C81   S    
C92   H51   S    
C8    C21   A    
C5    C87   S    
N18   Ni4   S    
C26   C72   S    
N8    N28   A    
C89   C92   S    
C94   C96   S    
C19   C28   A    
C52   N7    A    
C3    C96   S    
C69   C88   A    
C62   N17   A    
C71   C87   A    
C51   O6    S    
N22   Ni8   S    
C5    C97   S    
C2    C99   S    
C53   O8    S    
C51   N6    A    
C4    C100  S    
C12   C31   A    
C3    H13   S    
H33   O3    S    
N4    Ni3   S    
C38   C43   A    
N3    N12   A    
C53   C76   A    
C58   H4    S    
C23   C74   S    
C52   C77   A    
C1    H1    S    
C1    N1    A    
C47   N2    A    
C60   H6    S    
N27   N32   A    
C16   C25   A    
C8    C27   A    
N26   Ni5   S    
C40   H30   S    
C61   N16   A    
N25   Ni6   S    
C70   H47   S    
C57   N29   A    
N30   Ni7   S    
C48   C73   A    
C2    C93   S    
C36   H26   S    
C18   C27   A    
C56   H3    S    
C13   C73   A    
C3    C5    S    
C61   C84   A    
C50   C80   A    
C49   N4    A    
C38   H28   S    
C95   C97   S    
C56   C82   A    
N27   Ni4   S    
C13   N12   A    
C21   C30   A    
C67   C87   A    
C54   N9    A    
C44   C84   S    
C89   C98   S    
C45   C75   A    
C95   H54   S    
C91   C99   S    
N24   N25   A    
C57   C77   A    
C51   C78   A    
C33   C41   A    
N19   N20   A    
C37   C39   A    
C38   C40   A    
C65   H42   S    
C20   H63   S    
C10   C29   A    
C24   C74   A    
C90   C91   S    
C29   C80   S    
C11   C28   A    
N18   N21   A    
C34   H25   S    
N9    N13   A    
C49   O4    S    
C89   H49   S    
N31   Ni8   S    
C55   N10   A    
C90   C98   S    
H35   O4    S    
C24   N23   A    
C52   O7    S    
C61   H7    S    
N24   Ni7   S    
C64   N19   A    
C8    H16   S    
N1    Ni1   S    
C79   C80   A    
C6    C25   A    
C37   C44   A    
C40   C44   A    
C96   H55   S    
C53   N8    A    
C100  H11   S    
N32   Ni2   S    
C7    C20   A    
C47   O2    S    
C46   N28   A    
C14   H21   S    
C33   H24   S    
C32   C42   A    
C93   H52   S    
C3    C95   S    
N1    N4    A    
C25   C75   S    
C27   C73   S    
C93   C98   S    
N14   N17   A    
C54   C81   A    
C92   C99   S    
C97   H57   S    
C37   H27   S    
C56   N11   A    
C68   H66   S    
