data_mof_unit_10417.cif
_audit_creation_date              2012-12-10T22:11:05-0500
_audit_creation_method            fapswitch 2.2
_symmetry_space_group_name_H-M    P1
_symmetry_Int_Tables_number       1
_space_group_crystal_system       triclinic
_cell_length_a                    12.11159
_cell_length_b                    12.324612
_cell_length_c                    23.581052
_cell_angle_alpha                 91.972328
_cell_angle_beta                  90.871154
_cell_angle_gamma                 90.366375
_cell_volume                      3517.38265451

loop_
_atom_site_label
_atom_site_type_symbol
_atom_type_description
_atom_site_fract_x
_atom_site_fract_y
_atom_site_fract_z
_atom_type_partial_charge
C1    C     C_R   0.656150 0.998611 0.579313 1.060950
C2    C     C_R   0.343680 0.001366 0.420525 1.063476
C3    C     C_R   0.913319 0.752324 0.159243 0.305395
C4    C     C_R   0.087797 0.250798 0.840100 0.294740
C5    C     C_R   0.078015 0.915597 0.158849 0.295978
C6    C     C_R   0.915152 0.093506 0.835260 0.361833
C7    C     C_R   0.067563 0.837374 0.114383 0.268540
C8    C     C_R   0.919227 0.177299 0.876974 0.316887
C9    C     C_R   0.913876 0.117805 0.162640 0.346884
C10   C     C_R   0.086622 0.880826 0.835664 0.351980
C11   C     C_R   0.933484 0.182524 0.116903 0.268194
C12   C     C_R   0.098581 0.788741 0.866526 0.414216
C13   C     C_R   0.163163 0.930807 0.294352 0.466956
C14   C     C_R   0.838036 0.072841 0.703187 0.453285
C15   C     C_R   0.256452 0.937159 0.329895 0.291020
C16   C     C_R   0.743389 0.063141 0.669190 0.288139
C17   C     C_R   0.794660 0.086060 0.287801 0.449477
C18   C     C_R   0.205958 0.916582 0.711907 0.369926
C19   C     C_R   0.714700 0.079314 0.330393 0.290563
C20   C     C_R   0.285434 0.922061 0.669189 0.347854
C21   C     C_3   0.988613 0.019583 0.248221 0.110073
C22   C     C_3   0.011412 0.984392 0.750535 0.102485
C23   C     C_R   0.648475 0.000379 0.418402 1.104400
C24   C     C_R   0.351567 0.999700 0.581365 1.100423
C25   C     C_R   0.084560 0.018211 0.294547 -0.084648
C26   C     C_R   0.916903 0.985719 0.703478 -0.049300
C27   C     C_R   0.252319 0.002252 0.379317 -0.397168
C28   C     C_R   0.747596 0.997916 0.619937 -0.394382
C29   C     C_R   0.884374 0.010826 0.286138 0.062461
C30   C     C_R   0.116373 0.992187 0.713159 0.007444
C31   C     C_R   0.721547 0.997323 0.369856 -0.145576
C32   C     C_R   0.278669 0.003384 0.629500 -0.161549
C33   C     C_R   0.988575 0.120576 0.210142 -0.024060
C34   C     C_R   0.009599 0.883622 0.789256 -0.067676
C35   C     C_R   0.998943 0.275671 0.125151 -0.361607
C36   C     C_R   0.006701 0.717169 0.869700 -0.427904
C37   C     C_R   0.992977 0.922009 0.202136 0.003286
C38   C     C_R   0.005596 0.083189 0.795270 -0.030853
C39   C     C_R   0.990992 0.752636 0.116787 -0.224948
C40   C     C_R   0.005695 0.253171 0.879983 -0.241864
C41   C     C_R   0.992761 0.663607 0.074523 1.032297
C42   C     C_R   0.006643 0.338990 0.924028 1.055126
C43   C     C_R   0.999374 0.354831 0.081167 1.062145
C44   C     C_R   0.001687 0.642930 0.917149 0.976627
C45   C     C_R   0.084148 0.089190 0.345843 0.295699
C46   C     C_R   0.918310 0.914913 0.652098 0.285415
C47   C     C_R   0.158726 0.065927 0.390814 0.276461
C48   C     C_R   0.842242 0.936312 0.607621 0.294402
C49   C     C_R   0.879487 0.920309 0.322440 0.270577
C50   C     C_R   0.121322 0.081781 0.676149 0.309719
C51   C     C_R   0.799601 0.914777 0.364476 0.329454
C52   C     C_R   0.201013 0.086224 0.634262 0.322438
C53   C     C_R   0.068215 0.207108 0.213806 0.471731
C54   C     C_R   0.929815 0.797186 0.784660 0.461425
C55   C     C_R   0.060403 0.292718 0.175823 0.292028
C56   C     C_R   0.920880 0.721040 0.827883 0.315699
C57   C     C_R   0.902948 0.844505 0.195207 0.441570
C58   C     C_R   0.096118 0.160813 0.802710 0.414229
O1    O     O_R   0.621380 0.090460 0.561410 -0.594260
O2    O     O_R   0.378620 0.909540 0.438590 -0.587985
O3    O     O_R   0.617150 0.909540 0.438590 -0.550460
O4    O     O_R   0.382850 0.090460 0.561410 -0.550768
O5    O     O_R   0.619720 0.093230 0.440890 -0.601947
O6    O     O_R   0.380280 0.906770 0.559110 -0.590939
O7    O     O_R   0.618800 0.906770 0.559110 -0.579193
O8    O     O_R   0.381200 0.093230 0.440890 -0.581854
O9    O     O_R   0.087590 0.627480 0.058790 -0.630867
O10   O     O_R   0.912410 0.372520 0.941210 -0.608251
O11   O     O_R   0.905660 0.383870 0.059980 -0.589633
O12   O     O_R   0.094340 0.616130 0.940020 -0.563168
O13   O     O_R   0.092570 0.390420 0.063230 -0.573870
O14   O     O_R   0.907430 0.609580 0.936770 -0.562644
O15   O     O_R   0.900680 0.620930 0.055550 -0.578834
O16   O     O_R   0.099320 0.379070 0.944450 -0.567621
Zn1   Zn    Zn3+2 0.501730 0.123520 0.501540 1.189088
Zn2   Zn    Zn3+2 0.498270 0.876480 0.498460 1.202210
Zn3   Zn    Zn3+2 0.125690 0.504390 0.002180 1.191865
Zn4   Zn    Zn3+2 0.874310 0.495610 0.997820 1.176126
S1    S     S_3+6 0.135158 0.107127 0.463383 0.103616
O17   O     O_2   0.176057 0.018999 0.500472 -0.333795
O18   O     O_2   0.198903 0.209895 0.477281 -0.193757
O19   O     O_3   0.002356 0.126866 0.479299 -0.435142
H1    H     H_    0.000414 0.132544 0.521249 0.382406
S2    S     S_3+6 0.865041 0.896111 0.534825 0.102681
O20   O     O_2   0.800121 0.794220 0.520559 -0.189129
O21   O     O_2   0.824297 0.985405 0.498473 -0.337869
O22   O     O_3   0.997448 0.875344 0.518151 -0.432825
H2    H     H_    0.999010 0.873006 0.476164 0.384037
O23   O     O_3   0.952493 0.835792 0.314686 -0.763907
H3    H     H_    0.911591 0.766420 0.318105 0.370325
O24   O     O_3   0.048856 0.166894 0.683256 -0.755351
H4    H     H_    0.090267 0.235962 0.679720 0.370649
O25   O     O_3   0.149279 0.210051 0.255512 -0.675405
H5    H     H_    0.214422 0.249964 0.241895 0.403543
O26   O     O_3   0.856914 0.790087 0.739602 -0.658769
H6    H     H_    0.859740 0.714493 0.724030 0.406899
O27   O     O_3   0.800735 0.863847 0.218767 -0.749509
H7    H     H_    0.741847 0.827124 0.195402 0.370983
O28   O     O_3   0.197481 0.144177 0.777758 -0.799045
H8    H     H_    0.257572 0.173668 0.803005 0.375158
S3    S     S_3+6 0.198970 0.000628 0.153172 0.119899
O29   O     O_2   0.171706 0.092478 0.115330 -0.240726
O30   O     O_2   0.245038 0.045601 0.208268 -0.266499
O31   O     O_3   0.302120 0.930807 0.122241 -0.418810
H9    H     H_    0.308433 0.863371 0.143586 0.375205
S4    S     S_3+6 0.795926 0.005049 0.840758 0.106240
O32   O     O_2   0.697717 0.067768 0.861780 -0.196237
O33   O     O_2   0.758524 0.948280 0.786869 -0.219415
O34   O     O_3   0.827111 0.912768 0.889238 -0.578992
H10   H     H_    0.755130 0.887279 0.903265 0.412575
O35   O     O_3   0.825846 0.045891 0.160435 -0.692200
H11   H     H_    0.766646 0.074821 0.135815 0.394946
O36   O     O_3   0.153908 0.967031 0.851534 -0.691778
H12   H     H_    0.208719 0.974113 0.821459 0.403410
O37   O     O_3   0.148260 0.838500 0.260269 -0.724602
H13   H     H_    0.180203 0.775375 0.279495 0.385642
O38   O     O_3   0.854922 0.168631 0.734282 -0.719323
H14   H     H_    0.817945 0.229081 0.715029 0.389281
O39   O     O_3   0.787864 0.169588 0.250707 -0.726048
H15   H     H_    0.709249 0.179645 0.239878 0.365496
O40   O     O_3   0.212480 0.833248 0.749126 -0.744270
H16   H     H_    0.291170 0.820600 0.758819 0.383263
O41   O     O_3   0.798442 0.831110 0.402059 -0.661104
H17   H     H_    0.873103 0.799646 0.405441 0.363705
O42   O     O_3   0.202318 0.169186 0.596226 -0.659454
H18   H     H_    0.127572 0.200278 0.592384 0.361897
S5    S     S_3+6 0.123699 0.420730 0.193522 0.073045
O43   O     O_2   0.234967 0.425465 0.166325 -0.261617
O44   O     O_2   0.053240 0.511236 0.172492 -0.313868
O45   O     O_3   0.139418 0.437611 0.264311 -0.462932
H19   H     H_    0.175359 0.509646 0.270125 0.394452
S6    S     S_3+6 0.800817 0.633995 0.829462 0.092192
O46   O     O_2   0.837849 0.518374 0.834166 -0.305452
O47   O     O_2   0.733883 0.665752 0.880503 -0.249267
O48   O     O_3   0.715664 0.640524 0.772643 -0.481892
H20   H     H_    0.655885 0.587488 0.779385 0.400311
O49   O     O_3   0.843400 0.663726 0.162936 -0.701511
H21   H     H_    0.813577 0.662828 0.201853 0.362633
O50   O     O_3   0.162038 0.336568 0.839190 -0.708252
H22   H     H_    0.192524 0.340488 0.800519 0.368099
O51   O     O_3   0.128961 0.848006 0.066260 -0.615343
H23   H     H_    0.186940 0.791869 0.067791 0.379183
O52   O     O_3   0.837640 0.183836 0.916694 -0.596475
H24   H     H_    0.784069 0.237365 0.902282 0.381590
S7    S     S_3+6 0.891198 0.134423 0.048156 0.103650
O53   O     O_2   0.786699 0.190750 0.031233 -0.226714
O54   O     O_2   0.981226 0.157939 0.007156 -0.263511
O55   O     O_3   0.868731 0.999462 0.047104 -0.512075
H25   H     H_    0.852192 0.979255 0.006843 0.416115
S8    S     S_3+6 0.233659 0.766734 0.896983 0.127890
O56   O     O_2   0.229913 0.784641 0.960217 -0.224259
O57   O     O_2   0.269469 0.652399 0.882973 -0.255126
O58   O     O_3   0.330295 0.850433 0.871916 -0.498925
H26   H     H_    0.399974 0.830080 0.891221 0.405692
S9    S     S_3+6 0.376727 0.861351 0.311649 0.071179
O59   O     O_2   0.478276 0.929225 0.323922 -0.306610
O60   O     O_2   0.381159 0.761015 0.346061 -0.272076
O61   O     O_3   0.374662 0.824288 0.242420 -0.515013
H27   H     H_    0.444329 0.784161 0.236355 0.392162
S10   S     S_3+6 0.622035 0.135322 0.689255 0.079483
O62   O     O_2   0.612191 0.235555 0.655034 -0.276512
O63   O     O_2   0.522072 0.064403 0.678525 -0.306124
O64   O     O_3   0.627938 0.172189 0.758558 -0.459347
H28   H     H_    0.557072 0.209261 0.766095 0.393805
O65   O     O_3   0.632023 0.155651 0.336239 -0.706324
H29   H     H_    0.660680 0.227042 0.324910 0.370074
O66   O     O_3   0.367596 0.845151 0.663544 -0.694998
H30   H     H_    0.337306 0.773596 0.673615 0.381563
S11   S     S_3+6 0.998887 0.208426 0.357914 0.113547
O67   O     O_2   0.065616 0.292476 0.391261 -0.165619
O68   O     O_2   0.957152 0.261919 0.305974 -0.237040
O69   O     O_3   0.887835 0.177329 0.395915 -0.547157
H31   H     H_    0.852930 0.247848 0.405721 0.399456
S12   S     S_3+6 0.006744 0.798424 0.639386 0.071726
O70   O     O_2   0.104453 0.830559 0.605333 -0.277557
O71   O     O_2   0.049637 0.745037 0.691178 -0.292298
O72   O     O_3   0.934726 0.702513 0.601960 -0.454103
H32   H     H_    0.990839 0.651413 0.586950 0.402888

loop_
_geom_bond_atom_site_label_1
_geom_bond_atom_site_label_2
_ccdc_geom_bond_type
C16   C28   A    
C42   O10   A    
O22   H2    S    
C9    O35   S    
O25   H5    S    
C5    C37   A    
C16   S10   S    
C17   C29   A    
S11   O67   D    
O26   H6    S    
O9    Zn3   S    
S2    O22   S    
C47   S1    S    
C19   C31   A    
C24   C32   S    
O27   H7    S    
O41   H17   S    
C39   C41   S    
C29   C49   A    
O65   H29   S    
O7    Zn2   S    
O5    Zn1   S    
O10   Zn4   S    
S2    O21   D    
C1    O1    A    
C2    O2    A    
C23   O5    A    
C21   C33   S    
S4    O32   D    
O52   H24   S    
C22   C38   S    
C51   O41   S    
S12   O70   D    
C32   C52   A    
O14   Zn4   S    
C38   C58   A    
C15   C27   A    
C4    C40   A    
S6    O46   D    
C49   C51   A    
S8    O58   S    
C1    C28   S    
C50   C52   A    
O15   Zn4   S    
C6    C38   A    
C44   O12   A    
C2    C27   S    
C18   C30   A    
C14   C16   A    
C12   C36   A    
C7    O51   S    
C35   C43   S    
C15   S9    S    
C45   C47   A    
C30   C50   A    
C3    C39   A    
C43   O11   A    
S9    O61   S    
C9    C33   A    
S11   O68   D    
C13   C25   A    
O11   Zn4   S    
O1    Zn1   S    
O31   H9    S    
S7    O54   D    
O66   H30   S    
S7    O53   D    
C46   C48   A    
C53   C55   A    
O3    Zn2   S    
C33   C53   A    
C22   C34   S    
C24   O6    A    
C5    S3    S    
C42   O16   A    
O40   H16   S    
C53   O25   S    
S3    O29   D    
C12   S8    S    
O48   H20   S    
O55   H25   S    
C41   O9    A    
S10   O64   S    
O34   H10   S    
C31   C51   A    
O24   H4    S    
C5    C7    A    
C26   C46   A    
C11   S7    S    
C6    C8    A    
C35   C55   A    
O2    Zn2   S    
C14   C26   A    
C48   S2    S    
S10   O63   D    
S5    O44   D    
C36   C56   A    
C1    O7    A    
O28   H8    S    
C52   O42   S    
C14   O38   S    
C57   O27   S    
O16   Zn3   S    
C46   S12   S    
O6    Zn2   S    
C10   C34   A    
C56   S6    S    
S2    O20   D    
O39   H15   S    
S9    O60   D    
C9    C11   A    
S12   O72   S    
C54   O26   S    
C13   O37   S    
C10   O36   S    
C10   C12   A    
C24   O4    A    
O72   H32   S    
C3    O49   S    
C3    C57   A    
S6    O47   D    
C55   S5    S    
C34   C54   A    
S3    O31   S    
C13   C15   A    
O42   H18   S    
S11   O69   S    
S8    O57   D    
O4    Zn1   S    
C36   C44   S    
S5    O43   D    
C25   C45   A    
O13   Zn3   S    
S7    O55   S    
O69   H31   S    
S1    O18   D    
O36   H12   S    
C20   C32   A    
C27   C47   A    
C20   O66   S    
C21   C25   S    
C28   C48   A    
C43   O13   A    
C22   C30   S    
O35   H11   S    
C58   O28   S    
C49   O23   S    
C2    O8    A    
C45   S11   S    
C21   C29   S    
S1    O19   S    
O50   H22   S    
C54   C56   A    
C8    C40   A    
O49   H21   S    
S10   O62   D    
C11   C35   A    
O45   H19   S    
O23   H3    S    
S5    O45   S    
O51   H23   S    
C4    O50   S    
O61   H27   S    
S4    O33   D    
S6    O48   S    
O8    Zn1   S    
C40   C42   S    
C17   C19   A    
C44   O14   A    
C8    O52   S    
C18   C20   A    
S12   O71   D    
O64   H28   S    
C17   O39   S    
C18   O40   S    
C41   O15   A    
S1    O17   D    
C50   O24   S    
C23   O3    A    
C21   C37   S    
S3    O30   D    
O19   H1    S    
C22   C26   S    
C4    C58   A    
S9    O59   D    
C7    C39   A    
S8    O56   D    
C19   O65   S    
O58   H26   S    
O38   H14   S    
C37   C57   A    
O37   H13   S    
C23   C31   S    
C6    S4    S    
O12   Zn3   S    
S4    O34   S    
