data_mof_unit_33479.cif
_audit_creation_date              2012-12-11T15:41:30-0500
_audit_creation_method            fapswitch 2.2
_symmetry_space_group_name_H-M    P1
_symmetry_Int_Tables_number       1
_space_group_crystal_system       triclinic
_cell_length_a                    14.817617
_cell_length_b                    14.956009
_cell_length_c                    15.087697
_cell_angle_alpha                 109.41614
_cell_angle_beta                  110.02578
_cell_angle_gamma                 109.070753
_cell_volume                      2570.63321332

loop_
_atom_site_label
_atom_site_type_symbol
_atom_type_description
_atom_site_fract_x
_atom_site_fract_y
_atom_site_fract_z
_atom_type_partial_charge
C1    C     C_R   0.252764 0.067464 0.974350 -0.117836
C2    C     C_R   0.806916 0.006953 0.097477 -0.153673
C3    C     C_R   0.774972 0.325579 0.323999 0.038753
C4    C     C_R   0.132520 0.696947 0.696012 0.052527
C5    C     C_R   0.502204 0.952600 0.308998 -0.047067
C6    C     C_R   0.497787 0.953264 0.675285 -0.049243
C7    C     C_R   0.499374 0.296685 0.926314 0.076054
C8    C     C_R   0.506371 0.677151 0.956548 0.054137
C9    C     C_R   0.205939 0.091412 0.589557 -0.171523
C10   C     C_R   0.814243 0.797665 0.271754 -0.169091
C11   C     C_R   0.303408 0.190883 0.665173 -0.180529
C12   C     C_R   0.717528 0.710608 0.176742 -0.175192
C13   C     C_R   0.303872 0.276181 0.741734 0.033398
C14   C     C_R   0.715846 0.671051 0.077453 0.014124
C15   C     C_R   0.203856 0.261602 0.740506 0.083069
C16   C     C_R   0.814136 0.716110 0.074499 0.085905
C17   C     C_R   0.105100 0.159210 0.664504 0.185666
C18   C     C_R   0.913322 0.802816 0.172350 0.184774
C19   C     C_R   0.107851 0.075512 0.589495 -0.163366
C20   C     C_R   0.911082 0.843826 0.269460 -0.177453
C21   C     C_R   0.418284 0.478461 0.836938 -0.200135
C22   C     C_R   0.606276 0.477324 0.957890 -0.209223
C23   C     C_R   0.749638 0.223175 0.313640 -0.119558
C24   C     C_R   0.195920 0.790785 0.699515 -0.129551
C25   C     C_R   0.514279 0.577502 0.921536 0.038913
C26   C     C_R   0.504467 0.380895 0.895232 0.021669
C27   C     C_R   0.611964 0.576198 0.978732 0.086822
C28   C     C_R   0.410522 0.378883 0.824944 0.079330
C29   C     C_R   0.873637 0.527718 0.426412 -0.166127
C30   C     C_R   0.963515 0.522404 0.618791 -0.172744
C31   C     C_R   0.965311 0.620680 0.519576 -0.171125
C32   C     C_R   0.871797 0.429443 0.525522 -0.168760
C33   C     C_R   0.017230 0.615015 0.613059 0.141985
C34   C     C_R   0.834631 0.428734 0.426298 0.142205
C35   C     C_R   0.423851 0.967701 0.515215 -0.160460
C36   C     C_R   0.570003 0.917673 0.459421 -0.163963
C37   C     C_R   0.429354 0.972824 0.428647 -0.207932
C38   C     C_R   0.565600 0.913884 0.548265 -0.173645
C39   C     C_R   0.501136 0.946729 0.400369 0.148254
C40   C     C_R   0.492342 0.939016 0.575305 0.178422
C41   C     C_R   0.139598 0.073026 0.165291 -0.174708
C42   C     C_R   0.034919 0.159025 0.055830 -0.168356
C43   C     C_R   0.047618 0.075059 0.168446 -0.171196
C44   C     C_R   0.126315 0.156870 0.052807 -0.162004
C45   C     C_R   0.409677 0.911476 0.211902 0.176730
C46   C     C_R   0.591274 0.030421 0.776401 0.196415
C47   C     C_R   0.987987 0.107064 0.103679 0.134023
C48   C     C_R   0.170329 0.101656 0.096300 0.138786
C49   C     C_R   0.590875 0.295415 0.990995 -0.136993
C50   C     C_R   0.410825 0.685069 0.938896 -0.129562
C51   C     C_R   0.593565 0.006619 0.304799 -0.170432
C52   C     C_R   0.406428 0.932983 0.687159 -0.173628
C53   C     C_R   0.407888 0.207075 0.902185 -0.150459
C54   C     C_R   0.595031 0.781572 0.025439 -0.119493
C55   C     C_R   0.748396 0.314119 0.221631 -0.126650
C56   C     C_R   0.196553 0.698635 0.788904 -0.153293
C57   C     C_R   0.252321 0.976621 0.065976 -0.138559
C58   C     C_R   0.805990 0.098226 0.008272 -0.153354
C59   C     C_R   0.227738 0.054596 0.051537 0.032773
C60   C     C_R   0.871321 0.070449 0.070280 0.048652
H1    H     H_    0.243775 0.120852 0.942783 0.096404
H2    H     H_    0.836039 0.984001 0.157818 0.098097
H3    H     H_    0.206534 0.025949 0.531233 0.119519
H4    H     H_    0.814247 0.829463 0.347539 0.129307
H5    H     H_    0.379217 0.201127 0.665082 0.133395
H6    H     H_    0.643031 0.674780 0.179870 0.135530
H7    H     H_    0.346394 0.478761 0.785759 0.125958
H8    H     H_    0.680773 0.480754 0.008089 0.123355
H9    H     H_    0.841839 0.531961 0.352796 0.113331
H10   H     H_    0.997111 0.517237 0.691587 0.107957
H11   H     H_    0.000451 0.692804 0.513899 0.109425
H12   H     H_    0.838257 0.356209 0.530001 0.110241
H13   H     H_    0.370385 0.991834 0.538481 0.113818
H14   H     H_    0.626286 0.898685 0.437047 0.119104
H15   H     H_    0.378932 0.998929 0.384596 0.119388
H16   H     H_    0.620237 0.894279 0.597071 0.113003
H17   H     H_    0.178999 0.039190 0.208073 0.126762
H18   H     H_    0.995546 0.190906 0.010237 0.110881
H19   H     H_    0.761997 0.202477 0.377030 0.093750
H20   H     H_    0.167744 0.823700 0.648878 0.086417
H21   H     H_    0.018142 0.042475 0.213262 0.125970
H22   H     H_    0.153154 0.187298 0.005619 0.109396
H23   H     H_    0.675673 0.342201 0.013283 0.087371
H24   H     H_    0.325913 0.619390 0.888620 0.105234
H25   H     H_    0.678826 0.036406 0.362012 0.111741
H26   H     H_    0.320479 0.883002 0.623375 0.116268
H27   H     H_    0.322154 0.175276 0.846104 0.123870
H28   H     H_    0.680261 0.809163 0.049067 0.114067
H29   H     H_    0.757685 0.376469 0.199089 0.095723
H30   H     H_    0.169301 0.645034 0.818859 0.093811
H31   H     H_    0.241365 0.946137 0.118923 0.123764
H32   H     H_    0.835734 0.163351 0.992157 0.110518
H33   H     H_    0.033251 0.997436 0.530438 0.119952
H34   H     H_    0.984920 0.912475 0.343711 0.127693
N1    N     N_R   0.293810 0.002730 0.945950 -0.039545
N2    N     N_R   0.706190 0.997270 0.054050 -0.039520
N3    N     N_R   0.706160 0.152130 0.208910 -0.038116
N4    N     N_R   0.293840 0.847870 0.791090 -0.036071
N5    N     N_R   0.443140 0.945920 0.152090 -0.048108
N6    N     N_R   0.556860 0.054080 0.847910 -0.052995
N7    N     N_R   0.556830 0.208940 0.002760 -0.038877
N8    N     N_R   0.443170 0.791060 0.997240 -0.038323
N9    N     N_R   0.556790 0.002750 0.208910 -0.048451
N10   N     N_R   0.443210 0.997250 0.791090 -0.047475
N11   N     N_R   0.443180 0.152110 0.945950 -0.040178
N12   N     N_R   0.556820 0.847890 0.054050 -0.041892
N13   N     N_R   0.706170 0.208950 0.152090 -0.040031
N14   N     N_R   0.293830 0.791050 0.847910 -0.037808
N15   N     N_R   0.293800 0.945910 0.002760 -0.041204
N16   N     N_R   0.706200 0.054090 0.997240 -0.041333
Ni1   Ni    Ni4+2 0.369690 0.999990 0.869700 0.213854
Ni2   Ni    Ni4+2 0.630310 0.000010 0.130300 0.213475
Ni3   Ni    Ni4+2 0.369670 0.869670 0.000000 0.211426
Ni4   Ni    Ni4+2 0.630330 0.130330 0.000000 0.205644
N17   N     N_2   0.205074 0.349095 0.817820 -0.115495
H35   H     H_    0.143997 0.366763 0.786142 0.147471
C61   C     C_3   0.221682 0.347655 0.917327 -0.931394
H36   H     H_    0.148372 0.277807 0.900557 0.244695
H37   H     H_    0.233243 0.424605 0.976375 0.252751
H38   H     H_    0.296835 0.341626 0.954534 0.258313
N18   N     N_2   0.810049 0.677227 0.972461 -0.109368
H39   H     H_    0.837258 0.737460 0.953779 0.159246
C62   C     C_3   0.854342 0.604326 0.952202 -0.908189
H40   H     H_    0.836954 0.570773 0.866938 0.250955
H41   H     H_    0.815221 0.534969 0.963246 0.252218
H42   H     H_    0.945242 0.648303 0.007633 0.247854
N19   N     N_2   0.002955 0.138931 0.662154 -0.115242
H43   H     H_    0.996777 0.206477 0.698770 0.166197
C63   C     C_3   0.958997 0.055545 0.687980 -0.945085
H44   H     H_    0.879632 0.045914 0.683294 0.248433
H45   H     H_    0.018217 0.079084 0.771787 0.249650
H46   H     H_    0.942185 0.975526 0.628976 0.252426
N20   N     N_2   0.014892 0.851231 0.174400 -0.120752
H47   H     H_    0.009322 0.837750 0.100763 0.176092
C64   C     C_3   0.104158 0.842330 0.242286 -0.954684
H48   H     H_    0.180329 0.888870 0.243374 0.242949
H49   H     H_    0.083079 0.755399 0.209553 0.260389
H50   H     H_    0.121954 0.877612 0.327623 0.249308
N21   N     N_2   0.302407 0.825478 0.172488 -0.130257
H51   H     H_    0.295770 0.800808 0.227198 0.180840
C65   C     C_3   0.247329 0.734019 0.064052 -0.954140
H52   H     H_    0.165974 0.673411 0.045068 0.245974
H53   H     H_    0.297780 0.693761 0.058590 0.256846
H54   H     H_    0.231019 0.760844 0.003315 0.263820
N22   N     N_2   0.692085 0.102210 0.790289 -0.112202
H55   H     H_    0.752723 0.080767 0.806717 0.152228
C66   C     C_3   0.727836 0.217502 0.843945 -0.928045
H56   H     H_    0.801464 0.263260 0.840686 0.247401
H57   H     H_    0.750105 0.248550 0.930359 0.235121
H58   H     H_    0.660839 0.232002 0.801935 0.261681

loop_
_geom_bond_atom_site_label_1
_geom_bond_atom_site_label_2
_ccdc_geom_bond_type
C64   H50   S    
N5    N9    A    
C8    C25   S    
C58   N16   A    
C3    C23   A    
C66   H56   S    
N6    N10   A    
C51   H25   S    
C58   H32   S    
N22   H55   S    
C50   H24   S    
C64   H48   S    
C32   H12   S    
N12   Ni2   S    
N2    Ni2   S    
C7    C26   S    
C21   C25   A    
C11   C13   A    
C24   N4    A    
C35   C37   A    
C44   H22   S    
C1    C59   A    
C41   H17   S    
C4    C24   A    
C2    C60   A    
C57   C59   A    
C46   N22   S    
C51   N9    A    
N17   H35   S    
C45   N21   S    
N4    N14   A    
C18   N20   S    
C64   H49   S    
C56   N14   A    
C46   N6    A    
N22   C66   S    
C47   C60   S    
C3    C55   A    
C24   H20   S    
C57   N15   A    
C10   C20   A    
N17   C61   S    
C31   C33   A    
C13   C28   S    
C14   C27   S    
C35   H13   S    
N16   Ni4   S    
C18   C20   A    
C19   H33   S    
N15   Ni3   S    
C63   H46   S    
C56   H30   S    
N11   Ni1   S    
C38   C40   A    
N2    N16   A    
C4    C56   A    
N7    Ni4   S    
C41   C43   A    
C6    C46   A    
C42   C44   A    
C30   H10   S    
C9    C19   A    
C29   H9    S    
N7    N11   A    
C54   N12   A    
C62   H40   S    
C66   H58   S    
N6    Ni4   S    
C7    C49   A    
C45   N5    A    
C61   H38   S    
C8    C54   A    
N3    Ni2   S    
C17   N19   S    
C62   H42   S    
C38   H16   S    
C3    C34   S    
C5    C45   A    
C29   C34   A    
C55   N13   A    
N9    Ni2   S    
C65   H53   S    
C32   C34   A    
N14   Ni3   S    
C16   N18   S    
N19   C63   S    
N13   Ni4   S    
C2    N2    A    
C1    N1    A    
C53   H27   S    
C44   C48   A    
C9    C11   A    
C22   H8    S    
N18   H39   S    
C10   C12   A    
C16   C18   A    
C23   N3    A    
C21   C28   A    
C12   C14   A    
C42   H18   S    
C22   C27   A    
C13   C15   A    
N1    N15   A    
N20   H47   S    
C43   H21   S    
C14   C16   A    
C65   H54   S    
C7    C53   A    
N19   H43   S    
C8    C50   A    
C48   C59   S    
C63   H44   S    
C15   C17   A    
C5    C39   S    
C20   H34   S    
C4    C33   S    
C36   H14   S    
N4    Ni1   S    
C57   H31   S    
C30   C33   A    
C66   H57   S    
C9    H3    S    
C36   C39   A    
C10   H4    S    
C43   C47   A    
C1    H1    S    
N5    Ni3   S    
N10   Ni1   S    
N21   H51   S    
C50   N8    A    
C25   C27   A    
C6    C40   S    
C26   C28   A    
C23   H19   S    
C54   H28   S    
C61   H37   S    
C35   C40   A    
C37   C39   A    
N8    Ni3   S    
N1    Ni1   S    
C65   H52   S    
C36   C38   A    
C30   C32   A    
N21   C65   S    
C49   H23   S    
C12   H6    S    
C52   H26   S    
C17   C19   A    
C41   C48   A    
C52   N10   A    
N8    N12   A    
C15   N17   S    
C42   C47   A    
C37   H15   S    
C55   H29   S    
N18   C62   S    
C62   H41   S    
N3    N13   A    
C53   N11   A    
C29   C31   A    
C22   C26   A    
N20   C64   S    
C5    C51   A    
C6    C52   A    
C61   H36   S    
C58   C60   A    
C21   H7    S    
C11   H5    S    
C49   N7    A    
C2    H2    S    
C31   H11   S    
C63   H45   S    
