data_mof_unit_53574.cif
_audit_creation_date              2012-12-11T16:43:12-0500
_audit_creation_method            fapswitch 2.2
_symmetry_space_group_name_H-M    P1
_symmetry_Int_Tables_number       1
_space_group_crystal_system       triclinic
_cell_length_a                    6.922833
_cell_length_b                    23.294158
_cell_length_c                    25.823622
_cell_angle_alpha                 104.81976
_cell_angle_beta                  90.039739
_cell_angle_gamma                 90.566466
_cell_volume                      4025.61221007

loop_
_atom_site_label
_atom_site_type_symbol
_atom_type_description
_atom_site_fract_x
_atom_site_fract_y
_atom_site_fract_z
_atom_type_partial_charge
O1    O     O_R   0.505750 0.453350 0.547660 -0.539176
O2    O     O_R   0.170990 0.432220 0.437590 -0.541385
O3    O     O_R   0.005600 0.546650 0.452340 -0.540301
C1    C     C_R   0.339900 0.415939 0.417012 0.712136
O4    O     O_R   0.175720 0.446240 0.546340 -0.542732
O5    O     O_R   0.010370 0.560770 0.561860 -0.538526
C2    C     C_R   0.344243 0.434185 0.562843 0.691810
O6    O     O_R   0.500990 0.439230 0.438140 -0.539121
O7    O     O_3   0.340820 0.537560 0.504970 -0.369177
V1    V     V_3+5 0.064050 0.493030 0.499080 1.397260
O8    O     O_R   0.680940 0.567780 0.562410 -0.542090
C3    C     C_R   0.850653 0.584571 0.582486 0.712594
O9    O     O_R   0.676210 0.553760 0.453660 -0.543088
C4    C     C_R   0.845432 0.565869 0.437192 0.688132
V2    V     V_3+5 0.564640 0.506970 0.500920 1.396802
O10   O     O_3   0.837740 0.462440 0.495030 -0.367541
C5    C     C_R   0.772008 0.876007 0.115401 -0.160659
H1    H     H_    0.639284 0.888121 0.098866 0.121076
C6    C     C_R   0.760586 0.840346 0.151499 -0.143414
H2    H     H_    0.619663 0.825511 0.161196 0.099865
C7    C     C_R   0.928765 0.823322 0.174106 0.094506
C8    C     C_R   0.108851 0.842706 0.159316 -0.141420
H3    H     H_    0.241227 0.831279 0.176487 0.099137
C9    C     C_R   0.120367 0.878201 0.123039 -0.161365
H4    H     H_    0.261420 0.892608 0.112968 0.117931
C10   C     C_R   0.952032 0.895474 0.100685 -0.055672
C11   C     C_R   0.053922 0.741560 0.212611 -0.151162
H5    H     H_    0.169379 0.733481 0.183466 0.110494
C12   C     C_R   0.042107 0.706315 0.249069 -0.152097
H6    H     H_    0.148836 0.672131 0.246910 0.109225
C13   C     C_R   0.892306 0.714206 0.286986 0.080940
C14   C     C_R   0.754610 0.758344 0.287369 -0.151010
H7    H     H_    0.639156 0.766423 0.316515 0.110681
C15   C     C_R   0.766424 0.793589 0.250910 -0.151861
H8    H     H_    0.659699 0.827774 0.253068 0.109481
C16   C     C_R   0.916246 0.785704 0.212999 0.080944
C17   C     C_R   0.699841 0.657219 0.340716 -0.141653
H9    H     H_    0.567423 0.668631 0.323556 0.099080
C18   C     C_R   0.688439 0.621734 0.377006 -0.161637
H10   H     H_    0.547428 0.607318 0.387097 0.117565
C19   C     C_R   0.856840 0.604482 0.399344 -0.054823
C20   C     C_R   0.036805 0.623963 0.384605 -0.161028
H11   H     H_    0.169577 0.611867 0.401128 0.120747
C21   C     C_R   0.048113 0.659611 0.348496 -0.143465
H12   H     H_    0.188999 0.674455 0.338781 0.099941
C22   C     C_R   0.879876 0.676610 0.325898 0.094504
C23   C     C_R   0.712469 0.645180 0.668960 -0.223205
C24   C     C_R   0.864090 0.634330 0.631536 -0.084256
C25   C     C_R   0.031430 0.670393 0.641765 -0.217594
C26   C     C_R   0.047532 0.716971 0.688473 0.088705
C27   C     C_R   0.896321 0.726908 0.726225 0.052929
C28   C     C_R   0.728657 0.690675 0.716544 0.091568
C29   C     C_R   0.212384 0.753778 0.698164 -0.191176
C30   C     C_R   0.228586 0.799602 0.745170 -0.182232
C31   C     C_R   0.080640 0.809318 0.783467 0.091702
C32   C     C_R   0.912975 0.773086 0.773786 0.053006
C33   C     C_R   0.761766 0.783020 0.811539 0.088510
C34   C     C_R   0.596910 0.746215 0.801847 -0.191180
C35   C     C_R   0.580707 0.700393 0.754840 -0.182007
C36   C     C_R   0.096835 0.854809 0.831055 -0.224073
C37   C     C_R   0.945226 0.865649 0.868482 -0.084544
C38   C     C_R   0.777878 0.829592 0.858249 -0.217280
H13   H     H_    0.583717 0.617363 0.661609 0.123694
H14   H     H_    0.148634 0.662554 0.613056 0.128303
H15   H     H_    0.329640 0.746883 0.669524 0.134347
H16   H     H_    0.357752 0.827199 0.751742 0.135826
H17   H     H_    0.225583 0.882628 0.838409 0.123889
H18   H     H_    0.660679 0.837428 0.886961 0.128683
H19   H     H_    0.479656 0.753109 0.830487 0.134438
H20   H     H_    0.451540 0.672795 0.748268 0.135960
C39   C     C_R   0.603496 0.175872 0.148433 -0.231916
C40   C     C_R   0.454765 0.133354 0.132531 -0.085336
C41   C     C_R   0.286430 0.138160 0.164101 -0.210542
C42   C     C_R   0.265951 0.184288 0.210791 0.086440
C43   C     C_R   0.414271 0.227156 0.226054 0.053168
C44   C     C_R   0.583218 0.223128 0.194633 0.094893
C45   C     C_R   0.099426 0.188289 0.242507 -0.193927
C46   C     C_R   0.079255 0.234642 0.288876 -0.179386
C47   C     C_R   0.224691 0.278078 0.304285 0.093258
C48   C     C_R   0.393512 0.274130 0.272829 0.052329
C49   C     C_R   0.541899 0.316969 0.288147 0.087060
C50   C     C_R   0.708186 0.313050 0.256325 -0.193495
C51   C     C_R   0.728385 0.266671 0.209946 -0.181568
C52   C     C_R   0.204946 0.325049 0.350714 -0.225938
C53   C     C_R   0.354033 0.367404 0.366834 -0.087004
C54   C     C_R   0.521869 0.362878 0.335067 -0.211187
H21   H     H_    0.733182 0.172779 0.124431 0.130139
H22   H     H_    0.171079 0.105536 0.152579 0.126674
H23   H     H_    0.984059 0.155662 0.231316 0.133318
H24   H     H_    0.949085 0.236690 0.312531 0.136943
H25   H     H_    0.075518 0.327924 0.374813 0.128145
H26   H     H_    0.637289 0.395460 0.346688 0.125634
H27   H     H_    0.823527 0.345687 0.267503 0.132661
H28   H     H_    0.858504 0.264620 0.186264 0.134541
C55   C     C_R   0.286673 0.107023 0.871245 -0.192460
H29   H     H_    0.167070 0.077893 0.874565 0.123822
C56   C     C_R   0.267629 0.142848 0.835668 -0.159369
H30   H     H_    0.132838 0.141236 0.814040 0.110779
C57   C     C_R   0.418992 0.180460 0.828430 0.072310
C58   C     C_R   0.589134 0.181867 0.858445 -0.164428
H31   H     H_    0.707869 0.210218 0.852760 0.103056
C59   C     C_R   0.609920 0.147245 0.895618 0.076923
C60   C     C_R   0.456400 0.107925 0.901640 -0.072471
C61   C     C_R   0.487984 0.274921 0.800482 -0.151917
H32   H     H_    0.563435 0.293154 0.837886 0.109163
C62   C     C_R   0.477408 0.309365 0.763432 -0.152636
H33   H     H_    0.546046 0.352800 0.773074 0.112488
C63   C     C_R   0.376921 0.288500 0.714871 0.077998
C64   C     C_R   0.286128 0.232457 0.704350 -0.151710
H34   H     H_    0.209078 0.214975 0.667043 0.112864
C65   C     C_R   0.298815 0.197582 0.741109 -0.149595
H35   H     H_    0.232148 0.153898 0.730849 0.110409
C66   C     C_R   0.400756 0.218180 0.789666 0.088329
C67   C     C_R   0.193918 0.331707 0.649705 -0.144920
H36   H     H_    0.062724 0.310466 0.658659 0.106547
C68   C     C_R   0.185855 0.366992 0.613216 -0.163500
H37   H     H_    0.048544 0.371618 0.594653 0.122087
C69   C     C_R   0.352783 0.395902 0.600958 -0.054288
C70   C     C_R   0.527814 0.388551 0.626173 -0.162126
H38   H     H_    0.659243 0.410101 0.617824 0.120838
C71   C     C_R   0.535290 0.353788 0.663034 -0.145984
H39   H     H_    0.672326 0.348944 0.681658 0.106096
C72   C     C_R   0.368485 0.325009 0.675281 0.092628
O11   O     O_R   0.308350 0.060850 0.061810 -0.540924
O12   O     O_R   0.633860 0.053770 0.953650 -0.541042
O13   O     O_R   0.798960 0.939210 0.938150 -0.537589
C73   C     C_R   0.465658 0.067365 0.938243 0.684939
O14   O     O_R   0.638360 0.067800 0.062400 -0.540053
O15   O     O_R   0.803500 0.953330 0.047670 -0.538972
C74   C     C_R   0.469356 0.084375 0.082741 0.704066
O16   O     O_R   0.303810 0.046730 0.952290 -0.540509
O17   O     O_3   0.468430 0.962490 0.995010 -0.366096
V3    V     V_3+5 0.745300 0.006960 0.000930 1.387906
O18   O     O_R   0.132880 0.946160 0.046390 -0.542246
C75   C     C_R   0.963592 0.934087 0.062840 0.691529
O19   O     O_R   0.128380 0.932130 0.937650 -0.541043
C76   C     C_R   0.958674 0.915395 0.917538 0.713017
V4    V     V_3+5 0.244670 0.992930 0.999140 1.386919
O20   O     O_3   0.971670 0.037510 0.005000 -0.371843
C77   C     C_3   0.795546 0.155572 0.928300 -0.357238
C78   C     C_3   0.760087 0.189174 0.986864 -0.284939
C79   C     C_3   0.948083 0.198737 0.019035 -0.749226
H40   H     H_    0.013136 0.155451 0.019280 0.243567
H41   H     H_    0.052814 0.224901 0.001532 0.221673
H42   H     H_    0.918376 0.223505 0.061011 0.203707
H43   H     H_    0.696735 0.233199 0.988183 0.187012
H44   H     H_    0.656569 0.164474 0.006144 0.188610
H45   H     H_    0.866672 0.112464 0.925242 0.192151
H46   H     H_    0.902571 0.181785 0.911476 0.166327

loop_
_geom_bond_atom_site_label_1
_geom_bond_atom_site_label_2
_ccdc_geom_bond_type
C31   C32   A    
O13   C76   A    
C11   C12   A    
C19   C20   A    
C55   H29   S    
C2    C69   S    
C1    O6    A    
C77   H45   S    
C61   C62   A    
C67   H36   S    
C33   C38   A    
C18   C19   A    
C7    C16   S    
C45   C46   A    
C46   H24   S    
C45   H23   S    
C12   H6    S    
C5    C10   A    
C8    C9    A    
O11   V4    S    
C6    C7    A    
C9    C10   A    
C27   C32   A    
C64   C65   A    
C23   H13   S    
C47   C52   A    
C62   H33   S    
O17   V4    S    
V2    O10   S    
C68   H37   S    
C15   H8    S    
C41   C42   A    
C69   C70   A    
C10   C75   S    
C7    C8    A    
O15   C75   A    
O8    V2    S    
C52   C53   A    
C57   C58   A    
O13   V3    S    
C55   C60   A    
O17   V3    S    
C13   C22   S    
O1    V2    S    
C52   H25   S    
C63   C64   A    
C29   H15   S    
C43   C48   A    
C49   C54   A    
C3    C24   S    
C50   H27   S    
O9    C4    A    
C79   H42   S    
C59   C60   A    
C20   C21   A    
C44   C51   A    
C8    H3    S    
C61   H32   S    
C56   C57   A    
C21   C22   A    
C56   H30   S    
C70   C71   A    
C26   C29   A    
C42   C43   A    
C27   C28   A    
C9    H4    S    
C36   H17   S    
O19   V4    S    
C18   H10   S    
O4    C2    A    
C46   C47   A    
C48   C49   A    
C1    C53   S    
C26   C27   A    
C34   C35   A    
C53   C54   A    
C51   H28   S    
C42   C45   A    
C49   C50   A    
C61   C66   A    
C36   C37   A    
C14   C15   A    
O2    C1    A    
C43   C44   A    
C41   H22   S    
O5    V1    S    
C17   H9    S    
C28   C35   A    
O14   V3    S    
C23   C24   A    
C70   H38   S    
C58   C59   A    
C5    H1    S    
O11   C74   A    
C65   C66   A    
C59   C77   S    
C77   C78   S    
C40   C74   S    
C71   H39   S    
O18   C75   A    
O3    C4    A    
C78   H43   S    
C4    C19   S    
C39   H21   S    
C67   C72   A    
C24   C25   A    
V3    O20   S    
O6    V2    S    
O9    V2    S    
C79   H41   S    
C25   H14   S    
C20   H11   S    
C63   C72   S    
O2    V1    S    
C60   C73   S    
C21   H12   S    
O7    V1    S    
O12   V3    S    
C32   C33   A    
C30   C31   A    
O15   V3    S    
C65   H35   S    
O1    C2    A    
C13   C14   A    
C40   C41   A    
O14   C74   A    
O18   V4    S    
C67   C68   A    
O8    C3    A    
C55   C56   A    
C34   H19   S    
C29   C30   A    
C23   C28   A    
C30   H16   S    
C11   C16   A    
C38   H18   S    
C14   H7    S    
C6    H2    S    
O7    V2    S    
O4    V1    S    
C12   C13   A    
O16   V4    S    
V1    O10   S    
C78   C79   S    
O5    C3    A    
C37   C76   S    
C33   C34   A    
C39   C44   A    
C62   C63   A    
O3    V1    S    
C58   H31   S    
C5    C6    A    
C68   C69   A    
C15   C16   A    
C37   C38   A    
C73   O16   A    
C71   C72   A    
V4    O20   S    
C78   H44   S    
C35   H20   S    
C47   C48   A    
C39   C40   A    
C17   C18   A    
C25   C26   A    
C64   H34   S    
C11   H5    S    
O12   C73   A    
C79   H40   S    
O19   C76   A    
C54   H26   S    
C50   C51   A    
C17   C22   A    
C31   C36   A    
C77   H46   S    
C57   C66   S    
