data_mof_unit_9736.cif
_audit_creation_date              2012-12-11T14:14:00-0500
_audit_creation_method            fapswitch 2.2
_symmetry_space_group_name_H-M    P1
_symmetry_Int_Tables_number       1
_space_group_crystal_system       triclinic
_cell_length_a                    17.018803
_cell_length_b                    7.241995
_cell_length_c                    17.015841
_cell_angle_alpha                 89.998656
_cell_angle_beta                  99.5508
_cell_angle_gamma                 90.002752
_cell_volume                      2068.1342696

loop_
_atom_site_label
_atom_site_type_symbol
_atom_type_description
_atom_site_fract_x
_atom_site_fract_y
_atom_site_fract_z
_atom_type_partial_charge
O1    O     O_R   0.414560 0.494370 0.416770 -0.540804
O2    O     O_R   0.585440 0.994370 0.583230 -0.541119
O3    O     O_R   0.578370 0.819590 0.429320 -0.517214
O4    O     O_R   0.421630 0.319590 0.570680 -0.518166
C1    C     C_R   0.604348 0.654343 0.413511 0.778075
C2    C     C_R   0.395677 0.154342 0.586605 0.780522
O5    O     O_R   0.414740 0.823790 0.407360 -0.533823
O6    O     O_R   0.585260 0.323790 0.592640 -0.533187
O7    O     O_R   0.420650 0.998510 0.561120 -0.551307
O8    O     O_R   0.579350 0.498510 0.438880 -0.550844
C3    C     C_R   0.388506 0.655276 0.384897 0.649111
C4    C     C_R   0.611506 0.155279 0.615094 0.650865
O9    O     O_3   0.502130 0.662240 0.550470 -0.376970
O10   O     O_3   0.497870 0.162240 0.449530 -0.376353
V1    V     V_3+5 0.499600 0.935390 0.490640 1.465936
V2    V     V_3+5 0.500400 0.435390 0.509360 1.465615
C5    C     C_2   0.792042 0.270168 0.778359 0.521621
C6    C     C_2   0.208052 0.770180 0.221558 0.522147
C7    C     C_2   0.827281 0.114291 0.811332 -0.394351
C8    C     C_2   0.172747 0.614310 0.188644 -0.394327
H1    H     H_    0.812049 0.982929 0.781833 0.135693
H2    H     H_    0.187939 0.482972 0.218181 0.135704
C9    C     C_2   0.737509 0.260138 0.699581 0.226418
C10   C     C_2   0.262552 0.760173 0.300356 0.227393
C11   C     C_2   0.673297 0.144602 0.688022 0.063167
C12   C     C_2   0.326744 0.644601 0.311949 0.060112
C13   C     C_R   0.332990 0.136019 0.637699 -0.148753
C14   C     C_R   0.666712 0.635858 0.362206 -0.147682
C15   C     C_R   0.165049 0.131442 0.861323 -0.145559
C16   C     C_R   0.834665 0.631703 0.138538 -0.148162
C17   C     C_R   0.280475 0.298841 0.831390 -0.159940
C18   C     C_R   0.722236 0.806664 0.171029 -0.171491
C19   C     C_R   0.225621 0.262202 0.881602 -0.217255
C20   C     C_R   0.777298 0.770989 0.121022 -0.211110
C21   C     C_R   0.160145 0.034078 0.788782 0.424853
C22   C     C_R   0.837141 0.527724 0.209171 0.424338
C23   C     C_R   0.218090 0.065432 0.738206 -0.093292
C24   C     C_R   0.779041 0.558928 0.259625 -0.088993
C25   C     C_R   0.276851 0.205986 0.758194 -0.060163
C26   C     C_R   0.720912 0.701047 0.240170 -0.057500
C27   C     C_R   0.332526 0.245373 0.705985 0.292442
C28   C     C_R   0.663633 0.736432 0.291051 0.283348
C29   C     C_R   0.276032 0.995904 0.619715 -0.325211
C30   C     C_R   0.723909 0.496435 0.380426 -0.316677
C31   C     C_R   0.219564 0.958634 0.668754 0.470688
C32   C     C_R   0.777838 0.453211 0.329444 0.463946
H3    H     H_    0.275376 0.912604 0.566693 0.155553
H4    H     H_    0.725743 0.416002 0.434422 0.154303
H5    H     H_    0.326369 0.399059 0.851837 0.137874
H6    H     H_    0.681923 0.921033 0.155155 0.134301
H7    H     H_    0.230320 0.338207 0.937057 0.139642
H8    H     H_    0.775724 0.855827 0.068312 0.143088
O11   O     O_R   0.920750 0.773600 0.061260 -0.545375
O12   O     O_R   0.079250 0.273600 0.938740 -0.545201
O13   O     O_R   0.085340 0.439850 0.092570 -0.546120
O14   O     O_R   0.914660 0.939850 0.907430 -0.545531
C33   C     C_R   0.110962 0.608652 0.115888 0.736347
C34   C     C_R   0.889050 0.108649 0.884102 0.737227
O15   O     O_R   0.921720 0.444130 0.070790 -0.519882
O16   O     O_R   0.078280 0.944130 0.929210 -0.520430
O17   O     O_R   0.914480 0.269530 0.916840 -0.503626
O18   O     O_R   0.085520 0.769530 0.083160 -0.503390
C35   C     C_R   0.896306 0.613458 0.086392 0.705160
C36   C     C_R   0.103594 0.113442 0.913563 0.706880
O19   O     O_3   0.997840 0.601520 0.949550 -0.368050
O20   O     O_3   0.002160 0.101520 0.050450 -0.368116
V3    V     V_3+5 0.000400 0.328340 0.009360 1.521422
V4    V     V_3+5 0.999600 0.828340 0.990640 1.522535
O21   O     O_3   0.816824 0.440771 0.811176 -0.537844
C37   C     C_3   0.751140 0.559956 0.810737 -0.161178
H9    H     H_    0.700611 0.490063 0.832689 0.112732
H10   H     H_    0.731414 0.618859 0.750418 0.183479
H11   H     H_    0.770086 0.676912 0.851617 0.152159
O22   O     O_3   0.183372 0.940770 0.188656 -0.537640
C38   C     C_3   0.249103 0.059873 0.189180 -0.163801
H12   H     H_    0.299677 0.989871 0.167361 0.109714
H13   H     H_    0.268727 0.118881 0.249496 0.183837
H14   H     H_    0.230256 0.176769 0.148233 0.152233
O23   O     O_3   0.099126 0.907934 0.768124 -0.534229
C39   C     C_3   0.032601 0.001401 0.725524 -0.115756
H15   H     H_    0.046822 0.065613 0.670119 0.143954
H16   H     H_    0.009536 0.107952 0.762915 0.080787
H17   H     H_    0.984168 0.899702 0.707764 0.163891
O24   O     O_3   0.896383 0.396659 0.228564 -0.534874
C40   C     C_3   0.964219 0.483569 0.272121 -0.109409
H18   H     H_    0.950769 0.547919 0.327802 0.143150
H19   H     H_    0.989293 0.588811 0.235620 0.078574
H20   H     H_    0.010874 0.377466 0.289486 0.163994
O25   O     O_3   0.754307 0.380578 0.641299 -0.644165
H21   H     H_    0.731562 0.331836 0.588000 0.272249
O26   O     O_3   0.245737 0.880648 0.358616 -0.643981
H22   H     H_    0.268449 0.831922 0.411928 0.272700
O27   O     O_3   0.662400 0.024023 0.748431 -0.671144
H23   H     H_    0.611093 0.958330 0.732699 0.297720
O28   O     O_3   0.337653 0.524006 0.251555 -0.672810
H24   H     H_    0.388963 0.458337 0.267300 0.295870
O29   O     O_3   0.389120 0.382956 0.721671 -0.640689
H25   H     H_    0.364923 0.489640 0.744971 0.273550
O30   O     O_3   0.602959 0.863472 0.272108 -0.647421
H26   H     H_    0.583435 0.857063 0.214078 0.282811
O31   O     O_3   0.164641 0.819502 0.646719 -0.530161
C41   C     C_3   0.200803 0.648446 0.669989 -0.145678
H27   H     H_    0.223745 0.644688 0.735196 0.131277
H28   H     H_    0.249381 0.616610 0.635685 0.113217
H29   H     H_    0.155320 0.538031 0.656992 0.163368
O32   O     O_3   0.831298 0.310854 0.350585 -0.535877
C42   C     C_3   0.792745 0.142398 0.327345 -0.121838
H30   H     H_    0.769335 0.140301 0.262247 0.142864
H31   H     H_    0.743930 0.114286 0.361853 0.126186
H32   H     H_    0.836750 0.028761 0.339890 0.157825

loop_
_geom_bond_atom_site_label_1
_geom_bond_atom_site_label_2
_ccdc_geom_bond_type
C11   O27   S    
O27   H23   S    
O28   H24   S    
O1    C3    A    
O2    C4    A    
C2    O7    A    
O29   H25   S    
C33   O18   A    
C25   C27   A    
C40   H18   S    
O5    C3    A    
O31   C41   S    
C6    C10   S    
C21   C23   A    
C10   C12   D    
O32   C42   S    
C15   C19   A    
C41   H29   S    
C21   O23   S    
O11   V4    S    
C13   C27   A    
O15   V3    S    
C2    C13   S    
C17   C25   A    
C42   H30   S    
C17   C19   A    
C37   H9    S    
C34   O17   A    
O5    V1    S    
O20   V3    S    
C15   C36   S    
C6    O22   S    
C16   C35   S    
C42   H31   S    
O21   C37   S    
C17   H5    S    
C39   H17   S    
C30   C32   A    
C40   H19   S    
C7    C34   S    
O22   C38   S    
C16   C20   A    
O24   C40   S    
C39   H16   S    
O26   H22   S    
O12   V3    S    
C3    C12   S    
O14   V4    S    
C14   C30   A    
C18   C20   A    
O4    V2    S    
C38   H12   S    
C1    C14   S    
C29   C31   A    
O17   V3    S    
C26   C28   A    
O30   H26   S    
O6    C4    A    
O19   V4    S    
C37   H11   S    
C9    O25   S    
O1    V2    S    
C5    C9    S    
C41   H28   S    
O2    V1    S    
C38   H13   S    
C18   H6    S    
C31   O31   S    
O4    C2    A    
C8    H2    S    
O13   C33   A    
C42   H32   S    
C27   O29   S    
C23   C31   A    
C10   O26   S    
O3    V1    S    
C40   H20   S    
C12   O28   S    
C8    C33   S    
C5    O21   S    
C7    H1    S    
C20   H8    S    
C39   H15   S    
O3    C1    A    
O13   V3    S    
C16   C22   A    
C19   H7    S    
C15   C21   A    
O15   C35   A    
O18   V4    S    
C4    C11   S    
O16   C36   A    
C22   C24   A    
O7    V1    S    
C1    O8    A    
C23   C25   A    
O8    V2    S    
C28   O30   S    
C24   C26   A    
O11   C35   A    
O12   C36   A    
C22   O24   S    
C32   O32   S    
C14   C28   A    
C5    C7    D    
O14   C34   A    
C6    C8    D    
C18   C26   A    
C41   H27   S    
C38   H14   S    
C24   C32   A    
O23   C39   S    
C13   C29   A    
C9    C11   D    
O16   V4    S    
O6    V2    S    
O9    V2    S    
O10   V1    S    
C37   H10   S    
O25   H21   S    
C29   H3    S    
C30   H4    S    
