data_mof_unit_51846.cif
_audit_creation_date              2012-12-10T18:57:48-0500
_audit_creation_method            fapswitch 2.2
_symmetry_space_group_name_H-M    P1
_symmetry_Int_Tables_number       1
_space_group_crystal_system       triclinic
_cell_length_a                    10.790851
_cell_length_b                    9.889268
_cell_length_c                    8.908271
_cell_angle_alpha                 89.999066
_cell_angle_beta                  91.007153
_cell_angle_gamma                 89.993933
_cell_volume                      950.486953679

loop_
_atom_site_label
_atom_site_type_symbol
_atom_type_description
_atom_site_fract_x
_atom_site_fract_y
_atom_site_fract_z
_atom_type_partial_charge
C1    C     C_R   0.259984 0.500007 0.500642 1.017024
C2    C     C_R   0.740016 0.499993 0.499358 1.017023
C3    C     C_R   0.499816 0.500002 0.218757 0.914077
C4    C     C_R   0.500184 0.499998 0.781242 0.914077
C5    C     C_1   0.499931 0.499999 0.065411 -0.151692
C6    C     C_1   0.500069 0.500001 0.934589 -0.151691
C7    C     C_R   0.063428 0.376539 0.501180 0.527510
C8    C     C_R   0.936572 0.623460 0.498821 0.527509
C9    C     C_R   0.936608 0.376527 0.498947 0.527588
C10   C     C_R   0.063393 0.623473 0.501054 0.527589
C11   C     C_R   0.872507 0.499998 0.498639 -0.549154
C12   C     C_R   0.127492 0.500002 0.501362 -0.549155
C13   C     C_R   0.575332 0.072094 0.597247 -0.000440
C14   C     C_R   0.424668 0.927906 0.402753 -0.000440
C15   C     C_R   0.424669 0.072112 0.402752 -0.000339
C16   C     C_R   0.575331 0.927887 0.597248 -0.000339
N1    N     N_R   0.500000 0.857200 0.500000 -0.125835
N2    N     N_R   0.500000 0.142800 0.500000 -0.125835
O1    O     O_R   0.316770 0.614620 0.499990 -0.570318
O2    O     O_R   0.683230 0.385380 0.500010 -0.570318
O3    O     O_R   0.683230 0.614620 0.500010 -0.570285
O4    O     O_R   0.316770 0.385380 0.499990 -0.570285
O5    O     O_R   0.500010 0.614640 0.285340 -0.631198
O6    O     O_R   0.499990 0.385360 0.714660 -0.631198
O7    O     O_R   0.499990 0.614640 0.714660 -0.631208
O8    O     O_R   0.500010 0.385360 0.285340 -0.631208
Zn1   Zn    Zn3+2 0.500000 0.653120 0.500000 1.018823
Zn2   Zn    Zn3+2 0.500000 0.346880 0.500000 1.018823
F1    F     F_    0.122200 0.254993 0.503627 -0.573133
F2    F     F_    0.877800 0.745007 0.496375 -0.573133
F3    F     F_    0.877864 0.254993 0.496650 -0.573176
F4    F     F_    0.122136 0.745007 0.503352 -0.573175
C17   C     C_1   0.655033 0.145142 0.700609 0.334583
N3    N     N_1   0.719197 0.202941 0.783989 -0.148620
C18   C     C_1   0.344967 0.854858 0.299391 0.334583
N4    N     N_1   0.280802 0.797059 0.216011 -0.148620
C19   C     C_1   0.344974 0.145180 0.299381 0.334524
N5    N     N_1   0.280814 0.202996 0.215995 -0.148729
C20   C     C_1   0.655026 0.854820 0.700619 0.334524
N6    N     N_1   0.719185 0.797004 0.784005 -0.148729

loop_
_geom_bond_atom_site_label_1
_geom_bond_atom_site_label_2
_ccdc_geom_bond_type
C15   N2    A    
C13   C17   S    
C19   N5    T    
C7    F1    S    
O5    Zn1   S    
O7    Zn1   S    
O1    Zn1   S    
C3    O5    A    
C18   N4    T    
C8    F2    S    
C2    O3    A    
C4    O7    A    
O3    Zn1   S    
C1    O4    A    
O4    Zn2   S    
C9    C11   A    
C14   N1    A    
C5    C6    T    
C1    C12   S    
C10   C12   A    
C13   N2    A    
C8    C11   A    
C2    C11   S    
C8    C10   A    
C17   N3    T    
C7    C12   A    
C4    O6    A    
C1    O1    A    
C9    F3    S    
C16   C20   S    
C2    O2    A    
N1    Zn1   S    
C10   F4    S    
C20   N6    T    
N2    Zn2   S    
C4    C6    S    
C13   C16   A    
C14   C18   S    
C7    C9    A    
C14   C15   A    
C15   C19   S    
O2    Zn2   S    
O8    Zn2   S    
C3    O8    A    
O6    Zn2   S    
C16   N1    A    
C3    C5    S    
