data_mof_unit_49428.cif
_audit_creation_date              2012-12-10T17:53:23-0500
_audit_creation_method            fapswitch 2.2
_symmetry_space_group_name_H-M    P1
_symmetry_Int_Tables_number       1
_space_group_crystal_system       triclinic
_cell_length_a                    23.148794
_cell_length_b                    10.703142
_cell_length_c                    9.940106
_cell_angle_alpha                 88.912505
_cell_angle_beta                  91.235968
_cell_angle_gamma                 94.053036
_cell_volume                      2455.70152365

loop_
_atom_site_label
_atom_site_type_symbol
_atom_type_description
_atom_site_fract_x
_atom_site_fract_y
_atom_site_fract_z
_atom_type_partial_charge
Br1   Br    Br    0.560319 0.145622 0.234624 -0.553233
Br2   Br    Br    0.943141 0.774654 0.129865 -0.416563
Br3   Br    Br    0.240295 0.850392 0.493916 -0.387973
Br4   Br    Br    0.304207 0.255191 0.537697 -0.515377
C1    C     C_R   0.505683 0.261046 0.502479 0.917786
C2    C     C_R   0.125935 0.647687 0.404515 0.591215
C3    C     C_R   0.257296 0.677603 0.494808 0.365052
C4    C     C_R   0.389533 0.500431 0.498913 0.916994
C5    C     C_R   0.314698 0.648683 0.487149 -0.292923
C6    C     C_R   0.328997 0.523913 0.496729 -0.136306
C7    C     C_R   0.285998 0.426511 0.513880 0.214243
C8    C     C_R   0.228399 0.455117 0.517236 -0.148010
C9    C     C_R   0.213846 0.580130 0.508532 0.167522
C10   C     C_R   0.767211 0.482287 0.422461 0.153586
C11   C     C_R   0.707020 0.460167 0.420426 -0.301915
C12   C     C_R   0.975499 0.537568 0.754625 0.126930
C13   C     C_R   0.673382 0.526887 0.505239 -0.052127
C14   C     C_R   0.699686 0.619332 0.590085 0.072813
C15   C     C_R   0.759621 0.642747 0.589963 -0.174003
C16   C     C_R   0.495488 0.738859 0.498758 0.881753
C17   C     C_R   0.793372 0.574260 0.507539 0.289253
C18   C     C_R   0.503696 0.105794 0.761139 -0.157485
C19   C     C_R   0.479083 0.039424 0.870259 -0.178060
C20   C     C_R   0.448054 0.924340 0.850220 0.147900
C21   C     C_R   0.447003 0.871967 0.722481 -0.114648
C22   C     C_R   0.477622 0.933147 0.615215 0.058085
C23   C     C_R   0.035877 0.543539 0.754075 -0.194052
C24   C     C_R   0.498017 0.058025 0.628940 0.068538
C25   C     C_R   0.512803 0.127919 0.509610 -0.189854
C26   C     C_R   0.524587 0.065889 0.390647 0.246916
C27   C     C_R   0.514751 0.938266 0.386555 -0.230363
C28   C     C_R   0.610746 0.504144 0.501379 0.906946
C29   C     C_R   0.491605 0.871819 0.497220 -0.165252
C30   C     C_R   0.417462 0.323570 0.126374 0.127946
C31   C     C_R   0.380652 0.245130 0.043792 0.042194
C32   C     C_R   0.384273 0.252784 0.906727 -0.229549
C33   C     C_R   0.424154 0.336248 0.849201 -0.156777
C34   C     C_R   0.065987 0.581762 0.638361 -0.029825
C35   C     C_R   0.461890 0.417691 0.924539 0.106747
C36   C     C_R   0.460551 0.415307 0.069460 0.151877
C37   C     C_R   0.536352 0.578956 0.071768 -0.105945
C38   C     C_R   0.536282 0.578927 0.929085 -0.105649
C39   C     C_R   0.883320 0.648018 0.406089 0.573913
C40   C     C_R   0.883483 0.560337 0.629292 0.536365
C41   C     C_R   0.944194 0.572955 0.637382 0.001240
C42   C     C_R   0.974573 0.618916 0.522254 -0.094022
C43   C     C_R   0.944251 0.659427 0.405436 -0.093443
C44   C     C_R   0.035548 0.621127 0.522830 -0.014474
C45   C     C_R   0.066083 0.658907 0.406474 -0.074138
C46   C     C_R   0.036265 0.703339 0.293637 -0.182753
C47   C     C_R   0.976200 0.706194 0.292363 0.303175
C48   C     C_R   0.126100 0.577210 0.633805 0.553949
H1    H     H_    0.686673 0.389527 0.354705 0.185883
H2    H     H_    0.424149 0.331785 0.743486 0.244316
H3    H     H_    0.565995 0.643866 0.875883 0.159010
H4    H     H_    0.059635 0.735662 0.204832 0.218973
H5    H     H_    0.348450 0.723726 0.477664 0.164605
H6    H     H_    0.194719 0.380453 0.529298 0.190062
H7    H     H_    0.961704 0.550624 0.953815 0.224881
H8    H     H_    0.958484 0.402784 0.896247 0.199212
H9    H     H_    0.679393 0.680025 0.773215 0.203070
H10   H     H_    0.673581 0.786430 0.646602 0.192556
H11   H     H_    0.424592 0.908408 0.047534 0.188101
H12   H     H_    0.780190 0.713863 0.654691 0.164108
H13   H     H_    0.440302 0.774683 0.976125 0.191407
H14   H     H_    0.412803 0.211112 0.290853 0.218546
H15   H     H_    0.364219 0.320764 0.282635 0.223976
H16   H     H_    0.297627 0.175981 0.065615 0.232952
H17   H     H_    0.347000 0.066704 0.069835 0.213744
H18   H     H_    0.788870 0.423161 0.239984 0.227136
H19   H     H_    0.793520 0.315753 0.365838 0.199690
H20   H     H_    0.529293 0.191305 0.783838 0.190358
H21   H     H_    0.483434 0.079042 0.969685 0.181315
H22   H     H_    0.423048 0.782370 0.708677 0.164541
H23   H     H_    0.527223 0.890682 0.297504 0.192911
H24   H     H_    0.566107 0.643749 0.125400 0.151164
H25   H     H_    0.058930 0.514288 0.844040 0.197319
H26   H     H_    0.356292 0.191800 0.843792 0.211557
N1    N     N_R   0.855007 0.595549 0.514612 -0.358655
N2    N     N_3   0.802035 0.410371 0.340283 -0.426538
N3    N     N_R   0.154379 0.606045 0.516805 -0.341431
N4    N     N_R   0.499460 0.498800 0.142780 -0.098999
N5    N     N_R   0.499440 0.498720 0.857170 -0.120371
N6    N     N_3   0.946655 0.493591 0.874483 -0.351597
N7    N     N_3   0.665483 0.691953 0.673313 -0.440702
N8    N     N_3   0.419415 0.857182 0.959006 -0.437050
N9    N     N_3   0.407553 0.305141 0.265486 -0.341222
N10   N     N_3   0.338717 0.155973 0.102178 -0.438523
O1    O     O_R   0.500000 0.316780 0.614690 -0.666656
O2    O     O_R   0.583850 0.500050 0.614640 -0.594929
O3    O     O_R   0.583840 0.500030 0.385310 -0.602594
O4    O     O_2   0.851939 0.686704 0.299507 -0.485372
O5    O     O_2   0.852663 0.510659 0.733464 -0.510832
O6    O     O_2   0.156090 0.541544 0.744327 -0.525110
O7    O     O_2   0.155269 0.674825 0.290521 -0.514159
O8    O     O_R   0.500000 0.316750 0.385360 -0.559855
O9    O     O_R   0.416160 0.499970 0.614690 -0.631339
O10   O     O_R   0.416150 0.499950 0.385360 -0.603494
O11   O     O_R   0.500000 0.683250 0.614640 -0.622622
O12   O     O_R   0.500000 0.683220 0.385310 -0.625455
Zn1   Zn    Zn3+2 0.500000 0.500020 0.653130 0.948410
Zn2   Zn    Zn3+2 0.500000 0.499980 0.346870 0.989483

loop_
_geom_bond_atom_site_label_1
_geom_bond_atom_site_label_2
_ccdc_geom_bond_type
O8    Zn2   S    
C37   C38   A    
C31   C32   A    
H13   N8    S    
C41   C42   A    
C30   C36   A    
C11   H1    S    
C10   C17   A    
C24   C25   A    
C15   C17   A    
C14   C15   A    
Br3   C3    S    
C26   C27   A    
C28   O3    A    
C34   C48   A    
C23   C34   A    
C39   N1    A    
C9    N3    S    
C12   N6    S    
C3    C5    A    
C30   C31   A    
C4    O10   A    
C40   O5    S    
C28   O2    A    
C19   C20   A    
C27   C29   A    
C48   O6    S    
C10   N2    S    
C5    C6    A    
C34   C44   A    
C8    H6    S    
C12   C23   A    
C2    N3    A    
C18   C24   A    
C19   H21   S    
C18   H20   S    
H19   N2    S    
C13   C14   A    
C1    C25   S    
C21   H22   S    
H10   N7    S    
C42   C44   A    
C14   N7    S    
H18   N2    S    
C36   N4    A    
C20   C21   A    
C6    C7    A    
C35   C36   A    
C43   C47   A    
C21   C22   A    
O10   Zn2   S    
C46   H4    S    
C4    O9    A    
O2    Zn1   S    
C25   C26   A    
C38   H3    S    
C31   N10   S    
C22   C29   A    
C27   H23   S    
C16   O12   A    
C15   H12   S    
C17   N1    S    
O12   Zn2   S    
C46   C47   A    
N4    Zn2   S    
H7    N6    S    
Br4   C7    S    
H17   N10   S    
H9    N7    S    
C16   C29   S    
C44   C45   A    
O11   Zn1   S    
C2    O7    S    
H11   N8    S    
H16   N10   S    
C33   H2    S    
O3    Zn2   S    
H14   N9    S    
C1    O8    A    
C40   C41   A    
C11   C13   A    
C42   C43   A    
C32   C33   A    
N5    Zn1   S    
O1    Zn1   S    
C10   C11   A    
C22   C24   A    
C40   N1    A    
C38   N5    A    
C23   H25   S    
C12   C41   A    
C7    C8    A    
H15   N9    S    
C39   O4    S    
C35   N5    A    
C33   C35   A    
C32   H26   S    
C37   H24   S    
H8    N6    S    
C16   O11   A    
C39   C43   A    
C37   N4    A    
Br1   C26   S    
C5    H5    S    
C30   N9    S    
C2    C45   A    
C48   N3    A    
C1    O1    A    
Br2   C47   S    
C3    C9    A    
C8    C9    A    
C4    C6    S    
C45   C46   A    
C13   C28   S    
C18   C19   A    
C20   N8    S    
O9    Zn1   S    
