data_mof_unit_21985.cif
_audit_creation_date              2012-10-26T19:05:03-0400
_audit_creation_method            fapswitch 2.2
_symmetry_space_group_name_H-M    P1
_symmetry_Int_Tables_number       1
_space_group_crystal_system       triclinic
_cell_length_a                    15.868616
_cell_length_b                    10.778874
_cell_length_c                    9.64334
_cell_angle_alpha                 92.561295
_cell_angle_beta                  89.799071
_cell_angle_gamma                 94.616552
_cell_volume                      1642.45906522

loop_
_atom_site_label
_atom_site_type_symbol
_atom_type_description
_atom_site_fract_x
_atom_site_fract_y
_atom_site_fract_z
_atom_type_partial_charge
C1    C     C_R   0.503010 0.262959 0.496905 0.545458
C2    C     C_R   0.628171 0.098661 0.814765 0.230983
C3    C     C_R   0.580628 0.992260 0.864035 0.238095
C4    C     C_R   0.340417 0.499091 0.500159 0.565067
C5    C     C_R   0.526516 0.917871 0.769147 -0.063698
C6    C     C_R   0.522557 0.950134 0.627865 -0.044648
C7    C     C_R   0.547991 0.073514 0.599816 -0.035292
C8    C     C_R   0.508301 0.129148 0.491341 0.024316
C9    C     C_R   0.460591 0.055739 0.392679 -0.069915
C10   C     C_R   0.455358 0.927345 0.399184 -0.072407
C11   C     C_R   0.487198 0.872367 0.514984 0.011839
C12   C     C_3   0.944742 0.384573 0.567722 -0.220249
C13   C     C_R   0.639726 0.640573 0.137887 0.074916
C14   C     C_R   0.708861 0.679404 0.055372 -0.065686
C15   C     C_R   0.698993 0.688375 0.915417 -0.138076
C16   C     C_R   0.494110 0.737337 0.504355 0.558638
C17   C     C_R   0.623214 0.646252 0.855145 -0.083183
C18   C     C_R   0.561865 0.572008 0.926400 0.139687
C19   C     C_R   0.565198 0.570808 0.076073 0.177028
C20   C     C_R   0.441165 0.430802 0.071427 0.033026
C21   C     C_R   0.441829 0.428896 0.924041 0.100051
C22   C     C_R   0.659423 0.498762 0.499732 0.548137
C23   C     C_3   0.916338 0.494719 0.485945 -0.048786
C24   C     C_3   0.042235 0.393398 0.581708 -0.252857
C25   C     C_3   0.048801 0.466434 0.334893 0.160907
C26   C     C_3   0.951076 0.487445 0.332898 0.153597
C27   C     C_1   0.748861 0.497391 0.498245 0.055390
C28   C     C_3   0.082778 0.495210 0.487490 -0.028993
C29   C     C_1   0.458541 0.835500 0.822173 0.317391
C30   C     C_1   0.648781 0.708853 0.269412 0.324993
C31   C     C_1   0.379565 0.346591 0.850925 0.274198
C32   C     C_3   0.956227 0.617616 0.556743 -0.248720
C33   C     C_3   0.054244 0.622975 0.548101 0.096943
C34   C     C_1   0.824255 0.496028 0.493197 0.022774
C35   C     C_1   0.175111 0.496583 0.495307 0.057194
C36   C     C_1   0.250728 0.497887 0.499577 0.089099
C37   C     C_R   0.608300 0.140587 0.685424 -0.119118
Cu1   Cu    Cu3+1 0.499990 0.499990 0.640660 0.970536
Cu2   Cu    Cu3+1 0.500010 0.500010 0.359340 1.048480
H1    H     H_    0.922099 0.294715 0.514330 0.229160
H2    H     H_    0.767082 0.722887 0.101070 0.166882
H3    H     H_    0.748262 0.735915 0.854909 0.152122
H4    H     H_    0.615846 0.672680 0.751377 0.185298
H5    H     H_    0.081497 0.535592 0.266940 0.170066
H6    H     H_    0.947152 0.582001 0.293030 0.143034
H7    H     H_    0.078804 0.637040 0.656223 0.158614
H8    H     H_    0.936648 0.623296 0.667760 0.137605
H9    H     H_    0.706423 0.378022 0.842328 0.353164
H10   H     H_    0.673421 0.991397 0.206817 0.387427
H11   H     H_    0.041048 0.120639 0.282409 0.392242
H12   H     H_    0.059815 0.416975 0.692006 0.146575
H13   H     H_    0.891822 0.338908 0.990953 0.412768
H14   H     H_    0.092546 0.957902 0.498844 0.386093
H15   H     H_    0.916121 0.385282 0.673341 0.172445
H16   H     H_    0.931567 0.699045 0.507852 0.191405
H17   H     H_    0.427878 0.097617 0.310537 0.178945
H18   H     H_    0.638224 0.227979 0.652067 0.170768
H19   H     H_    0.424180 0.870913 0.315675 0.192021
H20   H     H_    0.393300 0.373674 0.124963 0.141702
H21   H     H_    0.066442 0.301206 0.556733 0.216099
N1    N     N_R   0.500800 0.501210 0.147910 -0.248955
N2    N     N_R   0.500820 0.501290 0.852040 -0.261585
N3    N     N_1   0.403667 0.770183 0.864012 -0.211171
N4    N     N_1   0.661732 0.767355 0.371973 -0.309681
N5    N     N_1   0.329404 0.279879 0.792792 -0.250602
O1    O     O_R   0.499990 0.319640 0.618810 -0.506427
O2    O     O_2   0.778447 0.111717 0.942772 -0.177975
O3    O     O_3   0.746201 0.312810 0.824223 -0.559807
O4    O     O_2   0.538189 0.076424 0.114675 -0.281394
O5    O     O_2   0.527679 0.850248 0.081465 -0.326235
O6    O     O_3   0.676759 0.963961 0.107676 -0.461603
O7    O     O_2   0.069788 0.310965 0.107527 -0.188579
O8    O     O_2   0.169699 0.300507 0.294817 -0.304843
O9    O     O_3   0.019526 0.196128 0.327657 -0.493239
O10   O     O_2   0.869950 0.261345 0.249739 -0.174467
O11   O     O_2   0.799941 0.447907 0.200366 -0.282657
O12   O     O_R   0.500000 0.319660 0.381240 -0.480076
O13   O     O_3   0.927415 0.400020 0.049452 -0.464380
O14   O     O_2   0.191178 0.763044 0.451309 -0.272807
O15   O     O_2   0.060396 0.761758 0.316367 -0.295993
O16   O     O_3   0.069898 0.886363 0.552530 -0.484450
O17   O     O_R   0.379430 0.499990 0.618840 -0.489131
O18   O     O_R   0.379440 0.500020 0.381260 -0.492773
O19   O     O_R   0.500000 0.680340 0.618760 -0.531445
O20   O     O_R   0.500010 0.680360 0.381190 -0.484023
O21   O     O_R   0.620560 0.499980 0.618740 -0.547920
O22   O     O_R   0.620570 0.500010 0.381160 -0.477789
O23   O     O_2   0.671781 0.237765 0.048401 -0.189779
S1    S     S_3+6 0.707074 0.190146 0.913197 0.079252
S2    S     S_3+6 0.578213 0.968194 0.045753 0.026418
S3    S     S_3+6 0.078715 0.316286 0.262628 0.052004
S4    S     S_3+6 0.884157 0.394119 0.208561 0.091087
S5    S     S_3+6 0.096438 0.759360 0.460015 -0.010521

loop_
_geom_bond_atom_site_label_1
_geom_bond_atom_site_label_2
_ccdc_geom_bond_type
C29   N3    T    
C30   N4    T    
C1    C8    S    
C1    O12   A    
C35   C36   T    
Cu2   O22   S    
C4    C36   S    
C7    C8    A    
C25   C28   S    
C21   C31   S    
C12   C23   S    
Cu1   O21   S    
C3    S2    S    
Cu2   O12   S    
C10   H19   S    
O14   S5    D    
H11   O9    S    
C5    C6    A    
C26   S4    S    
C16   O19   A    
H14   O16   S    
C18   C19   A    
C23   C26   S    
C20   N1    A    
C26   H6    S    
Cu1   O1    S    
C28   C35   S    
C8    C9    A    
C9    C10   A    
C32   H16   S    
O23   S1    D    
C24   H12   S    
C13   C14   A    
Cu1   O17   S    
C33   H7    S    
O5    S2    D    
H13   O13   S    
C25   H5    S    
C17   C18   A    
C5    C29   S    
C27   C34   T    
Cu2   N1    S    
C25   S3    S    
C13   C19   A    
C13   C30   S    
O8    S3    D    
C6    C11   A    
O7    S3    D    
C31   N5    T    
C18   N2    A    
O13   S4    S    
C25   C26   S    
C1    O1    A    
O9    S3    S    
C12   H1    S    
C2    S1    S    
C17   H4    S    
O16   S5    S    
C11   C16   S    
C24   H21   S    
C23   C34   S    
O3    S1    S    
C7    C37   A    
C9    H17   S    
C22   O22   A    
H9    O3    S    
C20   H20   S    
C21   N2    A    
O10   S4    D    
O11   S4    D    
C14   H2    S    
C28   C33   S    
C22   C27   S    
C16   O20   A    
C32   H8    S    
Cu2   O20   S    
O4    S2    D    
C15   C17   A    
Cu1   O19   S    
C24   C28   S    
C15   H3    S    
C3    C5    A    
C33   S5    S    
C6    C7    A    
C12   C24   S    
C23   C32   S    
C2    C3    A    
Cu2   O18   S    
C32   C33   S    
C2    C37   A    
Cu1   Cu2   S    
C4    O18   A    
C19   N1    A    
O6    S2    S    
C22   O21   A    
C12   H15   S    
C10   C11   A    
C4    O17   A    
C20   C21   A    
H10   O6    S    
O2    S1    D    
C14   C15   A    
O15   S5    D    
C37   H18   S    
Cu1   N2    S    
