data_mof_unit_18792.cif
_audit_creation_date              2013-03-05T16:34:23-0500
_audit_creation_method            fapswitch 2.2
_symmetry_space_group_name_H-M    P1
_symmetry_Int_Tables_number       1
_space_group_crystal_system       triclinic
_cell_length_a                    11.000613
_cell_length_b                    9.089586
_cell_length_c                    7.778966
_cell_angle_alpha                 89.793666
_cell_angle_beta                  89.641461
_cell_angle_gamma                 89.691429
_cell_volume                      777.795269527

loop_
_atom_site_label
_atom_site_type_symbol
_atom_site_description
_atom_site_fract_x
_atom_site_fract_y
_atom_site_fract_z
_atom_type_partial_charge
O1    O     O_R   0.500000 0.288390 0.642760 -0.588299
O2    O     O_R   0.500000 0.711610 0.642760 -0.590672
O3    O     O_R   0.500000 0.288370 0.357190 -0.574287
O4    O     O_R   0.500000 0.711630 0.357190 -0.557536
C1    C     C_R   0.500312 0.219995 0.500105 0.829165
C2    C     C_R   0.499945 0.780005 0.499736 0.842817
O5    O     O_R   0.321940 0.500000 0.642750 -0.575118
O6    O     O_R   0.678060 0.500000 0.642750 -0.551631
O7    O     O_R   0.321930 0.500000 0.357180 -0.559557
O8    O     O_R   0.678070 0.500000 0.357180 -0.563282
C3    C     C_R   0.264872 0.493796 0.500448 0.758551
C4    C     C_R   0.734750 0.509568 0.498824 0.740618
Cu1   Cu    Cu3+1 0.500000 0.500000 0.669080 1.046342
Cu2   Cu    Cu3+1 0.500000 0.500000 0.330920 1.077535
C5    C     C_2   0.936067 0.503356 0.363045 0.202022
C6    C     C_2   0.066668 0.532934 0.369841 0.218625
C7    C     C_2   0.863810 0.546952 0.495144 0.214971
C8    C     C_2   0.132938 0.473554 0.499323 0.233976
C9    C     C_1   0.500108 0.065372 0.499877 -0.166832
C10   C     C_1   0.500050 0.934611 0.499401 -0.162573
N1    N     N_1   0.500000 0.500000 0.076820 -0.009542
N2    N     N_1   0.500000 0.500000 0.923180 -0.024207
N3    N     N_R   0.890958 0.425018 0.216794 0.125163
O9    O     O_R   0.834839 0.497002 0.095775 -0.289785
O10   O     O_R   0.934306 0.294757 0.183311 -0.375218
N4    N     N_R   0.118724 0.625585 0.238030 0.107294
O11   O     O_R   0.084570 0.611843 0.079020 -0.274123
O12   O     O_R   0.183055 0.739443 0.280380 -0.395541
O13   O     O_3   0.915407 0.622182 0.632478 -0.546460
C11   C     C_3   0.857207 0.759273 0.662645 0.103820
H1    H     H_    0.898062 0.805772 0.780753 0.210565
H2    H     H_    0.758729 0.747535 0.691124 0.147298
C12   C     C_3   0.877311 0.868814 0.514320 -0.449418
H3    H     H_    0.975045 0.870336 0.477754 0.269634
H4    H     H_    0.824125 0.834087 0.400577 0.221455
C13   C     C_3   0.837026 0.023666 0.565571 -0.835287
H5    H     H_    0.741124 0.023240 0.610135 0.251878
H6    H     H_    0.845085 0.098979 0.453456 0.283401
H7    H     H_    0.894802 0.065520 0.670984 0.265782
O14   O     O_3   0.071827 0.394971 0.628567 -0.566153
C14   C     C_3   0.134567 0.269195 0.690629 0.107161
H8    H     H_    0.075056 0.219183 0.790618 0.209374
H9    H     H_    0.219281 0.297341 0.758945 0.171221
C15   C     C_3   0.157789 0.153203 0.550844 -0.460404
H10   H     H_    0.074013 0.136686 0.474746 0.268345
H11   H     H_    0.230501 0.191097 0.461862 0.207348
C16   C     C_3   0.196846 0.006934 0.630943 -0.810308
H12   H     H_    0.278329 0.022302 0.712375 0.257275
H13   H     H_    0.219504 0.927146 0.528086 0.287966
H14   H     H_    0.122281 0.960928 0.711272 0.266631

loop_
_geom_bond_atom_site_label_1
_geom_bond_atom_site_label_2
_geom_bond_distance
_ccdc_geom_bond_type
C4    C7    1.461696 S    
C11   H2    1.110004 S    
O7    Cu2   1.968231 S    
C3    C8    1.464035 S    
O6    Cu1   1.968174 S    
C1    C9    1.405482 S    
C14   H9    1.107273 S    
C14   H8    1.111085 S    
N4    O12   1.301408 A    
C16   H12   1.110560 S    
C15   C16   1.526996 S    
O6    C4    1.281062 A    
C13   H6    1.110180 S    
C12   H3    1.110546 S    
C16   H13   1.108162 S    
C6    C8    1.355855 D    
O2    C2    1.272530 A    
N1    N2    1.195161 T    
O5    C3    1.277570 A    
O7    C3    1.276862 A    
N4    O11   1.301613 A    
O13   C11   1.417523 S    
O3    Cu2   1.933722 S    
O8    C4    1.272898 A    
C2    C10   1.405305 S    
O1    C1    1.273906 A    
Cu2   N1    1.976634 S    
C5    N3    1.436770 S    
O14   C14   1.417090 S    
C12   H4    1.111445 S    
C15   H11   1.109907 S    
Cu1   N2    1.976634 S    
C16   H14   1.110658 S    
N3    O10   1.300662 A    
O4    Cu2   1.935185 S    
C11   H1    1.111188 S    
C14   C15   1.536603 S    
O1    Cu1   1.935048 S    
N3    O9    1.301517 A    
C5    C6    1.464369 S    
O5    Cu1   1.970724 S    
C12   C13   1.526963 S    
C7    O13   1.395742 S    
C15   H10   1.109610 S    
O4    C2    1.273103 A    
O8    Cu2   1.970772 S    
C5    C7    1.354294 D    
O2    Cu1   1.933580 S    
C8    O14   1.401604 S    
C13   H5    1.108438 S    
C11   C12   1.537036 S    
Cu1   Cu2   2.630536 S    
C13   H7    1.110169 S    
C9    C10   1.188589 T    
O3    C1    1.271719 A    
C6    N4    1.442269 S    
