data_mof_unit_56193.cif
_audit_creation_date              2012-12-11T14:17:42-0500
_audit_creation_method            fapswitch 2.2
_symmetry_space_group_name_H-M    P1
_symmetry_Int_Tables_number       1
_space_group_crystal_system       triclinic
_cell_length_a                    6.947319
_cell_length_b                    13.681737
_cell_length_c                    20.380034
_cell_angle_alpha                 102.045699
_cell_angle_beta                  90.013817
_cell_angle_gamma                 90.589509
_cell_volume                      1894.39143515

loop_
_atom_site_label
_atom_site_type_symbol
_atom_type_description
_atom_site_fract_x
_atom_site_fract_y
_atom_site_fract_z
_atom_type_partial_charge
O1    O     O_R   0.506860 0.599390 0.449240 -0.547680
O2    O     O_R   0.180220 0.594600 0.586780 -0.503175
O3    O     O_R   0.004500 0.400610 0.550760 -0.537216
C1    C     C_R   0.348952 0.617178 0.613085 0.755392
O4    O     O_R   0.177490 0.611290 0.451970 -0.542730
O5    O     O_R   0.001750 0.417420 0.414990 -0.526546
C2    C     C_R   0.346607 0.636532 0.434122 0.696279
O6    O     O_R   0.509610 0.582580 0.585010 -0.545994
O7    O     O_3   0.337420 0.436370 0.488020 -0.371189
V1    V     V_3+5 0.064680 0.511800 0.502220 1.519775
O8    O     O_R   0.671710 0.405400 0.413220 -0.560505
C3    C     C_R   0.839048 0.390349 0.384688 0.694710
O9    O     O_R   0.674440 0.388710 0.548030 -0.543900
C4    C     C_R   0.842840 0.362034 0.564627 0.724047
V2    V     V_3+5 0.564010 0.488200 0.497780 1.449060
O10   O     O_3   0.841140 0.563630 0.511980 -0.364193
C5    C     C_R   0.885255 0.107322 0.605334 0.411088
H1    H     H_    0.891017 0.167082 0.515053 0.100385
C6    C     C_R   0.851759 0.282624 0.602451 -0.081025
C7    C     C_R   0.878416 0.310544 0.923448 -0.393008
C8    C     C_R   0.907524 0.385298 0.886948 0.510338
C9    C     C_R   0.932195 0.358184 0.817524 0.306993
C10   C     C_R   0.887095 0.258663 0.782017 -0.134984
C11   C     C_R   0.864365 0.182196 0.819575 -0.050354
C12   C     C_R   0.869867 0.233142 0.710652 -0.029683
C13   C     C_R   0.870084 0.131273 0.676580 -0.035604
C14   C     C_R   0.848900 0.055824 0.714031 0.370817
C15   C     C_R   0.844925 0.080644 0.785000 0.219604
C16   C     C_R   0.842740 0.306578 0.672160 -0.200339
C17   C     C_R   0.878870 0.184184 0.569247 -0.266277
C18   C     C_R   0.865188 0.210169 0.891154 -0.102563
H2    H     H_    0.811581 0.383185 0.695502 0.156457
H3    H     H_    0.879467 0.329806 0.977788 0.128411
C19   C     C_2   0.982868 0.268557 0.291058 0.295902
C20   C     C_2   0.845104 0.337500 0.312476 0.105874
C21   C     C_2   0.008876 0.224471 0.218191 0.469802
C22   C     C_2   0.859020 0.178254 0.181659 -0.407428
H4    H     H_    0.717967 0.183474 0.204355 0.115205
C23   C     C_2   0.227671 0.805327 0.777598 -0.338660
C24   C     C_2   0.357047 0.801629 0.826078 0.262091
H5    H     H_    0.123112 0.864919 0.785583 0.136617
C25   C     C_2   0.204878 0.725073 0.715669 0.538871
C26   C     C_2   0.360319 0.690873 0.677768 -0.351954
H6    H     H_    0.502399 0.719699 0.694003 0.134157
C27   C     C_R   0.385871 0.890453 0.391497 0.395335
H7    H     H_    0.379709 0.832520 0.482466 0.111552
C28   C     C_R   0.358501 0.714794 0.395253 -0.068845
C29   C     C_R   0.373510 0.686609 0.073450 -0.356962
C30   C     C_R   0.410344 0.611792 0.109228 0.510183
C31   C     C_R   0.440786 0.638337 0.178630 0.285588
C32   C     C_R   0.396595 0.736646 0.214880 -0.076275
C33   C     C_R   0.369721 0.812274 0.177608 -0.026389
C34   C     C_R   0.382902 0.762624 0.286465 -0.020482
C35   C     C_R   0.382726 0.865165 0.320056 0.010798
C36   C     C_R   0.376590 0.939943 0.281704 0.454619
C37   C     C_R   0.358403 0.912450 0.211679 -0.280960
C38   C     C_R   0.357664 0.689299 0.325361 -0.225787
C39   C     C_R   0.376419 0.814237 0.428080 -0.256638
C40   C     C_R   0.360934 0.786493 0.106597 -0.101138
H8    H     H_    0.331893 0.611783 0.302110 0.142690
H9    H     H_    0.370079 0.668095 0.019142 0.121454
H10   H     H_    0.335878 0.970755 0.183976 0.139013
O11   O     O_R   0.203230 0.917310 0.915020 -0.546936
O12   O     O_R   0.535500 0.888690 0.048040 -0.548621
O13   O     O_R   0.711080 0.082610 0.085000 -0.547652
C41   C     C_R   0.366721 0.862995 0.065653 0.714707
O14   O     O_R   0.532630 0.905370 0.913230 -0.521379
O15   O     O_R   0.708190 0.099410 0.949230 -0.527675
C42   C     C_R   0.363797 0.881503 0.887775 0.678197
O16   O     O_R   0.206120 0.900510 0.050790 -0.542597
O17   O     O_3   0.375360 0.063570 0.011990 -0.373465
V3    V     V_3+5 0.648170 0.988200 0.997780 1.468655
O18   O     O_R   0.038240 0.111390 0.951940 -0.549453
C43   C     C_R   0.870082 0.136937 0.934378 0.834442
O19   O     O_R   0.041120 0.094710 0.086750 -0.521346
C44   C     C_R   0.872594 0.115763 0.113342 0.753324
V4    V     V_3+5 0.148810 0.011930 0.002180 1.460507
O20   O     O_3   0.871750 0.936430 0.988010 -0.371550
O21   O     O_3   0.736903 0.369706 0.263373 -0.573142
C45   C     C_3   0.548596 0.396516 0.284727 -0.149577
H11   H     H_    0.547662 0.470971 0.319149 0.137057
H12   H     H_    0.476584 0.338057 0.306943 0.156549
H13   H     H_    0.463682 0.403911 0.240457 0.195392
O22   O     O_3   0.191756 0.223530 0.191218 -0.554218
C46   C     C_3   0.203172 0.299913 0.154151 -0.186886
H14   H     H_    0.352174 0.303031 0.135069 0.174907
H15   H     H_    0.169148 0.374353 0.185840 0.131961
H16   H     H_    0.105810 0.284867 0.109806 0.121072
O23   O     O_3   0.489169 0.724476 0.816730 -0.565486
C47   C     C_3   0.474894 0.672485 0.869493 -0.265892
H17   H     H_    0.322971 0.652288 0.878810 0.148801
H18   H     H_    0.541819 0.716077 0.916163 0.135508
H19   H     H_    0.555602 0.601747 0.855005 0.177058
O24   O     O_3   0.021608 0.693045 0.692579 -0.543389
C48   C     C_3   0.906035 0.674605 0.745700 -0.159536
H20   H     H_    0.850499 0.745811 0.775835 0.165465
H21   H     H_    0.984149 0.632277 0.778420 0.164656
H22   H     H_    0.780815 0.627932 0.724085 0.171301
O25   O     O_3   0.363470 0.039395 0.313884 -0.526499
C49   C     C_3   0.504885 0.097773 0.290148 -0.135664
H23   H     H_    0.450894 0.121433 0.244784 0.172080
H24   H     H_    0.645211 0.058745 0.280017 0.077426
H25   H     H_    0.531119 0.166282 0.329176 0.163314
O26   O     O_3   0.399362 0.989272 0.424880 -0.624175
H26   H     H_    0.399582 0.993074 0.474021 0.286129
O27   O     O_3   0.829430 0.956681 0.681444 -0.525573
C50   C     C_3   0.631993 0.935132 0.668581 -0.148556
H27   H     H_    0.567383 0.984933 0.637937 0.135096
H28   H     H_    0.549647 0.940311 0.715979 0.109386
H29   H     H_    0.617657 0.857383 0.639364 0.161950
O28   O     O_3   0.534271 0.569575 0.207438 -0.640509
H30   H     H_    0.621355 0.606694 0.242768 0.294062
O29   O     O_3   0.450146 0.514798 0.076367 -0.547169
C51   C     C_3   0.290027 0.472885 0.037492 -0.262269
H31   H     H_    0.279658 0.502224 0.990785 0.175678
H32   H     H_    0.153195 0.485018 0.066432 0.137905
H33   H     H_    0.310502 0.390972 0.022255 0.158643
O30   O     O_3   0.910389 0.009426 0.571906 -0.616228
H34   H     H_    0.918452 0.006498 0.522941 0.287850
O31   O     O_3   0.018092 0.428857 0.787473 -0.646512
H35   H     H_    0.107141 0.393542 0.752643 0.288831
O32   O     O_3   0.943724 0.483933 0.918492 -0.552906
C52   C     C_3   0.794772 0.520392 0.963880 -0.238204
H36   H     H_    0.816131 0.496941 0.012310 0.173244
H37   H     H_    0.649252 0.497151 0.942913 0.140421
H38   H     H_    0.800515 0.603270 0.974567 0.159137
O33   O     O_3   0.821900 0.006454 0.821410 -0.648574
H39   H     H_    0.815362 0.939495 0.791690 0.312285
O34   O     O_3   0.109333 0.240472 0.336154 -0.549963
C53   C     C_3   0.019546 0.165039 0.363522 -0.157788
H40   H     H_    0.991615 0.096808 0.324059 0.148106
H41   H     H_    0.883179 0.191001 0.389793 0.062306
H42   H     H_    0.117336 0.144591 0.401415 0.211364

loop_
_geom_bond_atom_site_label_1
_geom_bond_atom_site_label_2
_ccdc_geom_bond_type
C30   O29   S    
C36   C37   A    
C48   H20   S    
O18   C43   A    
C53   H41   S    
O28   H30   S    
C1    O6    A    
C51   H31   S    
C29   H9    S    
C48   H22   S    
C52   H36   S    
C23   H5    S    
V4    O20   S    
C9    O31   S    
C13   C14   A    
O13   C44   A    
C29   C40   A    
C5    C13   A    
C21   C22   D    
C27   O26   S    
O14   V3    S    
C16   H2    S    
C40   C41   S    
O5    C3    A    
C52   H37   S    
O27   C50   S    
O15   C43   A    
V2    O10   S    
C19   C20   D    
C8    O32   S    
O30   H34   S    
C49   H23   S    
V3    O20   S    
O8    V2    S    
O11   C42   A    
C19   O34   S    
C50   H27   S    
H1    C17   S    
C24   O23   S    
O7    V1    S    
C15   O33   S    
O12   V3    S    
O1    C2    A    
C8    C9    A    
H7    C39   S    
O16   V4    S    
C5    C17   A    
C50   H28   S    
C45   H13   S    
O26   H26   S    
C23   C25   S    
C46   H15   S    
C12   C16   A    
C27   C39   A    
C24   C42   S    
C32   C33   A    
O22   C46   S    
C45   H12   S    
C23   C24   D    
O4    C2    A    
C34   C38   A    
C38   H8    S    
C14   O27   S    
C12   C13   A    
C46   H14   S    
C49   H25   S    
O14   C42   A    
O12   C41   A    
O2    C1    A    
O19   C44   A    
C22   H4    S    
C33   C40   A    
C28   C38   A    
C47   H18   S    
O25   C49   S    
O15   V3    S    
C49   H24   S    
C31   C32   A    
C3    C20   S    
O19   V4    S    
O3    C4    A    
C5    O30   S    
O1    V2    S    
C7    H3    S    
C29   C30   A    
C22   C44   S    
C27   C35   A    
O6    V2    S    
O9    V2    S    
C26   H6    S    
C50   H29   S    
C37   H10   S    
C53   H42   S    
C25   C26   D    
O33   H39   S    
C6    C16   A    
O17   V4    S    
O31   H35   S    
C47   H19   S    
O29   C51   S    
O11   V4    S    
C46   H16   S    
C35   C36   A    
C25   O24   S    
C4    C6    S    
C11   C15   A    
C45   H11   S    
C52   H38   S    
O5    V1    S    
C51   H32   S    
O8    C3    A    
C48   H21   S    
C34   C35   A    
C1    C26   S    
O13   V3    S    
C53   H40   S    
O34   C53   S    
C11   C18   A    
O17   V3    S    
O3    V1    S    
V1    O10   S    
C28   C39   A    
C47   H17   S    
C41   O16   A    
C21   O22   S    
C20   O21   S    
C31   O28   S    
C19   C21   S    
C10   C12   A    
O7    V2    S    
O24   C48   S    
C18   C43   S    
C51   H33   S    
C10   C11   A    
O21   C45   S    
O4    V1    S    
C7    C8    A    
C30   C31   A    
C36   O25   S    
C14   C15   A    
O32   C52   S    
O18   V4    S    
C9    C10   A    
C32   C34   A    
O23   C47   S    
O9    C4    A    
C6    C17   A    
C33   C37   A    
C2    C28   S    
C7    C18   A    
O2    V1    S    
