data_mof_unit_44927.cif
_audit_creation_date              2013-03-05T15:48:39-0500
_audit_creation_method            fapswitch 2.2
_symmetry_space_group_name_H-M    P1
_symmetry_Int_Tables_number       1
_space_group_crystal_system       triclinic
_cell_length_a                    10.15361
_cell_length_b                    10.411592
_cell_length_c                    23.323014
_cell_angle_alpha                 90.980134
_cell_angle_beta                  82.684274
_cell_angle_gamma                 95.223477
_cell_volume                      2435.33323221

loop_
_atom_site_label
_atom_site_type_symbol
_atom_site_description
_atom_site_fract_x
_atom_site_fract_y
_atom_site_fract_z
_atom_type_partial_charge
O1    O     O_R   0.431060 0.692470 0.504730 -0.552088
O2    O     O_R   0.568940 0.307530 0.495270 -0.558562
O3    O     O_R   0.651120 0.659650 0.489640 -0.571912
O4    O     O_R   0.348880 0.340350 0.510360 -0.565996
C1    C     C_R   0.555502 0.735141 0.498614 0.910912
C2    C     C_R   0.445056 0.264853 0.506525 0.936177
O5    O     O_R   0.389950 0.516450 0.591390 -0.573453
O6    O     O_R   0.610050 0.483550 0.408610 -0.596490
O7    O     O_R   0.610020 0.483630 0.576300 -0.580464
O8    O     O_R   0.389980 0.516370 0.423700 -0.567731
C3    C     C_R   0.501685 0.500139 0.610898 0.959221
C4    C     C_R   0.498773 0.500224 0.389640 0.974507
Zn1   Zn    Zn3+2 0.353060 0.521920 0.510080 1.142730
Zn2   Zn    Zn3+2 0.646940 0.478080 0.489920 1.117154
C5    C     C_R   0.613076 0.459510 0.116382 0.657107
C6    C     C_R   0.529447 0.649504 0.879739 0.663038
N1    N     N_R   0.556237 0.557664 0.146949 -0.334417
N2    N     N_R   0.555486 0.537595 0.850957 -0.330287
C7    C     C_R   0.516476 0.660928 0.120376 0.669221
C8    C     C_R   0.595723 0.434715 0.877617 0.665835
C9    C     C_R   0.534880 0.669191 0.059661 -0.138620
C10   C     C_R   0.615632 0.443109 0.936169 -0.132796
C11   C     C_R   0.579165 0.560742 0.027797 -0.026693
C12   C     C_R   0.578558 0.554796 0.967521 -0.025354
C13   C     C_R   0.620483 0.456334 0.056351 -0.069152
C14   C     C_R   0.536984 0.659165 0.938968 -0.069186
C15   C     C_R   0.504174 0.777891 0.029722 0.315104
C16   C     C_R   0.665327 0.342521 0.965072 0.315457
C17   C     C_R   0.503707 0.770637 0.969905 -0.123294
C18   C     C_R   0.665962 0.350010 0.024784 -0.120784
O9    O     O_2   0.658926 0.363686 0.144413 -0.461942
O10   O     O_2   0.494530 0.750105 0.851038 -0.478783
O11   O     O_2   0.455043 0.751732 0.152833 -0.427480
O12   O     O_2   0.611970 0.324200 0.847593 -0.446227
H1    H     H_    0.477822 0.853430 0.947594 0.239072
H2    H     H_    0.702087 0.271479 0.046458 0.241261
C19   C     C_R   0.653435 0.526026 0.749703 0.308566
C20   C     C_R   0.610544 0.630656 0.242531 0.340007
C21   C     C_R   0.636531 0.511980 0.691715 -0.225355
C22   C     C_R   0.592186 0.614451 0.302103 -0.250404
H3    H     H_    0.724548 0.509027 0.660539 0.253569
H4    H     H_    0.651808 0.676259 0.328698 0.228522
C23   C     C_R   0.509676 0.506277 0.673480 -0.248406
C24   C     C_R   0.502576 0.516039 0.327861 -0.223563
C25   C     C_R   0.395590 0.508499 0.714998 0.200165
C26   C     C_R   0.425179 0.433054 0.294487 0.198363
C27   C     C_R   0.410630 0.516493 0.774070 0.235893
C28   C     C_R   0.438639 0.451742 0.234334 0.234769
C29   C     C_R   0.539816 0.527334 0.791029 0.021521
C30   C     C_R   0.533314 0.548693 0.208535 0.018450
C31   C     C_2   0.585786 0.873280 0.506670 0.105280
C32   C     C_2   0.419263 0.127193 0.519086 0.052653
C33   C     C_2   0.509757 0.932282 0.549595 0.269816
C34   C     C_2   0.505707 0.072983 0.549197 0.260333
N3    N     N_2   0.842710 0.448880 0.476480 -0.201772
N4    N     N_2   0.157290 0.551120 0.523520 -0.199017
C35   C     C_2   0.932063 0.529342 0.496371 0.242319
C36   C     C_2   0.076123 0.506014 0.487671 0.234787
H5    H     H_    0.117139 0.599112 0.559670 0.225907
H6    H     H_    0.874270 0.365108 0.457453 0.226568
N5    N     N_R   0.479907 0.898206 0.058376 0.262371
O13   O     O_R   0.567772 0.953729 0.088986 -0.237309
O14   O     O_R   0.386043 0.964295 0.044441 -0.275117
N6    N     N_R   0.720314 0.234657 0.934780 0.256807
O15   O     O_R   0.821860 0.254386 0.894911 -0.229844
O16   O     O_R   0.687916 0.118598 0.954768 -0.303956
N7    N     N_R   0.786329 0.539926 0.765960 0.254439
O17   O     O_R   0.814237 0.613248 0.809326 -0.303966
O18   O     O_R   0.883287 0.489780 0.733881 -0.248752
N8    N     N_R   0.710613 0.727304 0.217189 0.255369
O19   O     O_R   0.780495 0.706903 0.167662 -0.312251
O20   O     O_R   0.742420 0.830551 0.246469 -0.242177
N9    N     N_R   0.264420 0.495971 0.697958 0.252031
O21   O     O_R   0.211957 0.597603 0.682749 -0.269299
O22   O     O_R   0.191105 0.386974 0.705270 -0.273810
N10   N     N_R   0.338408 0.327593 0.320919 0.265887
O23   O     O_R   0.380851 0.252828 0.357422 -0.310503
O24   O     O_R   0.219931 0.300461 0.305828 -0.194229
N11   N     N_R   0.295093 0.513049 0.816936 0.250231
O25   O     O_R   0.286866 0.440567 0.862378 -0.317057
O26   O     O_R   0.197495 0.582370 0.810831 -0.214385
N12   N     N_R   0.362919 0.367845 0.198618 0.249783
O27   O     O_R   0.298585 0.415835 0.160419 -0.308441
O28   O     O_R   0.367639 0.243541 0.200633 -0.210222
O29   O     O_3   0.593092 0.150201 0.578866 -0.715265
H7    H     H_    0.646645 0.093526 0.598486 0.381149
O30   O     O_3   0.427156 0.859757 0.591216 -0.712229
H8    H     H_    0.378342 0.919609 0.617838 0.376282
N13   N     N_R   0.310188 0.053126 0.496569 0.216694
O31   O     O_R   0.193839 0.097771 0.500849 -0.234883
O32   O     O_R   0.328658 0.946958 0.467645 -0.315019
N14   N     N_R   0.685223 0.942580 0.465997 0.211941
O33   O     O_R   0.721926 0.891209 0.415909 -0.297091
O34   O     O_R   0.750204 0.048944 0.480807 -0.291394
N15   N     N_R   0.124963 0.438432 0.436733 0.220482
O35   O     O_R   0.107049 0.482048 0.386640 -0.313334
O36   O     O_R   0.151601 0.319530 0.440757 -0.255508
N16   N     N_R   0.895486 0.647576 0.523466 0.220345
O37   O     O_R   0.833241 0.646277 0.575683 -0.375519
O38   O     O_R   0.951930 0.756445 0.501991 -0.276309

loop_
_geom_bond_atom_site_label_1
_geom_bond_atom_site_label_2
_geom_bond_distance
_ccdc_geom_bond_type
O30   H8    0.992032 S    
C20   N8    1.440677 S    
C15   C17   1.396448 A    
N9    O21   1.301107 A    
N15   O35   1.300615 A    
C27   N11   1.439399 S    
O7    Zn2   2.002565 S    
C26   N10   1.438955 S    
C27   C29   1.411882 A    
O29   H7    0.992117 S    
O5    C3    1.300833 A    
O1    C1    1.291628 A    
C7    C9    1.407623 A    
N10   O24   1.301297 A    
C5    C13   1.392497 A    
C25   N9    1.431843 S    
O4    Zn1   1.887148 S    
N5    O14   1.301286 A    
C15   N5    1.436020 S    
C24   C26   1.406810 A    
C11   C12   1.406904 A    
C3    C23   1.472100 S    
N8    O19   1.301211 A    
N13   O32   1.300822 A    
O7    C3    1.301656 A    
Zn1   N4    2.022379 S    
C8    O12   1.348748 S    
C28   C30   1.414870 A    
Zn2   N3    2.022378 S    
C9    C15   1.418557 A    
C10   C16   1.418734 A    
N3    H6    1.030426 S    
N9    O22   1.300592 A    
C32   N13   1.440756 S    
O2    C2    1.291008 A    
C32   C34   1.357543 D    
C25   C27   1.405602 A    
C6    C14   1.394640 A    
C26   C28   1.407292 A    
N7    O17   1.301250 A    
N10   O23   1.301411 A    
O4    C2    1.301774 A    
C7    O11   1.348550 S    
N11   O26   1.301111 A    
C21   C23   1.402920 A    
C33   C34   1.469452 S    
N7    O18   1.301614 A    
N6    O16   1.301346 A    
C36   N15   1.427344 S    
C31   N14   1.444550 S    
C19   C29   1.406893 A    
C28   N12   1.436648 S    
C22   C24   1.396672 A    
O6    C4    1.291564 A    
N14   O34   1.301136 A    
C33   O30   1.385046 S    
C23   C25   1.413688 A    
O3    Zn2   1.887147 S    
O8    C4    1.298186 A    
C16   N6    1.434795 S    
C6    N2    1.364639 A    
C8    C10   1.405838 A    
N16   O37   1.298375 A    
N16   O38   1.300846 A    
N3    C35   1.302167 D    
C10   C12   1.417429 A    
O1    Zn1   1.876766 S    
C13   C18   1.399779 A    
C5    N1    1.365059 A    
O6    Zn2   1.982003 S    
C12   C14   1.407953 A    
C22   H4    1.084609 S    
O3    C1    1.298350 A    
O8    Zn1   2.002567 S    
N1    C30   1.428811 S    
C34   O29   1.385597 S    
N15   O36   1.298426 A    
C5    O9    1.350520 S    
C20   C30   1.408961 A    
C6    O10   1.350146 S    
C17   H1    1.083678 S    
N12   O28   1.301315 A    
N4    H5    1.030482 S    
C18   H2    1.083776 S    
C2    C32   1.461202 S    
N6    O15   1.301442 A    
C9    C11   1.417053 A    
C19   C21   1.388418 A    
C20   C22   1.389245 A    
C35   C36   1.492369 S    
C35   N16   1.431609 S    
C19   N7    1.441647 S    
C16   C18   1.394310 A    
N14   O33   1.301415 A    
N1    C7    1.366962 A    
N4    C36   1.300157 D    
N2    C8    1.366762 A    
C11   C13   1.407172 A    
N5    O13   1.301516 A    
O2    Zn2   1.876767 S    
N11   O25   1.301196 A    
O5    Zn1   1.982003 S    
C21   H3    1.080322 S    
C14   C17   1.400881 A    
C4    C24   1.448274 S    
N12   O27   1.301134 A    
C1    C31   1.457182 S    
N8    O20   1.301551 A    
C31   C33   1.357951 D    
N13   O31   1.300010 A    
N2    C29   1.427840 S    
