data_mof_unit_26497.cif
_audit_creation_date              2012-12-10T16:48:45-0500
_audit_creation_method            fapswitch 2.2
_symmetry_space_group_name_H-M    P1
_symmetry_Int_Tables_number       1
_space_group_crystal_system       triclinic
_cell_length_a                    17.161346
_cell_length_b                    8.685911
_cell_length_c                    7.439952
_cell_angle_alpha                 102.974082
_cell_angle_beta                  90.183397
_cell_angle_gamma                 92.902129
_cell_volume                      1079.19540454

loop_
_atom_site_label
_atom_site_type_symbol
_atom_type_description
_atom_site_fract_x
_atom_site_fract_y
_atom_site_fract_z
_atom_type_partial_charge
C1    C     C_R   0.497652 0.199723 0.453607 0.887088
C2    C     C_R   0.502348 0.800277 0.546393 0.887089
C3    C     C_2   0.496510 0.031851 0.427449 -0.372625
C4    C     C_2   0.503490 0.968149 0.572551 -0.372625
C5    C     C_R   0.350826 0.497522 0.525544 0.783399
C6    C     C_R   0.649175 0.502477 0.474456 0.783398
C7    C     C_R   0.266065 0.481836 0.539659 -0.026553
C8    C     C_R   0.733935 0.518158 0.460340 -0.026556
C9    C     C_R   0.221826 0.405042 0.383226 -0.184479
C10   C     C_R   0.778175 0.594949 0.616773 -0.184477
C11   C     C_R   0.141163 0.392063 0.391444 -0.129183
C12   C     C_R   0.858838 0.607921 0.608554 -0.129184
C13   C     C_R   0.103638 0.458372 0.555042 0.111483
C14   C     C_R   0.896362 0.541609 0.444955 0.111489
C15   C     C_R   0.147437 0.530390 0.713624 -0.177527
C16   C     C_R   0.852563 0.469594 0.286374 -0.177513
C17   C     C_R   0.228667 0.541226 0.706393 -0.202008
C18   C     C_R   0.771332 0.458763 0.293606 -0.202011
C19   C     C_2   0.017742 0.460942 0.556580 0.330991
C20   C     C_2   0.982258 0.539035 0.443416 0.330990
Cu1   Cu    Cu3+1 0.508700 0.517250 0.683000 0.948117
Cu2   Cu    Cu3+1 0.491300 0.482750 0.317000 0.948116
H1    H     H_    0.249553 0.355228 0.254099 0.147325
H2    H     H_    0.750449 0.644766 0.745899 0.147325
H3    H     H_    0.738051 0.400405 0.171154 0.156308
H4    H     H_    0.261948 0.599585 0.828846 0.156306
H5    H     H_    0.118633 0.581510 0.840854 0.159326
H6    H     H_    0.881366 0.418471 0.159144 0.159330
H7    H     H_    0.892270 0.666069 0.730959 0.136586
H8    H     H_    0.107733 0.333913 0.269038 0.136587
H9    H     H_    0.489924 0.960332 0.287587 0.178910
H10   H     H_    0.510076 0.039668 0.712413 0.178910
H11   H     H_    0.439025 0.378922 0.958208 0.223851
H12   H     H_    0.560975 0.621078 0.041792 0.223852
N1    N     N_2   0.478180 0.456750 0.041980 -0.217969
N2    N     N_2   0.521820 0.543250 0.958020 -0.217968
O1    O     O_R   0.505650 0.286040 0.618880 -0.581440
O2    O     O_R   0.494350 0.713960 0.381120 -0.581440
O3    O     O_R   0.490960 0.256910 0.309800 -0.587421
O4    O     O_R   0.509040 0.743090 0.690200 -0.587420
O5    O     O_R   0.394600 0.516230 0.672450 -0.591117
O6    O     O_R   0.605400 0.483770 0.327550 -0.591116
O7    O     O_R   0.379910 0.487100 0.363380 -0.583501
O8    O     O_R   0.620090 0.512900 0.636620 -0.583499
O9    O     O_3   0.026472 0.599646 0.315354 -0.597777
C21   C     C_3   0.997088 0.741371 0.287155 -0.319845
H13   H     H_    0.985597 0.825471 0.420037 0.146907
H14   H     H_    0.943737 0.716760 0.198305 0.176130
H15   H     H_    0.041638 0.799917 0.213634 0.185006
O10   O     O_3   0.973526 0.400325 0.684635 -0.597773
C22   C     C_3   0.002921 0.258618 0.712865 -0.319833
H16   H     H_    0.056263 0.283260 0.801748 0.176133
H17   H     H_    0.014433 0.174519 0.579997 0.146903
H18   H     H_    0.958369 0.200054 0.786363 0.185002

loop_
_geom_bond_atom_site_label_1
_geom_bond_atom_site_label_2
_ccdc_geom_bond_type
C16   H6    S    
C2    C4    S    
C15   C17   A    
C2    O4    A    
C12   H7    S    
C4    H10   S    
Cu1   O8    S    
C11   C13   A    
C2    O2    A    
C15   H5    S    
Cu2   O7    S    
C19   O10   S    
C1    O1    A    
C22   H18   S    
C19   C20   D    
O10   C22   S    
C5    O7    A    
Cu1   N2    S    
C6    O8    A    
Cu1   Cu2   S    
C3    H9    S    
Cu2   N1    S    
C9    C11   A    
C21   H15   S    
Cu2   O6    S    
Cu1   O4    S    
C10   C12   A    
Cu1   O5    S    
Cu2   O3    S    
C6    C8    S    
C8    C10   A    
H11   N1    S    
C12   C14   A    
H12   N2    S    
C13   C15   A    
C18   H3    S    
C14   C16   A    
C17   H4    S    
C22   H17   S    
C22   H16   S    
Cu2   O2    S    
C21   H14   S    
C14   C20   S    
Cu1   O1    S    
C7    C9    A    
C6    O6    A    
C5    C7    S    
C1    O3    A    
C21   H13   S    
C9    H1    S    
C13   C19   S    
C5    O5    A    
C10   H2    S    
O9    C21   S    
C16   C18   A    
C8    C18   A    
C3    C4    D    
C20   O9    S    
C11   H8    S    
C1    C3    S    
N1    N2    D    
C7    C17   A    
