data_mof_unit_9239.cif
_audit_creation_date              2012-12-11T15:26:39-0500
_audit_creation_method            fapswitch 2.2
_symmetry_space_group_name_H-M    P1
_symmetry_Int_Tables_number       1
_space_group_crystal_system       triclinic
_cell_length_a                    7.223338
_cell_length_b                    12.140097
_cell_length_c                    29.097744
_cell_angle_alpha                 89.999374
_cell_angle_beta                  89.986417
_cell_angle_gamma                 90.233433
_cell_volume                      2551.61881566

loop_
_atom_site_label
_atom_site_type_symbol
_atom_type_description
_atom_site_fract_x
_atom_site_fract_y
_atom_site_fract_z
_atom_type_partial_charge
O1    O     O_R   0.647170 0.849180 0.201220 -0.536861
O2    O     O_R   0.352830 0.150820 0.798780 -0.536861
O3    O     O_R   0.352830 0.150820 0.701220 -0.536860
O4    O     O_R   0.647170 0.849180 0.298780 -0.536860
O5    O     O_R   0.147170 0.650820 0.298780 -0.537285
O6    O     O_R   0.852830 0.349180 0.701220 -0.537285
O7    O     O_R   0.852830 0.349180 0.798780 -0.537280
O8    O     O_R   0.147170 0.650820 0.201220 -0.537280
O9    O     O_R   0.317430 0.862210 0.298450 -0.540175
O10   O     O_R   0.682570 0.137790 0.701550 -0.540175
O11   O     O_R   0.682570 0.137790 0.798450 -0.540176
O12   O     O_R   0.317430 0.862210 0.201550 -0.540176
O13   O     O_R   0.817430 0.637790 0.201550 -0.539984
O14   O     O_R   0.182570 0.362210 0.798450 -0.539984
O15   O     O_R   0.182570 0.362210 0.701550 -0.539988
O16   O     O_R   0.817430 0.637790 0.298450 -0.539988
H1    H     H_    0.963025 0.224620 0.455070 0.139658
H2    H     H_    0.036974 0.775380 0.544930 0.139658
H3    H     H_    0.034383 0.775484 0.955042 0.139613
H4    H     H_    0.965617 0.224516 0.044958 0.139613
H5    H     H_    0.538482 0.275070 0.045216 0.139686
H6    H     H_    0.461518 0.724930 0.954784 0.139686
H7    H     H_    0.463933 0.724819 0.545224 0.139657
H8    H     H_    0.536067 0.275181 0.454776 0.139657
C1    C     C_R   0.486032 0.887770 0.313325 0.682308
C2    C     C_R   0.513968 0.112230 0.686675 0.682308
C3    C     C_R   0.513936 0.112229 0.813325 0.682328
C4    C     C_R   0.486063 0.887771 0.186675 0.682328
C5    C     C_R   0.985460 0.612187 0.186661 0.682580
C6    C     C_R   0.014540 0.387813 0.813339 0.682580
C7    C     C_R   0.014572 0.387813 0.686659 0.682583
C8    C     C_R   0.985427 0.612186 0.313341 0.682583
H9    H     H_    0.036902 0.609638 0.691140 0.101192
H10   H     H_    0.963098 0.390361 0.308860 0.101192
H11   H     H_    0.964894 0.390297 0.191161 0.101168
H12   H     H_    0.035106 0.609703 0.808839 0.101168
H13   H     H_    0.482846 0.890698 0.808628 0.100884
H14   H     H_    0.517154 0.109302 0.191372 0.100884
H15   H     H_    0.515506 0.109379 0.308625 0.100882
H16   H     H_    0.484494 0.890621 0.691375 0.100882
H17   H     H_    0.957831 0.260939 0.373443 0.124675
H18   H     H_    0.042169 0.739060 0.626557 0.124675
H19   H     H_    0.039602 0.739157 0.873415 0.124655
H20   H     H_    0.960398 0.260843 0.126585 0.124655
H21   H     H_    0.534751 0.238635 0.126855 0.124626
H22   H     H_    0.465249 0.761365 0.873145 0.124626
H23   H     H_    0.467611 0.761254 0.626862 0.124606
H24   H     H_    0.532388 0.238746 0.373138 0.124606
O17   O     O_3   0.480630 0.680630 0.250000 -0.376862
O18   O     O_3   0.519370 0.319370 0.750000 -0.376862
O19   O     O_3   0.980630 0.819370 0.250000 -0.376779
O20   O     O_3   0.019370 0.180630 0.750000 -0.376779
V1    V     V_3+5 0.205800 0.762860 0.250000 1.422832
V2    V     V_3+5 0.794200 0.237140 0.750000 1.422832
V3    V     V_3+5 0.705800 0.737140 0.250000 1.424184
V4    V     V_3+5 0.294200 0.262860 0.750000 1.424184
H25   H     H_    0.974149 0.283502 0.532580 0.129574
H26   H     H_    0.025851 0.716498 0.467420 0.129574
H27   H     H_    0.023921 0.716595 0.032558 0.129582
H28   H     H_    0.976079 0.283405 0.967442 0.129582
H29   H     H_    0.531126 0.216471 0.967642 0.129759
H30   H     H_    0.468874 0.783529 0.032357 0.129759
H31   H     H_    0.470674 0.783442 0.467649 0.129762
H32   H     H_    0.529326 0.216558 0.532350 0.129762
C9    C     C_R   0.991196 0.534412 0.351708 -0.026120
C10   C     C_R   0.008804 0.465588 0.648292 -0.026119
C11   C     C_R   0.008638 0.465576 0.851709 -0.026047
C12   C     C_R   0.991362 0.534424 0.148291 -0.026047
C13   C     C_R   0.495090 0.965325 0.148277 -0.025432
C14   C     C_R   0.504910 0.034675 0.851723 -0.025432
C15   C     C_R   0.505068 0.034673 0.648276 -0.025403
C16   C     C_R   0.494932 0.965327 0.351724 -0.025403
C17   C     C_R   0.970888 0.348341 0.380433 -0.169456
C18   C     C_R   0.029112 0.651659 0.619567 -0.169455
C19   C     C_R   0.027399 0.651714 0.880415 -0.169453
C20   C     C_R   0.972600 0.348286 0.119585 -0.169453
C21   C     C_R   0.521748 0.151278 0.119760 -0.169039
C22   C     C_R   0.478252 0.848722 0.880240 -0.169039
C23   C     C_R   0.479833 0.848651 0.619764 -0.169078
C24   C     C_R   0.520167 0.151349 0.380236 -0.169078
C25   C     C_R   0.974339 0.421574 0.343637 -0.178734
C26   C     C_R   0.025661 0.578426 0.656363 -0.178734
C27   C     C_R   0.024400 0.578463 0.843623 -0.178793
C28   C     C_R   0.975600 0.421537 0.156377 -0.178793
C29   C     C_R   0.511747 0.078091 0.156511 -0.179147
C30   C     C_R   0.488253 0.921909 0.843489 -0.179147
C31   C     C_R   0.489416 0.921858 0.656513 -0.179144
C32   C     C_R   0.510584 0.078142 0.343487 -0.179144
C33   C     C_R   0.003523 0.574360 0.396723 -0.217668
C34   C     C_R   0.996477 0.425640 0.603277 -0.217668
C35   C     C_R   0.996935 0.425597 0.896731 -0.217632
C36   C     C_R   0.003065 0.574403 0.103269 -0.217632
C37   C     C_R   0.488742 0.925402 0.103191 -0.217534
C38   C     C_R   0.511258 0.074598 0.896809 -0.217535
C39   C     C_R   0.510849 0.074625 0.603189 -0.217520
C40   C     C_R   0.489151 0.925375 0.396811 -0.217520
C41   C     C_R   0.997278 0.501941 0.434930 0.081621
C42   C     C_R   0.002722 0.498059 0.565070 0.081621
C43   C     C_R   0.002635 0.498046 0.934930 0.081644
C44   C     C_R   0.997365 0.501954 0.065070 0.081644
C45   C     C_R   0.499157 0.997856 0.065063 0.081627
C46   C     C_R   0.500842 0.002144 0.934936 0.081627
C47   C     C_R   0.500931 0.002144 0.565064 0.081657
C48   C     C_R   0.499069 0.997856 0.434936 0.081657
C49   C     C_R   0.981501 0.387345 0.425799 0.130791
C50   C     C_R   0.018499 0.612655 0.574201 0.130791
C51   C     C_R   0.017327 0.612690 0.925788 0.130756
C52   C     C_R   0.982673 0.387310 0.074212 0.130756
C53   C     C_R   0.515570 0.112366 0.074324 0.130709
C54   C     C_R   0.484430 0.887634 0.925675 0.130709
C55   C     C_R   0.485520 0.887586 0.574328 0.130691
C56   C     C_R   0.514480 0.112414 0.425672 0.130691
C57   C     C_R   0.004262 0.539241 0.481636 0.053644
C58   C     C_R   0.995738 0.460759 0.518364 0.053644
C59   C     C_R   0.996071 0.460738 0.981640 0.053650
C60   C     C_R   0.003928 0.539262 0.018360 0.053650
C61   C     C_R   0.494225 0.960721 0.018322 0.053590
C62   C     C_R   0.505775 0.039279 0.981678 0.053590
C63   C     C_R   0.505467 0.039295 0.518321 0.053610
C64   C     C_R   0.494533 0.960705 0.481679 0.053610
C65   C     C_R   0.981280 0.347699 0.507154 -0.194413
C66   C     C_R   0.018720 0.652301 0.492846 -0.194413
C67   C     C_R   0.017343 0.652363 0.007139 -0.194434
C68   C     C_R   0.982657 0.347637 0.992861 -0.194434
C69   C     C_R   0.521605 0.152224 0.993002 -0.194314
C70   C     C_R   0.478394 0.847776 0.006998 -0.194314
C71   C     C_R   0.479679 0.847716 0.493007 -0.194349
C72   C     C_R   0.520321 0.152284 0.506993 -0.194349
C73   C     C_R   0.974769 0.312205 0.461884 -0.200221
C74   C     C_R   0.025231 0.687795 0.538115 -0.200221
C75   C     C_R   0.023459 0.687863 0.961866 -0.200262
C76   C     C_R   0.976541 0.312137 0.038134 -0.200262
C77   C     C_R   0.526060 0.187555 0.038310 -0.200398
C78   C     C_R   0.473940 0.812445 0.961690 -0.200398
C79   C     C_R   0.475593 0.812371 0.538316 -0.200470
C80   C     C_R   0.524407 0.187629 0.461684 -0.200470
H33   H     H_    0.985341 0.337621 0.599558 0.096891
H34   H     H_    0.014658 0.662379 0.400442 0.096891
H35   H     H_    0.013410 0.662457 0.099543 0.096838
H36   H     H_    0.986590 0.337543 0.900457 0.096838
H37   H     H_    0.523895 0.162529 0.900616 0.096411
H38   H     H_    0.476105 0.837471 0.099384 0.096411
H39   H     H_    0.477231 0.837408 0.400620 0.096387
H40   H     H_    0.522769 0.162592 0.599380 0.096387

loop_
_geom_bond_atom_site_label_1
_geom_bond_atom_site_label_2
_ccdc_geom_bond_type
C7    C10   S    
O14   V4    S    
C11   C27   A    
C60   C67   A    
C4    C13   S    
C44   C60   A    
H23   C23   S    
C19   C27   A    
C20   C28   A    
H17   C17   S    
C23   C31   A    
O4    C1    A    
C64   C71   A    
O9    C1    A    
C10   C34   A    
C9    C33   A    
H6    C78   S    
O8    C5    A    
H16   C31   S    
O5    V1    S    
C14   C38   A    
C71   C79   A    
C13   C37   A    
C72   C80   A    
C43   C59   A    
C42   C58   A    
C15   C39   A    
H12   C27   S    
C45   C53   A    
C59   C60   A    
C68   C76   A    
C47   C55   A    
H5    C77   S    
H20   C20   S    
C58   C65   A    
C9    C25   A    
C57   C66   A    
C39   C47   A    
H32   C72   S    
O1    C4    A    
O2    C3    A    
C19   C51   A    
C62   C69   A    
C61   C70   A    
C6    C11   S    
C46   C62   A    
O5    C8    A    
C41   C49   A    
C63   C72   A    
H8    C80   S    
O6    C7    A    
C21   C29   A    
C39   H40   S    
C20   C52   A    
O7    C6    A    
H3    C75   S    
C2    C15   S    
H15   C32   S    
C56   C80   A    
C17   C25   A    
C16   C32   A    
O20   V2    S    
H27   C67   S    
C44   C52   A    
H26   C66   S    
H14   C29   S    
C53   C77   A    
C12   C28   A    
H13   C30   S    
C51   C75   A    
C37   C45   A    
H22   C22   S    
C49   C73   A    
O17   V3    S    
H1    C73   S    
O18   V4    S    
C33   C41   A    
O19   V1    S    
H4    C76   S    
C18   C50   A    
C5    C12   S    
O3    V4    S    
C17   C49   A    
O11   C3    A    
H11   C28   S    
C69   C77   A    
C24   C56   A    
C11   C35   A    
O10   C2    A    
H7    C79   S    
C22   C54   A    
C1    C16   S    
C21   C53   A    
O11   V2    S    
C33   H34   S    
C38   C46   A    
H18   C18   S    
C15   C31   A    
H30   C70   S    
H10   C25   S    
O12   C4    A    
O6    V2    S    
C40   C48   A    
O4    V3    S    
H2    C74   S    
O9    V1    S    
C41   C57   A    
C14   C30   A    
C34   H33   S    
C13   C29   A    
C36   C44   A    
H19   C19   S    
C48   C56   A    
C57   C58   A    
C18   C26   A    
O13   C5    A    
C50   C74   A    
C59   C68   A    
C67   C75   A    
C38   H37   S    
O3    C2    A    
C47   C63   A    
O12   V1    S    
C65   C73   A    
O8    V1    S    
H21   C21   S    
C63   C64   A    
O15   C7    A    
C3    C14   S    
O16   C8    A    
C43   C51   A    
C42   C50   A    
C23   C55   A    
C45   C61   A    
O15   V4    S    
H24   C24   S    
O1    V3    S    
O16   V3    S    
O14   C6    A    
C24   C32   A    
O2    V4    S    
C61   C62   A    
C40   H39   S    
C55   C79   A    
C46   C54   A    
C12   C36   A    
C34   C42   A    
O10   V2    S    
H9    C26   S    
O13   V3    S    
C52   C76   A    
C54   C78   A    
H25   C65   S    
C35   H36   S    
C16   C40   A    
C70   C78   A    
C22   C30   A    
H28   C68   S    
H29   C69   S    
O7    V2    S    
C35   C43   A    
C36   H35   S    
C66   C74   A    
H31   C71   S    
C37   H38   S    
C10   C26   A    
C8    C9    S    
C48   C64   A    
