data_mof_unit_67892.cif
_audit_creation_date              2012-12-10T17:22:56-0500
_audit_creation_method            fapswitch 2.2
_symmetry_space_group_name_H-M    P1
_symmetry_Int_Tables_number       1
_space_group_crystal_system       triclinic
_cell_length_a                    10.278977
_cell_length_b                    10.606728
_cell_length_c                    10.643652
_cell_angle_alpha                 90.961949
_cell_angle_beta                  94.789457
_cell_angle_gamma                 80.068189
_cell_volume                      1139.05286586

loop_
_atom_site_label
_atom_site_type_symbol
_atom_type_description
_atom_site_fract_x
_atom_site_fract_y
_atom_site_fract_z
_atom_type_partial_charge
C1    C     C_R   0.444931 0.514635 0.266073 0.892979
C2    C     C_3   0.505867 0.122889 0.504012 -0.316724
C3    C     C_3   0.597137 0.942986 0.584163 0.258989
C4    C     C_3   0.400471 0.060353 0.429495 0.237520
C5    C     C_2   0.416570 0.542494 0.130894 0.184051
C6    C     C_2   0.582251 0.509555 0.871436 0.234185
C7    C     C_2   0.505999 0.594684 0.071075 0.299887
C8    C     C_2   0.497823 0.596156 0.932720 0.316922
C9    C     C_2   0.069410 0.504735 0.475581 0.563515
C10   C     C_2   0.924955 0.520383 0.500373 0.580777
C11   C     C_3   0.446755 0.952766 0.173370 0.180174
C12   C     C_R   0.554791 0.496303 0.734123 0.838046
C13   C     C_3   0.311719 0.909518 0.168358 -0.308777
C14   C     C_3   0.213201 0.985333 0.071449 -0.990038
C15   C     C_3   0.409207 0.127741 0.818538 0.050382
C16   C     C_3   0.289758 0.227353 0.768270 -0.307363
C17   C     C_3   0.178616 0.245574 0.856475 -0.966786
C18   C     C_3   0.819176 0.917491 0.405760 0.129315
C19   C     C_3   0.930426 0.936238 0.325417 -0.339526
C20   C     C_3   0.023257 0.809879 0.305193 -0.946075
C21   C     C_3   0.225970 0.920528 0.671498 0.069614
C22   C     C_3   0.089012 0.883178 0.661825 -0.290631
C23   C     C_R   0.501546 0.257760 0.499974 1.015319
C24   C     C_3   0.051767 0.844272 0.789576 -0.930801
C25   C     C_3   0.714288 0.310240 0.895100 0.076867
C26   C     C_3   0.798859 0.224475 0.995367 -0.293774
C27   C     C_3   0.810896 0.084418 0.955637 -0.963147
C28   C     C_3   0.192637 0.582797 0.079983 0.058331
C29   C     C_3   0.077358 0.535316 0.005006 -0.293096
C30   C     C_3   0.945731 0.623958 0.019472 -0.880956
C31   C     C_R   0.498760 0.742580 0.503519 1.025872
C32   C     C_3   0.615721 0.015042 0.465820 0.329043
C33   C     C_3   0.380709 0.985766 0.547893 0.253165
C34   C     C_3   0.509922 0.953863 0.389104 0.315507
C35   C     C_3   0.487462 0.051638 0.624287 0.293965
C36   C     C_3   0.492684 0.878540 0.506944 -0.334608
H1    H     H_    0.491801 0.923524 0.083749 0.133994
H2    H     H_    0.323086 0.320576 0.759153 0.262577
H3    H     H_    0.249806 0.200192 0.673620 0.241469
H4    H     H_    0.216942 0.271854 0.952117 0.291634
H5    H     H_    0.134864 0.157820 0.862507 0.262590
H6    H     H_    0.098326 0.322705 0.819298 0.278638
H7    H     H_    0.764928 0.846123 0.356973 0.210989
H8    H     H_    0.862384 0.877384 0.498290 0.195611
H9    H     H_    0.885289 0.974914 0.232660 0.232121
H10   H     H_    0.988046 0.006736 0.370819 0.266951
H11   H     H_    0.100631 0.790379 0.384530 0.284291
H12   H     H_    0.438997 0.058727 0.178115 0.172525
H13   H     H_    0.073150 0.815009 0.217948 0.251782
H14   H     H_    0.968103 0.728663 0.295514 0.268549
H15   H     H_    0.221019 0.993593 0.744644 0.151370
H16   H     H_    0.303114 0.836769 0.698299 0.210722
H17   H     H_    0.014808 0.966658 0.626807 0.226390
H18   H     H_    0.086431 0.803469 0.594259 0.267370
H19   H     H_    0.129854 0.770048 0.834462 0.285900
H20   H     H_    0.957587 0.806125 0.777690 0.321709
H21   H     H_    0.039132 0.928357 0.852958 0.245170
H22   H     H_    0.749111 0.941762 0.700693 0.352110
H23   H     H_    0.325146 0.806827 0.144400 0.171957
H24   H     H_    0.229240 0.168590 0.407378 0.380223
H25   H     H_    0.359258 0.744925 0.927953 0.312355
H26   H     H_    0.657498 0.682047 0.078404 0.343500
H27   H     H_    0.768582 0.304395 0.808512 0.175652
H28   H     H_    0.619619 0.273902 0.874899 0.169726
H29   H     H_    0.899221 0.250924 0.008339 0.234925
H30   H     H_    0.752920 0.237765 0.086689 0.242025
H31   H     H_    0.713735 0.052214 0.956882 0.286273
H32   H     H_    0.884038 0.023895 0.021140 0.254705
H33   H     H_    0.844274 0.072256 0.859079 0.269022
H34   H     H_    0.270292 0.919563 0.261507 0.278259
H35   H     H_    0.197572 0.679508 0.044682 0.124350
H36   H     H_    0.171004 0.589378 0.180400 0.210423
H37   H     H_    0.096410 0.530103 0.904004 0.261372
H38   H     H_    0.069422 0.438434 0.038160 0.246593
H39   H     H_    0.869240 0.598147 0.948538 0.298261
H40   H     H_    0.954500 0.725448 0.004788 0.253948
H41   H     H_    0.913001 0.612984 0.114785 0.289708
H42   H     H_    0.804970 0.602475 0.618594 0.383952
H43   H     H_    0.193904 0.396449 0.379913 0.379395
H44   H     H_    0.818650 0.304227 0.353031 0.380689
H45   H     H_    0.199131 0.088929 0.094789 0.312673
H46   H     H_    0.204841 0.592961 0.717090 0.397116
H47   H     H_    0.116277 0.953348 0.070852 0.260773
H48   H     H_    0.249125 0.969002 0.976471 0.243279
H49   H     H_    0.446549 0.163754 0.910810 0.162309
H50   H     H_    0.389180 0.032460 0.841500 0.126102
N1    N     N_2   0.157310 0.552180 0.551120 -0.032460
N2    N     N_2   0.842690 0.447820 0.448880 -0.010040
O1    O     O_R   0.568940 0.489500 0.307530 -0.561863
O2    O     O_3   0.512762 0.115938 0.739251 -0.663900
O3    O     O_3   0.736216 0.036403 0.422639 -0.626797
O4    O     O_3   0.246371 0.974850 0.557103 -0.634880
O5    O     O_3   0.697596 0.876370 0.666497 -0.744783
O6    O     O_3   0.298216 0.131259 0.351322 -0.763676
O7    O     O_3   0.401536 0.682727 0.866941 -0.829608
O8    O     O_3   0.606868 0.643992 0.138759 -0.724273
O9    O     O_3   0.691009 0.437497 0.939478 -0.668261
O10   O     O_3   0.312049 0.497697 0.063221 -0.657936
O11   O     O_3   0.879512 0.622952 0.575535 -0.772812
O12   O     O_R   0.431060 0.510500 0.692470 -0.601984
O13   O     O_3   0.104395 0.446660 0.363881 -0.772490
O14   O     O_3   0.894855 0.346022 0.381959 -0.668937
O15   O     O_3   0.123697 0.574967 0.669352 -0.722258
O16   O     O_R   0.348880 0.522990 0.340350 -0.648736
O17   O     O_R   0.651120 0.477010 0.659650 -0.663774
O18   O     O_R   0.610000 0.297210 0.483560 -0.599956
O19   O     O_R   0.390000 0.702790 0.516440 -0.627001
O20   O     O_R   0.389940 0.330700 0.516390 -0.662945
O21   O     O_R   0.610060 0.669300 0.483610 -0.585963
O22   O     O_3   0.531358 0.890507 0.272601 -0.631905
Zn1   Zn    Zn3+2 0.646930 0.477640 0.478080 1.018333
Zn2   Zn    Zn3+2 0.353070 0.522360 0.521920 0.952751

loop_
_geom_bond_atom_site_label_1
_geom_bond_atom_site_label_2
_ccdc_geom_bond_type
C2    C35   S    
H26   O8    S    
O19   Zn2   S    
C19   C20   S    
C14   H48   S    
C19   H10   S    
C7    C8    S    
C22   H18   S    
C24   H19   S    
C7    O8    S    
C10   N2    D    
C26   C27   S    
C20   H13   S    
C1    C5    S    
C18   O3    S    
C28   C29   S    
H22   O5    S    
O21   Zn1   S    
C6    C12   S    
C12   O17   A    
C32   O3    S    
C29   H37   S    
C13   H34   S    
C15   C16   S    
C33   C36   S    
C2    C32   S    
C18   C19   S    
C25   H27   S    
C11   H1    S    
C17   H6    S    
C20   H14   S    
C27   H32   S    
N2    Zn1   S    
C16   C17   S    
H46   O15   S    
C9    C10   S    
C27   H33   S    
C15   H49   S    
O17   Zn1   S    
C21   C22   S    
C11   O22   S    
C30   H41   S    
C11   H12   S    
C28   H36   S    
C8    O7    S    
C14   H47   S    
C22   H17   S    
O18   Zn1   S    
C4    C34   S    
C26   H30   S    
C6    O9    S    
C33   O4    S    
C5    C7    D    
C24   H21   S    
C6    C8    D    
C29   H38   S    
C25   C26   S    
C23   O18   A    
O20   Zn2   S    
H44   O14   S    
C25   H28   S    
C32   C34   S    
C2    C4    S    
C10   O11   S    
C29   C30   S    
C18   H8    S    
C30   H40   S    
C3    C35   S    
C2    C23   S    
H25   O7    S    
C31   O21   A    
C3    O5    S    
C1    O16   A    
C15   H50   S    
N1    O15   S    
C25   O9    S    
O12   Zn2   S    
C34   O22   S    
C22   C24   S    
C28   H35   S    
C21   H15   S    
O16   Zn2   S    
C28   O10   S    
C4    C33   S    
C1    O1    A    
C26   H29   S    
C31   O19   A    
N2    O14   S    
C19   H9    S    
N1    Zn2   S    
C24   H20   S    
O1    Zn1   S    
C18   H7    S    
C9    N1    D    
C15   O2    S    
C30   H39   S    
C11   C13   S    
C4    O6    S    
C3    C36   S    
C23   O20   A    
C33   C35   S    
C34   C36   S    
C3    C32   S    
C17   H5    S    
C12   O12   A    
C20   H11   S    
C27   H31   S    
C16   H3    S    
C35   O2    S    
C5    O10   S    
C9    O13   S    
H42   O11   S    
C31   C36   S    
H43   O13   S    
C14   H45   S    
C13   H23   S    
C13   C14   S    
C17   H4    S    
C21   H16   S    
C16   H2    S    
C21   O4    S    
H24   O6    S    
