data_mof_unit_37894.cif
_audit_creation_date              2012-10-26T19:06:48-0400
_audit_creation_method            fapswitch 2.2
_symmetry_space_group_name_H-M    P1
_symmetry_Int_Tables_number       1
_space_group_crystal_system       triclinic
_cell_length_a                    12.314751
_cell_length_b                    13.177558
_cell_length_c                    27.76619
_cell_angle_alpha                 77.689639
_cell_angle_beta                  101.251843
_cell_angle_gamma                 116.555275
_cell_volume                      3912.06355735

loop_
_atom_site_label
_atom_site_type_symbol
_atom_type_description
_atom_site_fract_x
_atom_site_fract_y
_atom_site_fract_z
_atom_type_partial_charge
C1    C     C_R   0.854869 0.286551 0.504289 0.533720
C2    C     C_R   0.972725 0.391764 0.033965 0.024619
C3    C     C_R   0.050361 0.601846 0.019224 0.033943
C4    C     C_R   0.999418 0.499615 0.592470 0.556051
C5    C     C_R   0.010617 0.496826 0.051801 0.035353
C6    C     C_R   0.944508 0.290298 0.068560 -0.127685
C7    C     C_R   0.947356 0.291964 0.118749 -0.100606
C8    C     C_R   0.976122 0.394346 0.136008 0.028085
C9    C     C_R   0.006409 0.496844 0.102449 -0.025924
C10   C     C_R   0.031267 0.599260 0.119399 0.024593
C11   C     C_R   0.028688 0.597844 0.169844 0.403894
C12   C     C_R   0.909534 0.517531 0.711837 -0.097848
C13   C     C_R   0.975193 0.396866 0.186202 0.401515
C14   C     C_R   0.090642 0.478416 0.288966 -0.057268
C15   C     C_R   0.090469 0.479013 0.339103 -0.144495
C16   C     C_R   0.145085 0.713429 0.492755 0.551880
C17   C     C_R   0.911909 0.519885 0.318979 -0.145750
C18   C     C_R   0.912341 0.519274 0.268869 -0.054811
C19   C     C_R   0.001632 0.498520 0.253687 0.240216
C20   C     C_R   0.962187 0.391796 0.982182 0.030036
C21   C     C_R   0.012135 0.497791 0.950543 0.005092
C22   C     C_R   0.068227 0.603329 0.970044 -0.001099
C23   C     C_R   0.999513 0.498267 0.746755 0.228639
C24   C     C_R   0.901568 0.289509 0.960757 -0.120183
C25   C     C_R   0.129006 0.703361 0.888269 -0.052929
C26   C     C_R   0.061816 0.700226 0.035946 -0.070757
C27   C     C_R   0.055032 0.699772 0.085432 -0.090255
C28   C     C_R   0.000414 0.500057 0.407551 0.547945
C29   C     C_R   0.139359 0.704545 0.939170 0.228256
C30   C     C_R   0.275263 0.021392 0.433938 -0.123056
C31   C     C_R   0.227920 0.834546 0.482541 0.000242
C32   C     C_R   0.815571 0.085213 0.536657 -0.123911
C33   C     C_R   0.736820 0.970306 0.546384 -0.128591
C34   C     C_R   0.006841 0.498034 0.899090 -0.034000
C35   C     C_R   0.613404 0.932597 0.528983 -0.114317
C36   C     C_R   0.566534 0.009369 0.499522 0.034551
C37   C     C_R   0.649985 0.123762 0.484811 0.024704
C38   C     C_R   0.439822 0.976102 0.483697 0.030686
C39   C     C_R   0.400039 0.053314 0.449849 0.051182
C40   C     C_R   0.942208 0.396921 0.827771 0.448468
C41   C     C_R   0.485308 0.160397 0.431285 -0.133029
C42   C     C_R   0.608501 0.194512 0.447852 -0.116811
C43   C     C_R   0.351018 0.868498 0.500824 -0.129366
C44   C     C_R   0.189502 0.912050 0.449944 -0.129422
C45   C     C_R   0.946643 0.394528 0.878862 0.046087
C46   C     C_R   0.773054 0.163536 0.507065 -0.001006
C47   C     C_R   0.346965 0.328877 0.579092 -0.134681
C48   C     C_R   0.759464 0.645363 0.433035 0.049271
C49   C     C_R   0.662901 0.677096 0.418521 -0.155316
C50   C     C_R   0.559471 0.622302 0.443701 -0.135906
C51   C     C_R   0.551419 0.534578 0.484031 -0.005389
C52   C     C_R   0.055576 0.600147 0.816900 0.446437
C53   C     C_R   0.653069 0.505264 0.497668 0.179315
C54   C     C_R   0.447071 0.475203 0.511388 -0.012363
C55   C     C_R   0.446979 0.388373 0.551589 0.034338
C56   C     C_R   0.893481 0.291130 0.909991 -0.083366
C57   C     C_R   0.546767 0.361434 0.564310 -0.169700
C58   C     C_R   0.647413 0.418670 0.538088 -0.099957
C59   C     C_R   0.341979 0.497754 0.500869 0.039827
C60   C     C_R   0.246932 0.355351 0.566900 0.050303
C61   C     C_R   0.090415 0.479296 0.731166 0.264201
C62   C     C_R   0.088875 0.479307 0.680683 -0.136459
C63   C     C_R   0.909074 0.517999 0.661566 -0.154836
C64   C     C_R   0.061875 0.601708 0.867793 -0.012400
C65   C     C_R   0.998889 0.499023 0.645548 -0.034835
C66   C     C_R   0.000989 0.499696 0.354590 0.003154
Cu1   Cu    Cu3+1 0.098270 0.475420 0.511360 0.938768
Cu2   Cu    Cu3+1 0.901730 0.524580 0.488640 0.921704
H1    H     H_    0.838403 0.533073 0.635329 0.143985
H2    H     H_    0.839775 0.532183 0.723801 0.142755
H3    H     H_    0.374984 0.808211 0.528146 0.122939
H4    H     H_    0.909591 0.113212 0.553380 0.135467
H5    H     H_    0.557975 0.842318 0.538338 0.108345
H6    H     H_    0.770939 0.910474 0.568900 0.131547
H7    H     H_    0.670569 0.275948 0.430138 0.153705
H8    H     H_    0.169372 0.309821 0.587967 0.132353
H9    H     H_    0.547385 0.295299 0.595107 0.127171
H10   H     H_    0.346273 0.262393 0.609869 0.119124
H11   H     H_    0.333950 0.562039 0.470975 0.118954
H12   H     H_    0.180128 0.781711 0.864956 0.218658
H13   H     H_    0.839398 0.688404 0.413295 0.128236
H14   H     H_    0.845663 0.210540 0.895267 0.179227
H15   H     H_    0.487563 0.650398 0.430878 0.103856
H16   H     H_    0.668243 0.744421 0.387644 0.116801
H17   H     H_    0.719025 0.391964 0.551148 0.185939
H18   H     H_    0.160369 0.463367 0.365645 0.129654
H19   H     H_    0.160159 0.462653 0.277442 0.133266
H20   H     H_    0.925387 0.212139 0.143908 0.172171
H21   H     H_    0.922886 0.208610 0.058009 0.124262
H22   H     H_    0.855867 0.206921 0.982216 0.123207
H23   H     H_    0.072622 0.777590 0.010665 0.187214
H24   H     H_    0.158148 0.463973 0.668759 0.161961
H25   H     H_    0.357932 0.535980 0.730132 0.342354
H26   H     H_    0.444891 0.938694 0.940761 0.380456
H27   H     H_    0.841770 0.535985 0.329772 0.130821
H28   H     H_    0.067885 0.778405 0.096858 0.176550
H29   H     H_    0.843044 0.534535 0.241789 0.137536
H30   H     H_    0.094283 0.886690 0.435315 0.127567
H31   H     H_    0.456708 0.218222 0.403760 0.114656
H32   H     H_    0.244462 0.079902 0.408014 0.117413
N1    N     N_R   0.997997 0.498541 0.798201 -0.379291
N2    N     N_R   0.001943 0.497763 0.202131 -0.398040
N3    N     N_R   0.246290 0.438210 0.528570 -0.236847
N4    N     N_R   0.754320 0.561170 0.471730 -0.237222
O1    O     O_R   0.972510 0.318140 0.514280 -0.500522
O2    O     O_R   0.082990 0.479230 0.439860 -0.504340
O3    O     O_R   0.917010 0.520730 0.420680 -0.514659
O4    O     O_2   0.883739 0.298575 0.807806 -0.454501
O5    O     O_2   0.265734 0.545651 0.807421 -0.242001
O6    O     O_2   0.149523 0.339953 0.805230 -0.187263
O7    O     O_3   0.312788 0.454852 0.744310 -0.501818
O8    O     O_2   0.227618 0.920948 0.957971 -0.277474
O9    O     O_2   0.309543 0.794517 0.015111 -0.262810
O10   O     O_3   0.379910 0.869861 0.927315 -0.488596
O11   O     O_2   0.946707 0.299180 0.218769 -0.494919
O12   O     O_2   0.108294 0.698966 0.786429 -0.462905
O13   O     O_2   0.054016 0.695833 0.186623 -0.488523
O14   O     O_R   0.806530 0.359640 0.495100 -0.529041
O15   O     O_R   0.082990 0.479270 0.579320 -0.500396
O16   O     O_R   0.917010 0.520770 0.560140 -0.516208
O17   O     O_R   0.193470 0.640360 0.504900 -0.507557
O18   O     O_R   0.027490 0.681860 0.485720 -0.501405
S1    S     S_3+6 0.205963 0.454666 0.774007 0.065390
S2    S     S_3+6 0.264857 0.824960 0.962092 0.014053

loop_
_geom_bond_atom_site_label_1
_geom_bond_atom_site_label_2
_ccdc_geom_bond_type
C10   C27   A    
C63   C65   A    
C8    C13   A    
C22   C29   A    
C25   H12   S    
C41   C42   A    
C35   C36   A    
H26   O10   S    
Cu1   N3    S    
C7    C8    A    
C32   H4    S    
C23   N1    S    
C16   C31   S    
C12   C23   A    
C42   H7    S    
C31   C43   A    
C49   H16   S    
C36   C37   A    
C14   H19   S    
O8    S2    D    
C4    C65   S    
C19   N2    S    
C1    C46   S    
C28   O3    A    
C48   N4    A    
C29   S2    S    
C30   H32   S    
C48   H13   S    
C18   C19   A    
C37   C42   A    
C16   O18   A    
Cu2   O14   S    
C47   C60   A    
C44   H30   S    
C63   H1    S    
C45   C56   A    
C28   O2    A    
C8    C9    A    
C62   H24   S    
C41   H31   S    
C4    O15   A    
C17   H27   S    
Cu2   O3    S    
C60   N3    A    
C9    C10   A    
C40   O4    S    
O10   S2    S    
C40   N1    A    
C21   C22   A    
C30   C44   A    
C27   H28   S    
C2    C6    A    
Cu1   O17   S    
C50   H15   S    
C50   C51   A    
C54   C59   A    
C52   O12   S    
C25   C29   A    
C40   C45   A    
C52   N1    A    
C31   C44   A    
C2    C20   A    
Cu1   Cu2   S    
C57   H9    S    
C39   C41   A    
C52   C64   A    
Cu2   O18   S    
C12   C63   A    
Cu1   O1    S    
C21   C34   A    
C26   H23   S    
C15   C66   A    
O7    S1    S    
C60   H8    S    
C51   C53   A    
C25   C64   A    
C28   C66   S    
C16   O17   A    
C5    C9    A    
O6    S1    D    
C7    H20   S    
C34   C64   A    
C17   C18   A    
C26   C27   A    
C34   C45   A    
C13   O11   S    
H25   O7    S    
C15   H18   S    
C48   C49   A    
C18   H29   S    
C55   C57   A    
C2    C5    A    
C59   H11   S    
C11   O13   S    
C58   H17   S    
C47   C55   A    
C12   H2    S    
C54   C55   A    
C35   H5    S    
C43   H3    S    
C62   C65   A    
C32   C46   A    
C14   C19   A    
C3    C26   A    
O5    S1    D    
Cu2   N4    S    
C3    C5    A    
C24   H22   S    
C53   C58   A    
Cu1   O2    S    
C56   H14   S    
C6    C7    A    
C24   C56   A    
C6    H21   S    
C61   S1    S    
C51   C54   A    
C59   N3    A    
C32   C33   A    
C36   C38   A    
C13   N2    A    
C38   C43   A    
Cu2   O16   S    
C57   C58   A    
C38   C39   A    
O9    S2    D    
C33   C35   A    
C30   C39   A    
C11   N2    A    
C1    O14   A    
C17   C66   A    
C61   C62   A    
C10   C11   A    
C33   H6    S    
C23   C61   A    
C20   C21   A    
C49   C50   A    
C14   C15   A    
C4    O16   A    
C3    C22   A    
C53   N4    A    
C47   H10   S    
C37   C46   A    
Cu1   O15   S    
C20   C24   A    
C1    O1    A    
