data_mof_unit_29688.cif
_audit_creation_date              2012-12-10T17:59:16-0500
_audit_creation_method            fapswitch 2.2
_symmetry_space_group_name_H-M    P1
_symmetry_Int_Tables_number       1
_space_group_crystal_system       triclinic
_cell_length_a                    10.82472
_cell_length_b                    9.597949
_cell_length_c                    10.737551
_cell_angle_alpha                 90.21464
_cell_angle_beta                  92.394222
_cell_angle_gamma                 90.051467
_cell_volume                      1114.59675847

loop_
_atom_site_label
_atom_site_type_symbol
_atom_type_description
_atom_site_fract_x
_atom_site_fract_y
_atom_site_fract_z
_atom_type_partial_charge
C1    C     C_R   0.262303 0.499958 0.498734 0.807437
C2    C     C_3   0.446590 0.357300 0.925788 -0.355526
C3    C     C_R   0.063722 0.373364 0.495621 -0.156944
C4    C     C_R   0.063881 0.626503 0.493920 -0.130056
C5    C     C_R   0.935922 0.373425 0.494824 -0.103503
C6    C     C_R   0.936079 0.626506 0.493147 -0.135192
C7    C     C_R   0.871544 0.500005 0.495328 -0.015539
C8    C     C_R   0.128278 0.499928 0.496240 -0.016926
C9    C     C_R   0.421696 0.073634 0.421556 -0.064835
C10   C     C_R   0.421595 0.925523 0.421656 -0.067273
C11   C     C_R   0.579715 0.926293 0.579059 0.235061
C12   C     C_R   0.579513 0.074831 0.579408 0.236431
C13   C     C_R   0.495919 0.499653 0.260113 0.868899
C14   C     C_R   0.737636 0.500026 0.498289 0.857430
C15   C     C_R   0.496867 0.499983 0.739939 0.813536
C16   C     C_3   0.626918 0.527650 0.077906 0.162308
C17   C     C_3   0.406869 0.615675 0.068286 0.168604
C18   C     C_3   0.626929 0.524076 0.934122 -0.375940
C19   C     C_3   0.407576 0.615425 0.924347 -0.396601
C20   C     C_3   0.448394 0.355834 0.068776 -0.326375
C21   C     C_3   0.494087 0.498808 0.122084 -0.022679
C22   C     C_3   0.494489 0.499426 0.878092 0.006630
Cu1   Cu    Cu3+1 0.500020 0.640660 0.500000 0.992590
Cu2   Cu    Cu3+1 0.500020 0.359340 0.500000 0.998178
H1    H     H_    0.656616 0.633227 0.110530 0.127816
H2    H     H_    0.441256 0.719000 0.102160 0.126754
H3    H     H_    0.663541 0.624576 0.901264 0.183798
H4    H     H_    0.439419 0.719221 0.892574 0.177228
H5    H     H_    0.689487 0.441125 0.901114 0.237303
H6    H     H_    0.312738 0.599263 0.882722 0.215180
H7    H     H_    0.509833 0.270151 0.103197 0.220089
H8    H     H_    0.354265 0.331707 0.100507 0.206481
H9    H     H_    0.505259 0.270359 0.893616 0.216042
H10   H     H_    0.350754 0.338064 0.887926 0.187088
H11   H     H_    0.111655 0.274329 0.496189 0.157286
H12   H     H_    0.111941 0.725518 0.493081 0.159683
H13   H     H_    0.887964 0.274392 0.494277 0.179382
H14   H     H_    0.888240 0.725517 0.491241 0.176722
H15   H     H_    0.358615 0.128609 0.358310 0.143410
H16   H     H_    0.358418 0.869885 0.358503 0.163686
N1    N     N_R   0.500030 0.852070 0.500030 -0.191901
N2    N     N_R   0.500030 0.147930 0.500030 -0.189724
O1    O     O_R   0.319660 0.618740 0.499990 -0.583010
O2    O     O_R   0.319660 0.381260 0.499990 -0.595960
O3    O     O_R   0.499990 0.618790 0.317690 -0.590698
O4    O     O_R   0.499990 0.381210 0.317690 -0.564474
O5    O     O_R   0.680370 0.618830 0.500010 -0.569993
O6    O     O_R   0.680370 0.381170 0.500010 -0.555356
O7    O     O_R   0.500030 0.618780 0.682310 -0.566397
O8    O     O_R   0.500030 0.381220 0.682310 -0.570778
Cl1   Cl    Cl    0.739665 0.407924 0.142831 -0.591177
Cl2   Cl    Cl    0.251747 0.599631 0.120072 -0.620632
I1    I     I_    0.709002 0.823723 0.704773 -0.343319
I2    I     I_    0.707131 0.179604 0.707611 -0.324239

loop_
_geom_bond_atom_site_label_1
_geom_bond_atom_site_label_2
_ccdc_geom_bond_type
C2    C22   S    
C14   O6    A    
C11   C12   A    
C6    H14   S    
C16   C21   S    
Cu1   O3    S    
C5    H13   S    
C7    C14   S    
C1    C8    S    
Cu2   N2    S    
C9    C10   A    
C1    O2    A    
Cu1   N1    S    
C16   Cl1   S    
C3    H11   S    
Cu1   Cu2   S    
Cu2   O4    S    
C2    H10   S    
C4    H12   S    
C13   C21   S    
C18   H5    S    
C10   N1    A    
C13   O3    A    
C19   H4    S    
C9    N2    A    
C14   O5    A    
C17   H2    S    
C17   Cl2   S    
C4    C6    A    
C17   C19   S    
C11   N1    A    
C6    C7    A    
C15   O7    A    
Cu2   O8    S    
C13   O4    A    
Cu2   O2    S    
C12   I2    S    
Cu1   O7    S    
Cu1   O5    S    
C2    C20   S    
Cu2   O6    S    
C9    H15   S    
C19   C22   S    
Cu1   O1    S    
C20   C21   S    
C2    H9    S    
C16   C18   S    
C3    C8    A    
C20   H8    S    
C15   O8    A    
C16   H1    S    
C5    C7    A    
C10   H16   S    
C12   N2    A    
C4    C8    A    
C18   C22   S    
C19   H6    S    
C1    O1    A    
C15   C22   S    
C17   C21   S    
C18   H3    S    
C3    C5    A    
C20   H7    S    
C11   I1    S    
