data_mof_unit_5111.cif
_audit_creation_date              2012-12-10T19:59:21-0500
_audit_creation_method            fapswitch 2.2
_symmetry_space_group_name_H-M    P1
_symmetry_Int_Tables_number       1
_space_group_crystal_system       triclinic
_cell_length_a                    14.882693
_cell_length_b                    14.195098
_cell_length_c                    10.780517
_cell_angle_alpha                 90.928333
_cell_angle_beta                  91.996732
_cell_angle_gamma                 91.122504
_cell_volume                      2275.36129726

loop_
_atom_site_label
_atom_site_type_symbol
_atom_type_description
_atom_site_fract_x
_atom_site_fract_y
_atom_site_fract_z
_atom_type_partial_charge
C1    C     C_R   0.326555 0.499408 0.502159 0.922718
C2    C     C_R   0.672369 0.500982 0.502428 0.986042
C3    C     C_R   0.178797 0.414813 0.528409 0.302446
C4    C     C_R   0.821478 0.457322 0.434369 0.274160
C5    C     C_R   0.091979 0.417115 0.573515 0.434424
C6    C     C_R   0.914710 0.464846 0.450104 0.440916
C7    C     C_R   0.049167 0.503629 0.580864 -0.074039
C8    C     C_R   0.952717 0.505115 0.560583 -0.046695
C9    C     C_R   0.423943 0.102929 0.460552 0.244185
C10   C     C_R   0.575246 0.108106 0.551267 0.227413
C11   C     C_R   0.428964 0.201812 0.450558 0.532961
C12   C     C_R   0.571316 0.207327 0.552548 0.532083
C13   C     C_R   0.499972 0.053235 0.505652 -0.162622
C14   C     C_R   0.546000 0.894997 0.597223 -0.314564
C15   C     C_R   0.454189 0.893028 0.409254 -0.300091
C16   C     C_R   0.548430 0.796310 0.589749 0.692887
C17   C     C_R   0.450926 0.794322 0.412905 0.748245
C18   C     C_R   0.500292 0.946203 0.504201 0.038140
C19   C     C_R   0.497199 0.498756 0.259675 0.901243
C20   C     C_R   0.508201 0.500651 0.739573 0.937035
C21   C     C_R   0.489700 0.576989 0.060605 -0.333715
C22   C     C_R   0.512769 0.581500 0.941926 -0.317193
C23   C     C_R   0.498728 0.495012 0.127214 -0.216905
C24   C     C_R   0.521365 0.500073 0.871501 -0.221390
C25   C     C_R   0.516885 0.410121 0.061734 0.390828
C26   C     C_R   0.533879 0.414085 0.933999 0.363600
C27   C     C_3   0.497848 0.686084 0.935343 0.997412
C28   C     C_3   0.466247 0.679701 0.069694 1.000551
C29   C     C_R   0.097728 0.587898 0.574490 -0.367821
C30   C     C_R   0.899277 0.549734 0.646122 -0.355916
C31   C     C_R   0.188375 0.586344 0.550764 0.603732
C32   C     C_R   0.807174 0.550969 0.623962 0.553188
C33   C     C_R   0.229893 0.499794 0.524293 -0.387441
C34   C     C_R   0.768456 0.503626 0.519582 -0.303979
H1    H     H_    0.579426 0.929762 0.676316 0.242235
H2    H     H_    0.420288 0.926619 0.332098 0.242873
H3    H     H_    0.064352 0.654884 0.581079 0.203813
H4    H     H_    0.928887 0.583345 0.729195 0.195611
N1    N     N_R   0.500000 0.252470 0.500000 -0.216156
N2    N     N_R   0.500000 0.747550 0.500000 -0.195469
O1    O     O_R   0.369060 0.579480 0.500010 -0.535313
O2    O     O_R   0.630940 0.579480 0.499990 -0.579201
O3    O     O_R   0.369050 0.420520 0.500010 -0.547444
O4    O     O_R   0.630950 0.420520 0.499990 -0.580377
O5    O     O_R   0.499990 0.579490 0.316780 -0.573333
O6    O     O_R   0.500010 0.579490 0.683220 -0.542451
O7    O     O_R   0.499980 0.420540 0.316780 -0.564593
O8    O     O_R   0.500020 0.420540 0.683220 -0.573593
Zn1   Zn    Zn3+2 0.500000 0.606140 0.500000 1.120424
Zn2   Zn    Zn3+2 0.500000 0.393860 0.500000 1.063156
O9    O     O_3   0.517129 0.324675 0.122829 -0.648887
C35   C     C_3   0.445610 0.263722 0.078936 0.149691
H5    H     H_    0.445724 0.201484 0.140121 0.181381
H6    H     H_    0.457408 0.235826 0.984357 0.174474
C36   C     C_3   0.352177 0.308385 0.083248 -0.385817
H7    H     H_    0.342257 0.338175 0.177472 0.255638
H8    H     H_    0.347116 0.366337 0.015569 0.208857
C37   C     C_3   0.277660 0.236237 0.049737 -0.955071
H9    H     H_    0.285487 0.208194 0.953990 0.266196
H10   H     H_    0.211348 0.270408 0.054051 0.255498
H11   H     H_    0.279750 0.177059 0.115739 0.293381
O10   O     O_3   0.554962 0.333333 0.867914 -0.625524
C38   C     C_3   0.644846 0.307926 0.894705 0.131075
H12   H     H_    0.653808 0.236943 0.852563 0.216435
H13   H     H_    0.658215 0.300331 0.995507 0.126352
C39   C     C_3   0.713082 0.377498 0.840626 -0.307431
H14   H     H_    0.688790 0.400174 0.747598 0.280287
H15   H     H_    0.720213 0.441027 0.902045 0.192625
C40   C     C_3   0.804922 0.332994 0.828602 -0.932675
H16   H     H_    0.854404 0.386608 0.798311 0.267871
H17   H     H_    0.800574 0.274774 0.758472 0.292898
H18   H     H_    0.828765 0.304653 0.918941 0.250664
F1    F     F_    0.599349 0.748933 0.672635 -0.627325
F2    F     F_    0.397525 0.745346 0.329967 -0.610374
O11   O     O_3   0.573181 0.749766 0.928839 -0.619236
C41   C     C_3   0.658435 0.707543 0.920255 0.181821
H19   H     H_    0.702230 0.757648 0.870730 0.226134
H20   H     H_    0.656158 0.641861 0.863419 0.212767
C42   C     C_3   0.702403 0.691642 0.048754 -0.395791
H21   H     H_    0.702365 0.758374 0.104117 0.267842
H22   H     H_    0.664377 0.636988 0.098632 0.249170
C43   C     C_3   0.799056 0.659326 0.038408 -0.951512
H23   H     H_    0.800677 0.591865 0.984941 0.279205
H24   H     H_    0.828928 0.648512 0.132792 0.261586
H25   H     H_    0.840128 0.713400 0.991552 0.275124
O12   O     O_3   0.374439 0.706331 0.074679 -0.598317
C44   C     C_3   0.314305 0.635583 0.114707 0.176051
H26   H     H_    0.259183 0.671941 0.161816 0.201788
H27   H     H_    0.344449 0.588659 0.185334 0.131084
C45   C     C_3   0.273012 0.579726 0.003103 -0.388395
H28   H     H_    0.245513 0.629411 0.933454 0.274332
H29   H     H_    0.324937 0.537325 0.958167 0.223595
C46   C     C_3   0.197538 0.513837 0.042259 -1.025614
H30   H     H_    0.222209 0.465838 0.115727 0.257161
H31   H     H_    0.171992 0.470924 0.960977 0.277514
H32   H     H_    0.141460 0.555550 0.078104 0.272682
F3    F     F_    0.429646 0.708117 0.850557 -0.630152
F4    F     F_    0.520882 0.730240 0.154516 -0.656128
F5    F     F_    0.233394 0.670368 0.547277 -0.617457
F6    F     F_    0.755415 0.595576 0.706217 -0.690943
O13   O     O_3   0.211272 0.330507 0.483644 -0.582688
C47   C     C_3   0.169891 0.308252 0.365237 0.208539
H33   H     H_    0.223032 0.286261 0.302683 0.216673
H34   H     H_    0.138626 0.369410 0.318061 0.093662
C48   C     C_3   0.100148 0.227291 0.373709 -0.307074
H35   H     H_    0.115974 0.183768 0.455851 0.229416
H36   H     H_    0.032311 0.256708 0.384385 0.261959
C49   C     C_3   0.096241 0.163583 0.258188 -1.010390
H37   H     H_    0.082643 0.205354 0.173715 0.270466
H38   H     H_    0.041416 0.110031 0.266014 0.274199
H39   H     H_    0.160690 0.126408 0.249508 0.294263
O14   O     O_3   0.782239 0.415389 0.328639 -0.637505
C50   C     C_3   0.791584 0.316682 0.334753 0.143478
H40   H     H_    0.750627 0.288448 0.410415 0.166218
H41   H     H_    0.862777 0.296498 0.351661 0.173399
C51   C     C_3   0.757706 0.272757 0.211481 -0.367285
H42   H     H_    0.683214 0.276089 0.205945 0.255300
H43   H     H_    0.785555 0.313986 0.134521 0.237061
C52   C     C_3   0.785718 0.170544 0.196141 -0.998315
H44   H     H_    0.860091 0.165260 0.203732 0.273415
H45   H     H_    0.762322 0.143399 0.103126 0.276664
H46   H     H_    0.754911 0.126187 0.267401 0.261231
O15   O     O_3   0.043622 0.334433 0.589578 -0.645506
C53   C     C_3   0.061410 0.302834 0.711197 0.068333
H47   H     H_    0.032481 0.352351 0.779674 0.141308
H48   H     H_    0.135158 0.296953 0.731290 0.150448
C54   C     C_3   0.017771 0.205303 0.724213 -0.329370
H49   H     H_    0.945012 0.208365 0.698376 0.234825
H50   H     H_    0.049184 0.154888 0.659691 0.218469
C55   C     C_3   0.028805 0.169413 0.856434 -0.966688
H51   H     H_    0.101036 0.168142 0.885773 0.270551
H52   H     H_    0.000186 0.096762 0.860666 0.275102
H53   H     H_    0.992559 0.215084 0.921619 0.267176
O16   O     O_3   0.968728 0.431988 0.357680 -0.632214
C56   C     C_3   0.988275 0.505467 0.274723 0.126472
H54   H     H_    0.062390 0.515998 0.274273 0.132018
H55   H     H_    0.960196 0.575376 0.300312 0.080305
C57   C     C_3   0.953348 0.478757 0.143327 -0.331309
H56   H     H_    0.878750 0.474396 0.140884 0.247121
H57   H     H_    0.973700 0.534958 0.078838 0.174162
C58   C     C_3   0.989621 0.384908 0.098159 -0.844669
H58   H     H_    0.063865 0.383759 0.109760 0.251088
H59   H     H_    0.971325 0.374752 0.998255 0.230837
H60   H     H_    0.960063 0.325861 0.150431 0.285379
O17   O     O_3   0.345590 0.055092 0.422301 -0.613745
C59   C     C_3   0.278259 0.068340 0.510224 0.122707
H61   H     H_    0.212574 0.050792 0.462651 0.171241
H62   H     H_    0.274536 0.142807 0.543778 0.181679
C60   C     C_3   0.290360 0.001946 0.620184 -0.366690
H63   H     H_    0.291515 0.927850 0.585373 0.269917
H64   H     H_    0.355120 0.018409 0.671004 0.226852
C61   C     C_3   0.214230 0.012260 0.710356 -0.917827
H65   H     H_    0.213359 0.085525 0.748028 0.256250
H66   H     H_    0.224506 0.963430 0.788780 0.292421
H67   H     H_    0.148393 0.994908 0.662872 0.262173
O18   O     O_3   0.650476 0.066221 0.603127 -0.613503
C62   C     C_3   0.719567 0.067292 0.516844 0.118581
H68   H     H_    0.733344 0.139908 0.484791 0.153015
H69   H     H_    0.700556 0.020679 0.435606 0.135738
C63   C     C_3   0.805873 0.031566 0.579136 -0.307400
H70   H     H_    0.821536 0.073486 0.665479 0.230355
H71   H     H_    0.795961 0.956585 0.604547 0.235000
C64   C     C_3   0.885210 0.040094 0.493584 -0.998644
H72   H     H_    0.871458 0.998426 0.406657 0.276865
H73   H     H_    0.946600 0.012900 0.541034 0.270856
H74   H     H_    0.897852 0.115048 0.470141 0.264583
F7    F     F_    0.361982 0.247199 0.391507 -0.649945
F8    F     F_    0.640481 0.258230 0.605830 -0.663557

loop_
_geom_bond_atom_site_label_1
_geom_bond_atom_site_label_2
_ccdc_geom_bond_type
C56   C57   S    
C39   H15   S    
C36   H7    S    
C38   H13   S    
C46   H30   S    
C7    C29   A    
C15   C18   A    
C14   C18   A    
C19   C23   S    
C64   H72   S    
C41   C42   S    
C44   H26   S    
C25   O9    S    
O17   C59   S    
C1    C33   S    
O15   C53   S    
C51   H42   S    
C48   H36   S    
O6    Zn1   S    
O13   C47   S    
C13   C18   S    
O18   C62   S    
C64   H73   S    
C24   C26   A    
C59   H61   S    
C58   H59   S    
C47   H34   S    
C19   O7    A    
C39   C40   S    
C3    C33   A    
C37   H10   S    
N2    Zn1   S    
C49   H37   S    
C30   H4    S    
C47   C48   S    
C15   C17   A    
C9    O17   S    
C40   H17   S    
C9    C13   A    
C1    O3    A    
C62   H68   S    
C20   C24   S    
C2    O4    A    
C31   C33   A    
C31   F5    S    
C35   C36   S    
C50   C51   S    
C2    C34   S    
C37   H11   S    
C56   H54   S    
C39   H14   S    
C4    O14   S    
C38   C39   S    
C62   H69   S    
C36   C37   S    
C21   C22   A    
C11   F7    S    
C60   H64   S    
C47   H33   S    
C27   O11   S    
O1    Zn1   S    
O14   C50   S    
C35   H6    S    
O7    Zn2   S    
C59   H62   S    
C52   H45   S    
C48   C49   S    
C4    C34   A    
O9    C35   S    
C63   C64   S    
C7    C8    S    
C64   H74   S    
C41   H19   S    
C4    C6    A    
C51   H43   S    
C58   H60   S    
C10   O18   S    
C14   H1    S    
C5    C7    A    
O12   C44   S    
C6    C8    A    
C37   H9    S    
C10   C13   A    
C16   F1    S    
C17   N2    A    
C32   C34   A    
C40   H18   S    
C55   H52   S    
O11   C41   S    
C54   H50   S    
O10   C38   S    
C28   F4    S    
C59   C60   S    
C45   H29   S    
C61   H67   S    
O5    Zn1   S    
C49   H39   S    
C11   N1    A    
C9    C11   A    
C20   O8    A    
C10   C12   A    
C16   N2    A    
C53   C54   S    
C1    O1    A    
C21   C28   S    
C61   H66   S    
C46   H32   S    
C43   H24   S    
C22   C27   S    
C21   C23   A    
C28   O12   S    
C17   F2    S    
C22   C24   A    
C42   H21   S    
C60   C61   S    
C55   H53   S    
C54   H49   S    
C15   H2    S    
C35   H5    S    
C45   C46   S    
C53   H48   S    
C50   H40   S    
C52   H46   S    
O4    Zn2   S    
C56   H55   S    
C27   F3    S    
C41   H20   S    
C3    C5    A    
C57   C58   S    
C12   F8    S    
C42   C43   S    
C52   H44   S    
C19   O5    A    
O3    Zn2   S    
O16   C56   S    
C57   H57   S    
C62   C63   S    
C43   H25   S    
C48   H35   S    
C5    O15   S    
C42   H22   S    
C51   C52   S    
C8    C30   A    
C63   H70   S    
C12   N1    A    
C36   H8    S    
C55   H51   S    
C25   C26   A    
C54   C55   S    
C29   C31   A    
C58   H58   S    
C30   C32   A    
C3    O13   S    
C45   H28   S    
C46   H31   S    
C2    O2    A    
O8    Zn2   S    
C49   H38   S    
C14   C16   A    
C23   C25   A    
C26   O10   S    
C40   H16   S    
C57   H56   S    
O2    Zn1   S    
C38   H12   S    
C32   F6    S    
N1    Zn2   S    
C61   H65   S    
C6    O16   S    
C43   H23   S    
C44   C45   S    
C29   H3    S    
C27   C28   S    
C44   H27   S    
C60   H63   S    
C20   O6    A    
C63   H71   S    
C53   H47   S    
C50   H41   S    
