data_mof_unit_60827.cif
_audit_creation_date              2012-12-10T20:13:34-0500
_audit_creation_method            fapswitch 2.2
_symmetry_space_group_name_H-M    P1
_symmetry_Int_Tables_number       1
_space_group_crystal_system       triclinic
_cell_length_a                    15.90792
_cell_length_b                    15.90797
_cell_length_c                    39.825825
_cell_angle_alpha                 89.962958
_cell_angle_beta                  90.037307
_cell_angle_gamma                 90.066836
_cell_volume                      10078.4202718

loop_
_atom_site_label
_atom_site_type_symbol
_atom_type_description
_atom_site_fract_x
_atom_site_fract_y
_atom_site_fract_z
_atom_type_partial_charge
C1    C     C_R   0.997023 0.505920 0.948432 -0.044013
C2    C     C_1   0.999178 0.503798 0.014870 0.124644
C3    C     C_2   0.541262 0.159009 0.052076 0.629429
C4    C     C_2   0.854063 0.437645 0.949871 0.630701
C5    C     C_2   0.120830 0.604355 0.050049 0.629020
C6    C     C_2   0.610634 0.122861 0.948387 0.644789
C7    C     C_2   0.471525 0.850460 0.048768 0.634129
C8    C     C_2   0.658927 0.041635 0.447920 0.629408
C9    C     C_2   0.385345 0.903037 0.547673 0.649100
C10   C     C_2   0.898704 0.381039 0.450759 0.652036
C11   C     C_2   0.071973 0.639708 0.550081 0.630184
C12   C     C_2   0.350527 0.971214 0.451235 0.634116
C13   C     C_1   0.508626 0.006152 0.985207 0.121313
C14   C     C_2   0.622783 0.110729 0.551616 0.644763
C15   C     C_2   0.104333 0.620862 0.449949 0.629027
C16   C     C_2   0.937696 0.354052 0.550126 0.630721
C17   C     C_2   0.142762 0.565743 0.876281 0.611083
C18   C     C_2   0.880404 0.396468 0.122286 0.635929
C19   C     C_2   0.396171 0.883158 0.879202 0.635736
C20   C     C_2   0.540016 0.154216 0.125370 0.629122
C21   C     C_2   0.853811 0.437913 0.876947 0.616830
C22   C     C_2   0.120539 0.603787 0.123174 0.646278
C23   C     C_2   0.604021 0.122784 0.875488 0.641542
C24   C     C_1   0.510183 0.005970 0.015415 0.121235
C25   C     C_2   0.469177 0.846417 0.121997 0.617320
C26   C     C_2   0.654129 0.040366 0.374627 0.629223
C27   C     C_2   0.383215 0.896107 0.620795 0.635750
C28   C     C_2   0.896495 0.380385 0.377716 0.635907
C29   C     C_2   0.065702 0.642783 0.623722 0.611070
C30   C     C_2   0.346484 0.968830 0.378009 0.617295
C31   C     C_2   0.622740 0.104078 0.624513 0.641543
C32   C     C_2   0.103763 0.620564 0.376823 0.646262
C33   C     C_2   0.937963 0.353792 0.623050 0.616821
C34   C     C_1   0.505965 0.010204 0.484585 0.121187
C35   C     C_1   0.506151 0.008645 0.514792 0.121255
C36   C     C_1   0.003807 0.499187 0.485130 0.124636
C37   C     C_1   0.005043 0.498186 0.515308 0.126011
C38   C     C_R   0.500093 0.000217 0.841017 0.572457
C39   C     C_R   0.499942 0.999183 0.159120 0.568910
C40   C     C_R   0.999043 0.499923 0.840909 0.557681
C41   C     C_R   0.000110 0.502205 0.051129 -0.047217
C42   C     C_R   0.000097 0.500055 0.158996 0.572161
C43   C     C_R   0.000055 0.500098 0.341004 0.572180
C44   C     C_R   0.999923 0.499043 0.659091 0.557703
C45   C     C_R   0.499177 0.999942 0.340880 0.568820
C46   C     C_R   0.500217 0.000093 0.658983 0.572432
C47   C     C_R   0.660079 0.160079 0.750000 0.513803
C48   C     C_R   0.339920 0.839920 0.250000 0.513629
C49   C     C_R   0.839908 0.660085 0.749992 0.521845
C50   C     C_R   0.160102 0.339924 0.250002 0.523604
C51   C     C_R   0.339932 0.839932 0.750000 0.533452
C52   C     C_R   0.505829 0.004917 0.948917 -0.048385
C53   C     C_R   0.660067 0.160067 0.250000 0.519020
C54   C     C_R   0.160085 0.339908 0.750008 0.521844
C55   C     C_R   0.839924 0.660102 0.249998 0.523607
C56   C     C_R   0.660088 0.839913 0.250010 0.522354
C57   C     C_R   0.339924 0.160101 0.749997 0.523387
C58   C     C_R   0.839933 0.339932 0.250000 0.534416
C59   C     C_R   0.160067 0.660067 0.750000 0.518251
C60   C     C_R   0.339913 0.160088 0.249990 0.522335
C61   C     C_R   0.660102 0.839924 0.750003 0.523390
C62   C     C_R   0.160079 0.660079 0.250000 0.514133
C63   C     C_R   0.510852 0.003739 0.051711 -0.048289
C64   C     C_R   0.839920 0.339920 0.750000 0.509653
C65   C     C_1   0.276659 0.223377 0.749998 0.013556
C66   C     C_1   0.723357 0.776643 0.250014 0.013458
C67   C     C_1   0.776650 0.276650 0.750000 0.002762
C68   C     C_1   0.223348 0.723348 0.250000 0.002049
C69   C     C_1   0.723378 0.776659 0.750002 0.013556
C70   C     C_1   0.276643 0.223357 0.249986 0.013451
C71   C     C_1   0.223346 0.723346 0.750000 0.010271
C72   C     C_1   0.776653 0.276653 0.250000 0.015016
C73   C     C_1   0.276650 0.776650 0.250000 0.006557
C74   C     C_R   0.503726 0.010866 0.448289 -0.048288
C75   C     C_1   0.723349 0.223348 0.750000 0.000582
C76   C     C_1   0.776661 0.723381 0.249999 0.013383
C77   C     C_1   0.223354 0.276638 0.750011 0.013854
C78   C     C_1   0.723346 0.223346 0.250000 0.009970
C79   C     C_1   0.276653 0.776652 0.750000 0.016015
C80   C     C_1   0.223381 0.276661 0.250001 0.013376
C81   C     C_1   0.776638 0.723354 0.749989 0.013855
C82   C     C_R   0.066612 0.538882 0.930822 0.023771
C83   C     C_R   0.942476 0.450480 0.068463 0.024930
C84   C     C_R   0.453185 0.946673 0.932316 0.027211
C85   C     C_R   0.504919 0.005840 0.551083 -0.048384
C86   C     C_R   0.525405 0.078453 0.070036 0.024542
C87   C     C_R   0.927522 0.471755 0.931030 0.029415
C88   C     C_R   0.058336 0.552642 0.068793 0.022583
C89   C     C_R   0.556096 0.061622 0.930477 0.015880
C90   C     C_R   0.490653 0.927900 0.068437 0.028337
C91   C     C_R   0.578404 0.025589 0.429962 0.024526
C92   C     C_R   0.446712 0.953151 0.567683 0.027209
C93   C     C_R   0.950499 0.442471 0.431538 0.024934
C94   C     C_R   0.038871 0.566627 0.569179 0.023771
C95   C     C_R   0.427929 0.990496 0.431565 0.028351
C96   C     C_R   0.002212 0.500118 0.448871 -0.047221
C97   C     C_R   0.561588 0.056142 0.569524 0.015880
C98   C     C_R   0.052635 0.558354 0.431206 0.022585
C99   C     C_R   0.971784 0.427519 0.568969 0.029417
C100  C     C_R   0.067930 0.535902 0.895347 0.010089
C101  C     C_R   0.942175 0.449845 0.103958 0.004260
C102  C     C_R   0.450854 0.945112 0.896790 0.004218
C103  C     C_R   0.520691 0.077149 0.105491 0.012452
C104  C     C_R   0.928834 0.468507 0.895586 0.013735
C105  C     C_R   0.058789 0.551534 0.104301 0.009566
C106  C     C_R   0.553029 0.061192 0.895023 0.008337
C107  C     C_R   0.005930 0.497030 0.551568 -0.044016
C108  C     C_R   0.485147 0.926794 0.103876 0.010779
C109  C     C_R   0.577105 0.020871 0.394507 0.012473
C110  C     C_R   0.445145 0.950821 0.603209 0.004207
C111  C     C_R   0.949860 0.442169 0.396043 0.004255
C112  C     C_R   0.035884 0.567944 0.604654 0.010082
C113  C     C_R   0.426831 0.984979 0.396126 0.010779
C114  C     C_R   0.561166 0.053064 0.604978 0.008340
C115  C     C_R   0.051524 0.558804 0.395698 0.009565
C116  C     C_R   0.968532 0.428827 0.604412 0.013728
C117  C     C_R   0.999322 0.499833 0.877888 -0.030468
C118  C     C_1   0.998177 0.505032 0.984692 0.126022
C119  C     C_R   0.000454 0.500344 0.121855 -0.041350
C120  C     C_R   0.500849 0.002440 0.878169 -0.040254
C121  C     C_R   0.499826 0.001494 0.122203 -0.032519
C122  C     C_R   0.501495 0.999829 0.377797 -0.032540
C123  C     C_R   0.502442 0.000849 0.621831 -0.040256
C124  C     C_R   0.000346 0.500458 0.378144 -0.041348
C125  C     C_R   0.999834 0.499324 0.622112 -0.030461
C126  C     C_2   0.139686 0.571996 0.949922 0.630177
C127  C     C_2   0.881056 0.398670 0.049243 0.652033
C128  C     C_2   0.403123 0.885258 0.952323 0.649060
H1    H     H_    0.233318 0.547762 0.982661 0.363244
H2    H     H_    0.365930 0.822261 0.509407 0.370900
H3    H     H_    0.812938 0.361871 0.487253 0.369665
H4    H     H_    0.047725 0.733337 0.517343 0.363255
H5    H     H_    0.252374 0.893026 0.458820 0.358720
H6    H     H_    0.744041 0.142541 0.544126 0.363169
H7    H     H_    0.136826 0.742421 0.456372 0.357418
H8    H     H_    0.843201 0.270724 0.544210 0.353030
H9    H     H_    0.229748 0.540527 0.840847 0.344098
H10   H     H_    0.828744 0.281629 0.128444 0.367068
H11   H     H_    0.280793 0.831806 0.874361 0.373216
H12   H     H_    0.861907 0.312904 0.012747 0.369667
H13   H     H_    0.507393 0.231091 0.163475 0.341839
H14   H     H_    0.804948 0.353737 0.844475 0.345540
H15   H     H_    0.208757 0.609214 0.159537 0.344466
H16   H     H_    0.607150 0.209903 0.838661 0.342824
H17   H     H_    0.401498 0.784041 0.156879 0.341904
H18   H     H_    0.731073 0.007913 0.336521 0.341848
H19   H     H_    0.331923 0.780703 0.625634 0.373213
H20   H     H_    0.781668 0.328693 0.371562 0.367118
H21   H     H_    0.040460 0.729757 0.659156 0.344100
H22   H     H_    0.284222 0.900957 0.343154 0.341929
H23   H     H_    0.322389 0.865757 0.990597 0.370891
H24   H     H_    0.709867 0.107233 0.661337 0.342829
H25   H     H_    0.109172 0.708775 0.340458 0.344443
H26   H     H_    0.853820 0.304903 0.655531 0.345523
H27   H     H_    0.511324 0.281417 0.046507 0.369339
H28   H     H_    0.770756 0.343129 0.955783 0.353054
H29   H     H_    0.242382 0.636876 0.043624 0.357451
H30   H     H_    0.642393 0.244140 0.955859 0.363194
H31   H     H_    0.393525 0.752160 0.041181 0.358768
H32   H     H_    0.781404 0.011974 0.453488 0.369352
O1    O     O_3   0.500000 1.000000 0.750000 -0.473302
O2    O     O_R   0.430670 1.000000 0.175110 -0.465681
O3    O     O_R   0.405993 0.841867 0.146309 -0.651745
O4    O     O_2   0.695951 0.102807 0.381191 -0.452902
O5    O     O_R   0.678281 0.987630 0.348266 -0.677087
O6    O     O_2   0.338045 0.925379 0.642696 -0.490082
O7    O     O_R   0.376386 0.811249 0.612061 -0.622990
O8    O     O_2   0.927280 0.335972 0.355898 -0.489810
O9    O     O_R   0.811180 0.372914 0.385617 -0.629758
O10   O     O_2   0.136535 0.670430 0.619243 -0.438751
O11   O     O_R   0.012955 0.680273 0.647448 -0.683130
O12   O     O_2   0.284224 0.010849 0.384465 -0.457196
O13   O     O_R   0.000000 0.569330 0.824890 -0.526216
O14   O     O_R   0.342043 0.905582 0.353720 -0.651539
O15   O     O_2   0.630918 0.179145 0.618692 -0.443549
O16   O     O_R   0.670958 0.066045 0.649651 -0.677315
O17   O     O_2   0.178601 0.628027 0.383236 -0.441393
O18   O     O_R   0.067201 0.669800 0.351652 -0.676320
O19   O     O_2   0.972925 0.286052 0.619231 -0.466167
O20   O     O_R   0.868529 0.360293 0.644366 -0.629186
O21   O     O_R   0.000000 0.430670 0.175110 -0.507697
O22   O     O_R   0.930670 0.500000 0.324890 -0.507690
O23   O     O_R   0.069330 0.500000 0.675110 -0.526229
O24   O     O_R   0.500000 0.930670 0.324890 -0.465734
O25   O     O_R   0.500000 0.069330 0.675110 -0.511596
O26   O     O_R   0.069330 0.500000 0.324890 -0.511302
O27   O     O_R   0.930670 0.500000 0.675110 -0.473878
O28   O     O_R   0.500000 0.069330 0.324890 -0.531589
O29   O     O_3   0.500000 1.000000 0.250000 -0.474864
O30   O     O_R   0.500000 0.930670 0.675110 -0.506855
O31   O     O_R   0.666560 0.097440 0.769680 -0.522523
O32   O     O_R   0.333440 0.902560 0.230320 -0.518850
O33   O     O_R   0.902560 0.666560 0.769680 -0.528616
O34   O     O_R   0.097440 0.333440 0.230320 -0.525202
O35   O     O_R   0.333440 0.902560 0.769680 -0.520568
O36   O     O_R   0.666560 0.097440 0.230320 -0.524600
O37   O     O_R   0.097440 0.333440 0.769680 -0.519418
O38   O     O_R   0.902560 0.666560 0.230320 -0.525860
O39   O     O_R   0.666560 0.902560 0.230320 -0.529241
O40   O     O_3   0.000000 0.500000 0.750000 -0.475978
O41   O     O_R   0.333440 0.097440 0.769680 -0.525129
O42   O     O_R   0.902560 0.333440 0.230320 -0.520811
O43   O     O_R   0.097440 0.666560 0.769680 -0.522279
O44   O     O_R   0.333440 0.097440 0.230320 -0.518846
O45   O     O_R   0.666560 0.902560 0.769680 -0.525690
O46   O     O_R   0.097440 0.666560 0.230320 -0.523073
O47   O     O_R   0.902560 0.333440 0.769680 -0.519755
O48   O     O_R   0.166560 0.597440 0.269680 -0.523079
O49   O     O_R   0.833440 0.402560 0.730320 -0.519742
O50   O     O_R   0.402560 0.166560 0.269680 -0.529264
O51   O     O_3   1.000000 0.500000 0.250000 -0.473041
O52   O     O_R   0.597440 0.833440 0.730320 -0.525131
O53   O     O_R   0.833440 0.402560 0.269680 -0.520807
O54   O     O_R   0.166560 0.597440 0.730320 -0.522278
O55   O     O_R   0.597440 0.833440 0.269680 -0.518863
O56   O     O_R   0.402560 0.166560 0.730320 -0.525691
O57   O     O_R   0.166560 0.402560 0.730320 -0.528617
O58   O     O_R   0.833440 0.597440 0.269680 -0.525204
O59   O     O_R   0.402560 0.833440 0.730320 -0.520559
O60   O     O_R   0.597440 0.166560 0.269680 -0.524576
O61   O     O_R   0.833440 0.597440 0.730320 -0.519418
O62   O     O_R   0.430670 1.000000 0.824890 -0.506852
O63   O     O_R   0.166560 0.402560 0.269680 -0.525864
O64   O     O_R   0.597440 0.166560 0.730320 -0.522521
O65   O     O_R   0.402560 0.833440 0.269680 -0.518871
O66   O     O_2   0.157768 0.646601 0.948385 -0.398363
O67   O     O_R   0.185850 0.517911 0.970538 -0.659964
O68   O     O_2   0.805995 0.402944 0.055638 -0.423952
O69   O     O_R   0.909394 0.345139 0.023838 -0.649228
O70   O     O_2   0.406303 0.810255 0.945717 -0.427007
O71   O     O_R   0.352883 0.913372 0.978824 -0.656935
O72   O     O_2   0.595135 0.162826 0.030269 -0.448033
O73   O     O_R   0.569330 1.000000 0.175110 -0.531631
O74   O     O_R   0.494650 0.230532 0.060333 -0.633815
O75   O     O_2   0.822901 0.478146 0.972787 -0.460499
O76   O     O_R   0.820446 0.359333 0.941222 -0.628807
O77   O     O_2   0.097512 0.651862 0.027766 -0.454280
O78   O     O_R   0.206260 0.598606 0.058007 -0.638395
O79   O     O_2   0.663357 0.097834 0.968374 -0.425352
O80   O     O_R   0.601989 0.208879 0.942094 -0.632248
O81   O     O_2   0.518216 0.828402 0.026042 -0.456527
O82   O     O_R   0.399898 0.803022 0.056303 -0.637469
O83   O     O_2   0.662629 0.095533 0.469720 -0.447991
O84   O     O_R   0.000000 0.430670 0.824890 -0.473904
O85   O     O_R   0.730551 0.995174 0.439667 -0.633820
O86   O     O_2   0.310336 0.906170 0.554270 -0.426945
O87   O     O_R   0.413514 0.852800 0.521181 -0.656910
O88   O     O_2   0.903001 0.305979 0.444365 -0.424008
O89   O     O_R   0.845163 0.409365 0.476162 -0.649213
O90   O     O_2   0.146575 0.657800 0.551617 -0.398360
O91   O     O_R   0.017881 0.685864 0.529466 -0.659949
O92   O     O_2   0.328378 0.017862 0.473961 -0.456534
O93   O     O_R   0.303227 0.899496 0.443700 -0.637427
O94   O     O_2   0.597708 0.163474 0.531648 -0.425257
O95   O     O_R   1.000000 0.569330 0.175110 -0.511298
O96   O     O_R   0.708813 0.102106 0.557889 -0.632287
O97   O     O_2   0.151846 0.597557 0.472232 -0.454290
O98   O     O_R   0.098563 0.706290 0.441990 -0.638379
O99   O     O_2   0.978210 0.322901 0.527211 -0.460502
O100  O     O_R   0.859389 0.320417 0.558771 -0.628822
O101  O     O_2   0.170385 0.636585 0.880759 -0.438765
O102  O     O_R   0.180273 0.513006 0.852555 -0.683130
O103  O     O_2   0.835977 0.427247 0.144100 -0.489779
O104  O     O_R   0.872958 0.311150 0.114388 -0.629795
O105  O     O_2   0.425464 0.838012 0.857296 -0.490113
O106  O     O_R   0.569330 1.000000 0.824890 -0.511593
O107  O     O_R   0.311318 0.876280 0.887937 -0.622973
O108  O     O_2   0.602365 0.196174 0.118805 -0.452855
O109  O     O_R   0.487225 0.178256 0.151729 -0.677053
O110  O     O_2   0.786065 0.472871 0.880757 -0.466188
O111  O     O_R   0.860331 0.368462 0.855642 -0.629143
O112  O     O_2   0.127980 0.678627 0.116763 -0.441393
O113  O     O_R   0.169791 0.567234 0.148343 -0.676313
O114  O     O_2   0.679083 0.130997 0.881313 -0.443563
O115  O     O_R   0.565975 0.170978 0.850346 -0.677321
O116  O     O_2   0.511293 0.784232 0.115528 -0.457129
Zn1   Zn    Zn3+2 0.500000 0.098940 0.722030 1.013914
Zn2   Zn    Zn3+2 0.000000 0.401060 0.777970 1.019453
Zn3   Zn    Zn3+2 0.401060 1.000000 0.222030 1.024141
Zn4   Zn    Zn3+2 0.598940 1.000000 0.777970 1.013920
Zn5   Zn    Zn3+2 0.000000 0.401060 0.222030 1.021743
Zn6   Zn    Zn3+2 0.000000 0.598940 0.777970 1.001771
Zn7   Zn    Zn3+2 0.598940 1.000000 0.222030 0.998757
Zn8   Zn    Zn3+2 0.401060 1.000000 0.777970 1.021770
Zn9   Zn    Zn3+2 0.500000 0.901060 0.277970 1.024117
Zn10  Zn    Zn3+2 0.901060 0.500000 0.722030 1.019467
Zn11  Zn    Zn3+2 0.098940 0.500000 0.277970 1.013517
Zn12  Zn    Zn3+2 0.500000 0.901060 0.722030 1.021770
Zn13  Zn    Zn3+2 0.500000 0.098940 0.277970 0.998748
Zn14  Zn    Zn3+2 0.098940 0.500000 0.722030 1.001768
Zn15  Zn    Zn3+2 0.901060 0.500000 0.277970 1.021750
Zn16  Zn    Zn3+2 0.000000 0.598940 0.222030 1.013523

loop_
_geom_bond_atom_site_label_1
_geom_bond_atom_site_label_2
_ccdc_geom_bond_type
O60   Zn13  S    
C84   C128  S    
O22   Zn15  S    
C32   C115  S    
C47   O64   A    
C26   O5    S    
C1    C87   A    
O24   Zn9   S    
C48   O65   A    
O29   Zn9   S    
C33   O19   D    
C84   C102  A    
O56   Zn1   S    
C29   C112  S    
C126  O67   S    
C108  C121  A    
O36   Zn7   S    
C58   C72   S    
C20   O108  D    
C71   C79   T    
O28   Zn13  S    
C2    C118  T    
O1    Zn8   S    
C49   O61   A    
C54   C77   S    
C4    C87   S    
C31   O15   D    
C18   O104  S    
O29   Zn3   S    
C21   O111  S    
O59   Zn12  S    
O33   Zn6   S    
C54   O37   A    
C5    O77   D    
C14   C97   S    
H16   O115  S    
C19   O107  S    
C36   C37   T    
C95   C113  A    
C44   O27   A    
C37   C107  S    
C25   O116  D    
H26   O20   S    
O26   Zn11  S    
C3    O74   S    
C40   O13   A    
O53   Zn15  S    
C19   C102  S    
C56   C66   S    
C109  C122  A    
C48   O32   A    
C55   O38   A    
C2    C41   S    
C61   C69   S    
C41   C83   A    
C127  O69   S    
O40   Zn10  S    
C63   C90   A    
C34   C35   T    
C49   C81   S    
C17   O102  S    
C52   C84   A    
O51   Zn15  S    
H14   O111  S    
C82   C126  S    
C56   O55   A    
C72   C78   T    
C20   O109  S    
C5    C88   S    
C23   O115  S    
C60   O44   A    
H23   O71   S    
C113  C122  A    
C27   C110  S    
H7    O98   S    
C14   O96   S    
O38   Zn16  S    
C89   C106  A    
H8    O100  S    
O34   Zn5   S    
C106  C120  A    
C12   C95   S    
O25   Zn1   S    
O51   Zn5   S    
O50   Zn13  S    
H13   O109  S    
C29   O10   D    
C10   C93   S    
C31   C114  S    
C15   O97   D    
O1    Zn12  S    
O58   Zn15  S    
C19   O105  D    
C56   O39   A    
C38   C120  S    
H9    O102  S    
C53   O60   A    
C40   C117  S    
C66   C76   T    
H12   O69   S    
C42   O21   A    
C12   O92   D    
C33   O20   S    
C47   O31   A    
C4    O76   S    
C32   O18   S    
C52   C89   A    
C126  O66   D    
C46   O30   A    
C9    O87   S    
C86   C103  A    
C48   C73   S    
O41   Zn8   S    
C62   O48   A    
C90   C108  A    
C85   C92   A    
C21   O110  D    
C55   O58   A    
C51   C79   S    
C31   O16   S    
C69   C81   T    
C28   C111  S    
O52   Zn12  S    
C50   O63   A    
C64   O47   A    
C94   C107  A    
C59   O54   A    
C11   O90   D    
O40   Zn6   S    
C5    O78   S    
C70   C80   T    
C101  C119  A    
C64   C67   S    
C32   O17   D    
C65   C77   T    
O62   Zn8   S    
H5    O93   S    
C99   C116  A    
C20   C103  S    
C16   O99   D    
C28   O8    D    
C91   C109  A    
O48   Zn11  S    
O13   Zn6   S    
H17   O3    S    
H27   O74   S    
C51   O59   A    
C68   C73   T    
C7    C90   S    
C6    O80   S    
C11   O91   S    
H28   O76   S    
O55   Zn9   S    
C13   C24   T    
C96   C98   A    
O35   Zn8   S    
C61   O52   A    
O65   Zn9   S    
C74   C91   A    
C3    C86   S    
O51   Zn16  S    
C58   O53   A    
O21   Zn5   S    
O95   Zn16  S    
C12   O93   S    
C110  C123  A    
C13   C52   S    
O45   Zn4   S    
C36   C96   S    
C14   O94   D    
C57   O56   A    
C60   C70   S    
O2    Zn3   S    
O39   Zn7   S    
H1    O67   S    
O84   Zn2   S    
H20   O9    S    
C43   O26   A    
O51   Zn11  S    
H29   O78   S    
H31   O82   S    
C8    C91   S    
C29   O11   S    
C39   O2    A    
O46   Zn16  S    
C9    O86   D    
C44   O23   A    
C30   O12   D    
C112  C125  A    
C40   O84   A    
C15   O98   S    
H19   O7    S    
C34   C74   S    
O47   Zn2   S    
O29   Zn13  S    
C55   C76   S    
C11   C94   S    
H22   O14   S    
H18   O5    S    
C93   C111  A    
C8    O85   S    
C44   C125  S    
C128  O71   S    
O40   Zn2   S    
C116  C125  A    
C21   C104  S    
C63   C86   A    
C127  O68   D    
C7    O81   D    
C4    O75   D    
O63   Zn11  S    
C46   C123  S    
H30   O80   S    
C10   O88   D    
O37   Zn2   S    
C15   C98   S    
C57   O41   A    
C103  C121  A    
O57   Zn14  S    
C102  C120  A    
C114  C123  A    
C54   O57   A    
C39   O73   A    
C104  C117  A    
C38   O106  A    
C22   O112  D    
C53   O36   A    
C41   C88   A    
H11   O107  S    
H25   O18   S    
C35   C85   S    
C33   C116  S    
C128  O70   D    
C115  C124  A    
C83   C101  A    
C62   O46   A    
O73   Zn7   S    
C111  C124  A    
H21   O11   S    
C82   C100  A    
C74   C95   A    
C16   C99   S    
O23   Zn14  S    
H10   O104  S    
O1    Zn4   S    
C50   C80   S    
C3    O72   D    
H2    O87   S    
C22   O113  S    
C45   O28   A    
O49   Zn10  S    
O54   Zn14  S    
H32   O85   S    
C45   C122  S    
C93   C96   A    
C6    C89   S    
C99   C107  A    
C6    O79   D    
C8    O83   D    
C43   O22   A    
O44   Zn3   S    
C62   C68   S    
C64   O49   A    
C10   O89   S    
O106  Zn4   S    
C38   O62   A    
C53   C78   S    
C1    C82   A    
C47   C75   S    
C18   O103  D    
C51   O35   A    
C9    C92   S    
C45   O24   A    
C88   C105  A    
C23   C106  S    
O43   Zn6   S    
C92   C110  A    
C98   C115  A    
H4    O91   S    
C26   C109  S    
C49   O33   A    
C42   O95   A    
C25   O3    S    
C16   O100  S    
O64   Zn1   S    
O29   Zn7   S    
C7    O82   S    
C94   C112  A    
O27   Zn10  S    
C30   O14   S    
O30   Zn12  S    
C1    C118  S    
C60   O50   A    
C22   C105  S    
C17   O101  D    
O61   Zn10  S    
C42   C119  S    
C17   C100  S    
C83   C127  S    
O31   Zn4   S    
C26   O4    D    
C85   C97   A    
C24   C63   S    
C27   O6    D    
H6    O96   S    
C87   C104  A    
H24   O16   S    
O32   Zn3   S    
C59   O43   A    
C28   O9    S    
C67   C75   T    
O42   Zn5   S    
C61   O45   A    
H15   O113  S    
C23   O114  D    
O40   Zn14  S    
C50   O34   A    
C105  C119  A    
O1    Zn1   S    
C100  C117  A    
C97   C114  A    
C46   O25   A    
C58   O42   A    
C43   C124  S    
C18   C101  S    
C27   O7    S    
H3    O89   S    
C25   C108  S    
C59   C71   S    
C39   C121  S    
C57   C65   S    
C30   C113  S    
