data_mof_unit_6852.cif
_audit_creation_date              2012-12-10T20:40:55-0500
_audit_creation_method            fapswitch 2.2
_symmetry_space_group_name_H-M    P1
_symmetry_Int_Tables_number       1
_space_group_crystal_system       triclinic
_cell_length_a                    27.407774
_cell_length_b                    10.749733
_cell_length_c                    10.00219
_cell_angle_alpha                 89.647014
_cell_angle_beta                  91.140281
_cell_angle_gamma                 89.811082
_cell_volume                      2946.25102728

loop_
_atom_site_label
_atom_site_type_symbol
_atom_type_description
_atom_site_fract_x
_atom_site_fract_y
_atom_site_fract_z
_atom_type_partial_charge
C1    C     C_R   0.497580 0.261135 0.500621 0.972352
C2    C     C_R   0.279054 0.423287 0.604177 0.297234
C3    C     C_R   0.251796 0.492312 0.507362 0.227408
C4    C     C_R   0.099526 0.457515 0.519176 -0.156450
C5    C     C_R   0.128469 0.352651 0.487896 -0.043641
C6    C     C_R   0.105699 0.234843 0.475280 0.219017
C7    C     C_R   0.121134 0.575784 0.530629 -0.191833
C8    C     C_R   0.353272 0.497306 0.500841 -0.077362
C9    C     C_R   0.646215 0.474535 0.507486 -0.247505
C10   C     C_R   0.974474 0.320948 0.519201 0.067200
C11   C     C_R   0.972871 0.526897 0.622402 0.042603
C12   C     C_R   0.406186 0.500172 0.499392 0.874914
C13   C     C_R   0.948378 0.419055 0.579076 0.085255
C14   C     C_R   0.948059 0.219497 0.465965 -0.236732
C15   C     C_R   0.897381 0.216967 0.469766 -0.142708
C16   C     C_R   0.871675 0.313032 0.531142 -0.009734
C17   C     C_R   0.897315 0.411299 0.592460 -0.110024
C18   C     C_R   0.871808 0.503999 0.662804 -0.070718
C19   C     C_R   0.820567 0.497851 0.663568 0.573932
C20   C     C_R   0.820712 0.317774 0.525209 0.506451
C21   C     C_R   0.711903 0.341911 0.589653 -0.257505
C22   C     C_R   0.662476 0.359730 0.560557 0.444556
C23   C     C_R   0.497354 0.739471 0.499582 0.944375
C24   C     C_R   0.680045 0.566597 0.470903 0.041600
C25   C     C_R   0.730202 0.543660 0.491251 0.251376
C26   C     C_R   0.745719 0.432716 0.555588 0.157439
C27   C     C_R   0.025960 0.329061 0.513279 0.030339
C28   C     C_R   0.048838 0.444813 0.537893 0.039044
C29   C     C_R   0.021123 0.548235 0.580823 -0.089116
C30   C     C_R   0.055213 0.225484 0.484071 -0.248740
C31   C     C_R   0.091285 0.681818 0.541724 0.546028
C32   C     C_R   0.948640 0.608604 0.707758 -0.305091
C33   C     C_R   0.898417 0.600412 0.726202 0.233068
C34   C     C_R   0.593840 0.498082 0.501410 0.946635
C35   C     C_R   0.041841 0.669262 0.572709 0.084684
C36   C     C_R   0.515235 0.063560 0.606479 -0.129899
C37   C     C_R   0.492609 0.129582 0.502741 -0.172847
C38   C     C_R   0.465454 0.067770 0.402591 0.085315
C39   C     C_R   0.466445 0.937052 0.400146 0.487831
C40   C     C_R   0.493447 0.872294 0.499625 -0.177769
C41   C     C_R   0.515889 0.936278 0.603884 -0.267408
C42   C     C_3   0.504479 0.929402 0.750641 0.857635
C43   C     C_3   0.507046 0.073233 0.754653 0.906272
C44   C     C_R   0.464939 0.437612 0.068062 0.037187
C45   C     C_R   0.179124 0.370250 0.473924 0.500758
C46   C     C_R   0.537479 0.550384 0.074296 0.165796
C47   C     C_R   0.539395 0.540943 0.931004 0.203068
C48   C     C_R   0.465453 0.436573 0.927419 0.150939
C49   C     C_3   0.411809 0.445395 0.911288 -0.539778
C50   C     C_3   0.410012 0.451844 0.063670 0.021784
C51   C     C_R   0.172043 0.585464 0.526629 0.537670
C52   C     C_R   0.275442 0.567500 0.413955 -0.147822
C53   C     C_R   0.326026 0.572220 0.413286 -0.209494
C54   C     C_R   0.330077 0.423850 0.596273 -0.253625
H1    H     H_    0.352280 0.367475 0.663413 0.164847
H2    H     H_    0.254477 0.622358 0.341941 0.159614
H3    H     H_    0.968450 0.680813 0.759783 0.177915
H4    H     H_    0.400101 0.531306 0.857495 0.212189
H5    H     H_    0.395729 0.358687 0.870613 0.200025
H6    H     H_    0.390889 0.372211 0.110712 0.154713
H7    H     H_    0.724048 0.256687 0.638354 0.191484
H8    H     H_    0.878379 0.140147 0.422577 0.183589
H9    H     H_    0.965459 0.144459 0.413654 0.143115
H10   H     H_    0.039825 0.133866 0.473222 0.150654
H11   H     H_    0.344134 0.635499 0.346593 0.200965
N1    N     N_R   0.199686 0.483063 0.501196 -0.357640
N2    N     N_R   0.796512 0.412859 0.585624 -0.325533
N3    N     N_R   0.499670 0.499140 0.142800 -0.134573
N4    N     N_R   0.499670 0.499180 0.857150 -0.139431
O1    O     O_R   0.500010 0.316790 0.614690 -0.544526
O2    O     O_2   0.795649 0.231260 0.455110 -0.585353
O3    O     O_2   0.194019 0.695199 0.552210 -0.525509
O4    O     O_2   0.794508 0.577752 0.737529 -0.543984
O5    O     O_R   0.500000 0.316760 0.385350 -0.623799
O6    O     O_R   0.428760 0.500040 0.614660 -0.639383
O7    O     O_R   0.428750 0.500000 0.385310 -0.585879
O8    O     O_R   0.500000 0.683240 0.614650 -0.602793
O9    O     O_R   0.499990 0.683210 0.385310 -0.604238
O10   O     O_R   0.571250 0.500000 0.614690 -0.569156
O11   O     O_R   0.571240 0.499960 0.385340 -0.622205
O12   O     O_2   0.208195 0.276601 0.434519 -0.573057
Zn1   Zn    Zn3+2 0.500000 0.500020 0.653130 1.004840
Zn2   Zn    Zn3+2 0.500000 0.499980 0.346870 0.971894
O13   O     O_3   0.109234 0.798479 0.511247 -0.563386
C55   C     C_3   0.105182 0.815278 0.371206 -0.250177
H12   H     H_    0.121937 0.905047 0.343789 0.192858
H13   H     H_    0.125095 0.741695 0.316235 0.146012
H14   H     H_    0.066267 0.818556 0.337435 0.151458
N5    N     N_2   0.664335 0.680062 0.409705 -0.301703
H15   H     H_    0.635992 0.671632 0.342027 0.257927
C56   C     C_3   0.659729 0.786272 0.496967 -0.839080
H16   H     H_    0.620897 0.815686 0.500668 0.218811
H17   H     H_    0.681045 0.864888 0.456126 0.252395
H18   H     H_    0.673399 0.765583 0.600244 0.255518
N6    N     N_2   0.875090 0.693970 0.802308 -0.252763
H19   H     H_    0.893816 0.715071 0.889719 0.212691
C57   C     C_3   0.862504 0.804818 0.726069 -0.694709
H20   H     H_    0.896073 0.852633 0.692652 0.204868
H21   H     H_    0.841568 0.869462 0.789544 0.238294
H22   H     H_    0.839488 0.780940 0.637210 0.261863
N7    N     N_2   0.765518 0.631134 0.447259 -0.294318
H23   H     H_    0.755346 0.723129 0.454426 0.260841
C58   C     C_3   0.786368 0.602349 0.319419 -0.772240
H24   H     H_    0.815354 0.670772 0.296691 0.237448
H25   H     H_    0.757764 0.607123 0.239178 0.251221
H26   H     H_    0.803064 0.508089 0.321430 0.254398
N8    N     N_2   0.012234 0.778916 0.570456 -0.303088
H27   H     H_    0.976840 0.773657 0.534156 0.227559
C59   C     C_3   0.022979 0.874874 0.667818 -0.723347
H28   H     H_    0.990380 0.893099 0.728912 0.205376
H29   H     H_    0.032584 0.961846 0.614893 0.252162
H30   H     H_    0.053804 0.847971 0.736075 0.248826
N9    N     N_2   0.433615 0.136687 0.314817 -0.298974
H31   H     H_    0.429104 0.101288 0.220070 0.227902
C60   C     C_3   0.387722 0.171422 0.373355 -0.673773
H32   H     H_    0.365661 0.087083 0.393652 0.259595
H33   H     H_    0.366915 0.232964 0.303126 0.219737
H34   H     H_    0.394033 0.222725 0.468126 0.226305
O14   O     O_3   0.434150 0.873363 0.318393 -0.589198
C61   C     C_3   0.452856 0.866594 0.188719 -0.375444
H35   H     H_    0.468590 0.773116 0.173959 0.215172
H36   H     H_    0.481371 0.936826 0.165093 0.120718
H37   H     H_    0.422019 0.879733 0.116656 0.178955
O15   O     O_3   0.455292 0.887476 0.763082 -0.631875
C62   C     C_3   0.448371 0.790397 0.855854 -0.265591
H38   H     H_    0.410328 0.796178 0.890968 0.154022
H39   H     H_    0.472672 0.794965 0.944641 0.151578
H40   H     H_    0.451979 0.699654 0.807017 0.223434
N10   N     N_2   0.254430 0.353302 0.705115 -0.286480
H41   H     H_    0.219948 0.384697 0.727235 0.220157
C63   C     C_3   0.281598 0.307973 0.821323 -0.809865
H42   H     H_    0.256273 0.262308 0.891557 0.245438
H43   H     H_    0.299809 0.386394 0.873884 0.242152
H44   H     H_    0.308795 0.237044 0.791731 0.250030
O16   O     O_3   0.539876 0.868431 0.835979 -0.670585
C64   C     C_3   0.587540 0.863541 0.784153 -0.369386
H45   H     H_    0.598839 0.950754 0.733755 0.204876
H46   H     H_    0.590280 0.783991 0.714727 0.203057
H47   H     H_    0.613951 0.848679 0.868000 0.189322
O17   O     O_3   0.462973 0.140484 0.777627 -0.606262
C65   C     C_3   0.439951 0.107662 0.898357 -0.321279
H48   H     H_    0.438531 0.189232 0.964780 0.154728
H49   H     H_    0.457931 0.031742 0.956040 0.138306
H50   H     H_    0.401847 0.079351 0.875107 0.207885
O18   O     O_3   0.549698 0.128253 0.811785 -0.613996
C66   C     C_3   0.549003 0.133502 0.952430 -0.306633
H51   H     H_    0.539315 0.043235 0.999031 0.164171
H52   H     H_    0.524749 0.209526 0.985627 0.176702
H53   H     H_    0.586302 0.156571 0.989227 0.187583
N11   N     N_2   0.575283 0.611313 0.147099 -0.261231
H54   H     H_    0.609393 0.572463 0.136646 0.213009
C67   C     C_3   0.574990 0.746156 0.140760 -0.807626
H55   H     H_    0.569125 0.784283 0.241931 0.251242
H56   H     H_    0.545896 0.782495 0.072792 0.259648
H57   H     H_    0.610620 0.780653 0.105015 0.224536
N12   N     N_2   0.584419 0.561558 0.867370 -0.264620
H58   H     H_    0.602800 0.638448 0.901758 0.228170
C68   C     C_3   0.616034 0.453159 0.870618 -0.693798
H59   H     H_    0.626753 0.427864 0.974910 0.189071
H60   H     H_    0.649681 0.473552 0.814723 0.240162
H61   H     H_    0.597341 0.372294 0.824005 0.310057
N13   N     N_2   0.392778 0.572257 0.108104 -0.242917
H62   H     H_    0.414035 0.645376 0.077832 0.220345
C69   C     C_3   0.341308 0.595219 0.081945 -0.805072
H63   H     H_    0.330804 0.686425 0.124313 0.240200
H64   H     H_    0.318977 0.520966 0.128026 0.253420
H65   H     H_    0.333182 0.599092 0.972845 0.238270
N14   N     N_2   0.132245 0.122368 0.459117 -0.314230
H66   H     H_    0.154131 0.118031 0.376770 0.261377
C70   C     C_3   0.152915 0.070200 0.581492 -0.603254
H67   H     H_    0.173144 0.983462 0.558990 0.282372
H68   H     H_    0.123379 0.047519 0.652001 0.230467
H69   H     H_    0.178625 0.136527 0.629897 0.243778
O19   O     O_3   0.629551 0.267303 0.591858 -0.584926
C71   C     C_3   0.631131 0.175988 0.491284 -0.296668
H70   H     H_    0.668428 0.136400 0.480503 0.173071
H71   H     H_    0.617374 0.214236 0.393919 0.156217
H72   H     H_    0.607180 0.097843 0.519479 0.187980

loop_
_geom_bond_atom_site_label_1
_geom_bond_atom_site_label_2
_ccdc_geom_bond_type
C10   C27   A    
C21   C26   A    
N7    H23   S    
C30   H10   S    
C50   N13   S    
C41   C42   S    
C20   N2    A    
N6    H19   S    
O5    Zn2   S    
C63   H44   S    
C24   N5    S    
C57   H20   S    
C42   O15   S    
O16   C64   S    
C71   H71   S    
C55   H12   S    
C52   C53   A    
C26   N2    S    
C69   H63   S    
N13   H62   S    
C65   H49   S    
C66   H52   S    
C5    C6    A    
C3    C52   A    
C39   O14   S    
C9    C22   A    
C70   H67   S    
C60   H32   S    
C2    N10   S    
C18   C19   A    
C46   C47   A    
O19   C71   S    
C47   N4    A    
N4    Zn1   S    
C68   H61   S    
C34   O11   A    
N9    H31   S    
O9    Zn2   S    
C16   C17   A    
C60   H33   S    
C23   C40   S    
C62   H40   S    
N8    H27   S    
C20   O2    S    
C19   N2    A    
C47   N12   S    
N5    C56   S    
C53   H11   S    
C48   N4    A    
C21   H7    S    
C61   H37   S    
C16   C20   A    
N14   C70   S    
N7    C58   S    
C21   C22   A    
C27   C30   A    
C68   H60   S    
N8    C59   S    
C36   C41   A    
C32   H3    S    
C4    C7    A    
C33   N6    S    
O7    Zn2   S    
C4    C28   A    
C61   H36   S    
O18   C66   S    
C71   H72   S    
N13   C69   S    
C55   H13   S    
C38   C39   A    
C6    N14   S    
C7    C31   A    
C15   C16   A    
N14   H66   S    
C19   O4    S    
O13   C55   S    
C24   C25   A    
C64   H46   S    
C2    C54   A    
C59   H30   S    
C8    C54   A    
C56   H16   S    
C38   N9    S    
C64   H45   S    
C25   C26   A    
C5    C45   A    
C9    C24   A    
C23   O8    A    
C31   O13   S    
C42   O16   S    
C45   N1    A    
C51   N1    A    
C64   H47   S    
C46   N3    A    
C37   C38   A    
C43   O18   S    
C34   O10   A    
C56   H17   S    
C66   H53   S    
C71   H70   S    
C67   H57   S    
C8    C12   S    
C60   H34   S    
C17   C18   A    
C43   O17   S    
C58   H25   S    
O17   C65   S    
C40   C41   A    
C6    C30   A    
C67   H56   S    
C11   C32   A    
C12   O7    A    
C10   C14   A    
C62   H38   S    
C31   C35   A    
C44   N3    A    
C3    N1    S    
C42   C43   S    
C1    O5    A    
C63   H42   S    
C58   H24   S    
C57   H22   S    
C61   H35   S    
O11   Zn2   S    
C66   H51   S    
C55   H14   S    
C44   C50   S    
C54   H1    S    
C28   C29   A    
C57   H21   S    
C46   N11   S    
N11   H54   S    
N3    Zn2   S    
C69   H65   S    
C45   O12   S    
C22   O19   S    
C4    C5    A    
C63   H43   S    
C10   C13   A    
C8    C53   A    
O10   Zn1   S    
O14   C61   S    
N6    C57   S    
O6    Zn1   S    
C65   H50   S    
C1    C37   S    
C29   C35   A    
C1    O1    A    
C49   H5    S    
C13   C17   A    
C50   H6    S    
C32   C33   A    
C69   H64   S    
C2    C3    A    
N10   H41   S    
C7    C51   A    
C65   H48   S    
C56   H18   S    
C11   C13   A    
C25   N7    S    
C68   H59   S    
C70   H68   S    
O8    Zn1   S    
C48   C49   S    
C14   H9    S    
C59   H29   S    
N12   C68   S    
C15   H8    S    
C9    C34   S    
C58   H26   S    
N11   C67   S    
C23   O9    A    
O1    Zn1   S    
C18   C33   A    
C35   N8    S    
C49   H4    S    
C39   C40   A    
C44   C48   A    
N12   H58   S    
C67   H55   S    
C11   C29   A    
C36   C37   A    
C49   C50   S    
C51   O3    S    
C12   O6    A    
C27   C28   A    
C62   H39   S    
C14   C15   A    
C36   C43   S    
N10   C63   S    
N5    H15   S    
C59   H28   S    
C52   H2    S    
O15   C62   S    
N9    C60   S    
C70   H69   S    
