data_mof_unit_22482.cif
_audit_creation_date              2012-12-11T14:23:15-0500
_audit_creation_method            fapswitch 2.2
_symmetry_space_group_name_H-M    P1
_symmetry_Int_Tables_number       1
_space_group_crystal_system       triclinic
_cell_length_a                    11.081734
_cell_length_b                    10.924316
_cell_length_c                    18.849612
_cell_angle_alpha                 90.18536
_cell_angle_beta                  89.988108
_cell_angle_gamma                 59.864406
_cell_volume                      1973.49831871

loop_
_atom_site_label
_atom_site_type_symbol
_atom_type_description
_atom_site_fract_x
_atom_site_fract_y
_atom_site_fract_z
_atom_type_partial_charge
C1    C     C_R   0.240669 0.644009 0.611121 0.543389
C2    C     C_R   0.550703 0.206667 0.719660 -0.160147
C3    C     C_R   0.561998 0.202622 0.791808 -0.165380
C4    C     C_R   0.653342 0.622736 0.600890 0.549681
C5    C     C_R   0.928461 0.126407 0.812943 -0.090556
C6    C     C_R   0.042139 0.097849 0.770146 -0.134714
C7    C     C_R   0.034948 0.086383 0.697100 -0.129981
C8    C     C_R   0.912964 0.106289 0.666007 -0.087912
C9    C     C_R   0.663625 0.179674 0.676312 -0.011330
C10   C     C_R   0.193181 0.656818 0.837390 -0.007761
C11   C     C_R   0.196899 0.542869 0.799398 0.023200
C12   C     C_3   0.664836 0.557452 0.800296 -0.250117
C13   C     C_R   0.190518 0.547429 0.724033 0.019200
C14   C     C_R   0.229366 0.747544 0.728204 -0.150717
C15   C     C_R   0.220932 0.751001 0.801347 -0.154117
C16   C     C_R   0.627900 0.228559 0.602899 0.537219
C17   C     C_R   0.206767 0.424605 0.834753 -0.101390
C18   C     C_R   0.196856 0.320108 0.797568 -0.149186
C19   C     C_R   0.173588 0.332920 0.724854 -0.158827
C20   C     C_R   0.168657 0.446072 0.688341 -0.117376
C21   C     C_R   0.207719 0.652044 0.687807 -0.003359
C22   C     C_R   0.729248 0.696472 0.181709 -0.056753
C23   C     C_3   0.700044 0.675598 0.811624 0.045509
C24   C     C_R   0.797764 0.556637 0.210532 0.021887
C25   C     C_R   0.741763 0.534696 0.271673 -0.029124
C26   C     C_R   0.632413 0.786112 0.298126 0.328307
C27   C     C_R   0.653896 0.810891 0.227645 -0.138496
C28   C     C_R   0.286287 0.622426 0.392467 0.551729
C29   C     C_R   0.915858 0.436476 0.179735 -0.055902
C30   C     C_R   0.956511 0.300226 0.199986 -0.062307
C31   C     C_R   0.888099 0.280138 0.255056 -0.069283
C32   C     C_R   0.773559 0.395366 0.286183 -0.088419
C33   C     C_R   0.664698 0.650223 0.318596 0.023801
C34   C     C_3   0.669371 0.648906 0.676174 0.054155
C35   C     C_R   0.660983 0.141289 0.180225 0.005427
C36   C     C_R   0.528989 0.200813 0.212345 -0.015497
C37   C     C_R   0.523075 0.182168 0.285215 0.027552
C38   C     C_R   0.771477 0.083948 0.296736 -0.163561
C39   C     C_R   0.781822 0.074309 0.223151 -0.160963
C40   C     C_R   0.641435 0.620644 0.391384 0.580842
C41   C     C_R   0.404458 0.262715 0.173198 -0.144975
C42   C     C_R   0.283709 0.276813 0.202753 -0.096874
C43   C     C_R   0.278631 0.242725 0.273477 0.247592
C44   C     C_R   0.401418 0.189280 0.313204 -0.038094
C45   C     C_3   0.818076 0.620794 0.690493 -0.245543
C46   C     C_R   0.640996 0.152873 0.327549 0.050854
C47   C     C_R   0.176251 0.653711 0.175502 -0.003246
C48   C     C_R   0.264108 0.705022 0.196989 0.028094
C49   C     C_R   0.281129 0.717846 0.270093 -0.000425
C50   C     C_R   0.168194 0.579758 0.294308 -0.129028
C51   C     C_R   0.127160 0.594395 0.224645 -0.151975
C52   C     C_R   0.617740 0.222444 0.397075 0.535320
C53   C     C_R   0.317526 0.762833 0.147487 -0.078170
C54   C     C_R   0.351693 0.862767 0.169307 -0.124783
C55   C     C_R   0.344407 0.895728 0.240702 -0.118402
C56   C     C_3   0.644252 0.543353 0.720696 -0.213965
C57   C     C_R   0.320104 0.817644 0.291112 -0.102704
C58   C     C_R   0.245814 0.640106 0.318166 -0.001939
C59   C     C_R   0.702631 0.103072 0.896422 0.537844
C60   C     C_R   0.724871 0.688752 0.887670 0.553955
C61   C     C_R   0.121654 0.703018 0.906673 0.535965
C62   C     C_R   0.677540 0.102626 0.105344 0.531424
C63   C     C_R   0.737701 0.717595 0.105040 0.571944
C64   C     C_3   0.579035 0.816623 0.780827 -0.229594
C65   C     C_R   0.098649 0.705464 0.110368 0.524405
C66   C     C_3   0.563997 0.802054 0.700455 -0.241079
C67   C     C_R   0.688857 0.162722 0.824888 -0.012703
C68   C     C_3   0.835266 0.639058 0.769938 -0.220489
C69   C     C_3   0.145147 0.253868 0.373550 -0.134770
C70   C     C_R   0.804063 0.143679 0.782971 0.019091
C71   C     C_R   0.793575 0.143054 0.707635 0.012969
Cr1   Cr    Cr6+3 0.392940 0.397950 0.502230 0.990780
Cr2   Cr    Cr6+3 0.398400 0.708500 0.501260 1.010200
Cr3   Cr    Cr6+3 0.708640 0.393530 0.496460 0.985335
Cr4   Cr    Cr6+3 0.937880 0.938320 0.007620 0.995019
Cr5   Cr    Cr6+3 0.625560 0.937220 0.994510 0.988403
Cr6   Cr    Cr6+3 0.938080 0.625010 0.001190 0.979498
F1    F     F_    0.573850 0.894087 0.345317 -0.680244
H1    H     H_    0.600066 0.904875 0.790152 0.149645
H2    H     H_    0.914705 0.089624 0.609402 0.136399
H3    H     H_    0.254236 0.820731 0.703215 0.134377
H4    H     H_    0.479042 0.844708 0.807901 0.115261
H5    H     H_    0.228815 0.408290 0.890916 0.128451
H6    H     H_    0.229351 0.832708 0.829675 0.132270
H7    H     H_    0.207361 0.229640 0.825862 0.104512
H8    H     H_    0.161554 0.254075 0.696177 0.115622
H9    H     H_    0.144163 0.453480 0.632617 0.138494
H10   H     H_    0.983092 0.444423 0.141284 0.135164
H11   H     H_    0.611665 0.917787 0.208893 0.143072
H12   H     H_    0.717949 0.432598 0.703919 0.152518
H13   H     H_    0.046386 0.210624 0.175943 0.120625
H14   H     H_    0.932273 0.175614 0.276134 0.124665
H15   H     H_    0.455288 0.828943 0.688913 0.127751
H16   H     H_    0.712105 0.376430 0.322650 0.158812
H17   H     H_    0.864070 0.042352 0.329432 0.124396
H18   H     H_    0.400272 0.295531 0.118723 0.141244
H19   H     H_    0.885221 0.015780 0.200080 0.159936
H20   H     H_    0.194919 0.312968 0.169131 0.103464
H21   H     H_    0.404809 0.144534 0.364493 0.193663
H22   H     H_    0.129661 0.530550 0.330514 0.165553
H23   H     H_    0.923607 0.539034 0.790276 0.168833
H24   H     H_    0.320283 0.741132 0.091210 0.128801
H25   H     H_    0.051002 0.565899 0.210174 0.134615
H26   H     H_    0.583418 0.878850 0.671156 0.123460
H27   H     H_    0.379509 0.917793 0.130869 0.139604
H28   H     H_    0.366114 0.976567 0.257515 0.175732
H29   H     H_    0.324630 0.845350 0.345237 0.187601
H30   H     H_    0.862039 0.723781 0.777672 0.128685
H31   H     H_    0.838771 0.694505 0.659123 0.116312
H32   H     H_    0.750648 0.455074 0.820793 0.133932
H33   H     H_    0.568069 0.582416 0.829827 0.117268
H34   H     H_    0.895724 0.511020 0.674176 0.146480
H35   H     H_    0.536806 0.562828 0.711467 0.128527
H36   H     H_    0.034791 0.293001 0.388300 0.163693
H37   H     H_    0.176921 0.324282 0.400179 0.123612
H38   H     H_    0.206850 0.143212 0.392917 0.115556
H39   H     H_    0.449750 0.235517 0.698029 0.168940
H40   H     H_    0.938761 0.140033 0.868841 0.142465
H41   H     H_    0.471782 0.220784 0.821964 0.153583
H42   H     H_    0.138170 0.079674 0.793968 0.089960
H43   H     H_    0.124979 0.060195 0.664305 0.100783
O1    O     O_R   0.507340 0.255690 0.581430 -0.521946
O2    O     O_R   0.837290 0.593240 0.915240 -0.522694
O3    O     O_R   0.065320 0.635310 0.931580 -0.513087
O4    O     O_R   0.280360 0.527380 0.578910 -0.507405
O5    O     O_R   0.068470 0.828620 0.091850 -0.525845
O6    O     O_R   0.799150 0.057200 0.079350 -0.505625
O7    O     O_R   0.585220 0.080180 0.076770 -0.539284
O8    O     O_R   0.627170 0.809480 0.067050 -0.502969
O9    O     O_R   0.816200 0.596410 0.076500 -0.532307
O10   O     O_R   0.045770 0.638240 0.081070 -0.542900
O11   O     O_3   0.833840 0.833520 0.001110 -0.264320
O12   O     O_R   0.524510 0.695820 0.424050 -0.492501
O13   O     O_R   0.260600 0.739610 0.584580 -0.526440
O14   O     O_R   0.532370 0.695050 0.573830 -0.505712
O15   O     O_R   0.744850 0.503430 0.576380 -0.526996
O16   O     O_R   0.699080 0.276500 0.571950 -0.509922
O17   O     O_R   0.498860 0.256520 0.419860 -0.539919
O18   O     O_R   0.272490 0.528150 0.429140 -0.509802
O19   O     O_R   0.252110 0.740440 0.423010 -0.534279
O20   O     O_3   0.153900 0.257716 0.298942 -0.590732
O21   O     O_R   0.736370 0.504260 0.414810 -0.541571
O22   O     O_R   0.691220 0.277270 0.422180 -0.529436
O23   O     O_3   0.499990 0.499990 0.499980 -0.270657
O24   O     O_R   0.089570 0.825450 0.930590 -0.523516
O25   O     O_R   0.818700 0.054260 0.929860 -0.506773
O26   O     O_R   0.606310 0.077010 0.915520 -0.531842
O27   O     O_R   0.646730 0.806540 0.917560 -0.504271

loop_
_geom_bond_atom_site_label_1
_geom_bond_atom_site_label_2
_ccdc_geom_bond_type
C32   H16   S    
Cr3   O22   S    
C69   H38   S    
C34   C56   S    
C40   O21   A    
C52   O22   A    
Cr5   O11   S    
C41   C42   A    
C16   O16   A    
C28   O19   A    
C19   H8    S    
C34   C66   S    
C12   H32   S    
C45   H34   S    
C7    C8    A    
C53   C54   A    
Cr4   O24   S    
C1    C21   S    
C12   C23   S    
C26   C27   A    
C26   F1    S    
C61   O3    A    
C14   C21   A    
C36   C37   A    
C9    C16   S    
C1    O4    A    
C15   H6    S    
C10   C15   A    
C42   H20   S    
C30   C31   A    
C44   H21   S    
C45   H31   S    
C39   H19   S    
C41   H18   S    
C51   H25   S    
C20   H9    S    
C46   C52   S    
C49   C57   A    
C18   C19   A    
Cr6   O10   S    
C63   O9    A    
C61   O24   A    
C24   C29   A    
C29   H10   S    
C16   O1    A    
C59   C67   S    
C22   C63   S    
Cr1   O18   S    
C11   C17   A    
Cr2   O14   S    
Cr5   O26   S    
Cr3   O15   S    
C38   H17   S    
C52   O17   A    
C56   H35   S    
C70   C71   A    
C54   H27   S    
C4    O15   A    
C25   C32   A    
Cr1   O17   S    
Cr3   O21   S    
C36   C41   A    
C23   C60   S    
C28   O18   A    
C7    H43   S    
C6    H42   S    
C65   O10   A    
C2    H39   S    
C50   C51   A    
Cr4   O25   S    
C48   C53   A    
Cr3   O16   S    
C4    C34   S    
C69   H36   S    
C18   H7    S    
C55   H28   S    
C50   C58   A    
C66   H26   S    
C38   C39   A    
C24   C25   A    
C47   C51   A    
C49   C58   A    
C17   H5    S    
Cr6   O11   S    
C64   C66   S    
C23   C68   S    
C60   O2    A    
C35   C39   A    
C43   C44   A    
C29   C30   A    
Cr6   O2    S    
Cr5   O8    S    
C26   C33   A    
C47   C48   A    
C53   H24   S    
C45   C68   S    
C17   C18   A    
C13   C21   A    
C34   C45   S    
C68   H23   S    
C64   H4    S    
C12   C56   S    
C3    H41   S    
C4    O14   A    
C48   C49   A    
C57   H29   S    
Cr2   O12   S    
C22   C27   A    
C66   H15   S    
Cr5   O7    S    
C64   H1    S    
C22   C24   A    
C43   O20   S    
C10   C61   S    
C42   C43   A    
C1    O13   A    
Cr4   O11   S    
Cr1   O23   S    
Cr3   O23   S    
C54   C55   A    
C69   H37   S    
C8    C71   A    
C13   C20   A    
Cr1   O1    S    
C31   C32   A    
C3    C67   A    
C9    C71   A    
C30   H13   S    
C5    C70   A    
C6    C7    A    
Cr2   O19   S    
C28   C58   S    
C60   O27   A    
C40   O12   A    
C5    H40   S    
C50   H22   S    
Cr1   O4    S    
C67   C70   A    
C65   O5    A    
Cr4   O5    S    
C19   C20   A    
C55   C57   A    
C2    C3    A    
C23   C64   S    
Cr6   O3    S    
C62   O7    A    
C11   C13   A    
C5    C6    A    
C37   C44   A    
C56   H12   S    
C27   H11   S    
C35   C62   S    
Cr4   O6    S    
Cr6   O9    S    
C63   O8    A    
C38   C46   A    
C10   C11   A    
C59   O25   A    
C62   O6    A    
Cr2   O13   S    
Cr5   O27   S    
C31   H14   S    
C8    H2    S    
C33   C40   S    
C14   C15   A    
C35   C36   A    
C68   H30   S    
C14   H3    S    
C37   C46   A    
C2    C9    A    
C69   O20   S    
C47   C65   S    
C12   H33   S    
C25   C33   A    
Cr2   O23   S    
C59   O26   A    
