data_mof_unit_38924.cif
_audit_creation_date              2012-12-10T18:28:09-0500
_audit_creation_method            fapswitch 2.2
_symmetry_space_group_name_H-M    P1
_symmetry_Int_Tables_number       1
_space_group_crystal_system       triclinic
_cell_length_a                    23.344129
_cell_length_b                    20.358889
_cell_length_c                    14.980468
_cell_angle_alpha                 89.999431
_cell_angle_beta                  98.836958
_cell_angle_gamma                 90.000186
_cell_volume                      7035.11162472

loop_
_atom_site_label
_atom_site_type_symbol
_atom_type_description
_atom_site_fract_x
_atom_site_fract_y
_atom_site_fract_z
_atom_type_partial_charge
C1    C     C_R   0.574887 0.087811 0.553151 0.976860
C2    C     C_R   0.424172 0.913098 0.445980 0.907661
C3    C     C_R   0.425108 0.087805 0.446845 0.977153
C4    C     C_R   0.575829 0.913102 0.554023 0.907560
C5    C     C_R   0.074894 0.587803 0.553155 0.977655
C6    C     C_R   0.924176 0.413096 0.445981 0.907427
C7    C     C_R   0.925110 0.587807 0.446846 0.976582
C8    C     C_R   0.075828 0.413099 0.554021 0.907998
C9    C     C_R   0.222378 0.193764 0.649339 -0.151450
C10   C     C_R   0.726061 0.739412 0.324222 -0.143075
C11   C     C_R   0.777653 0.193745 0.350743 -0.155210
C12   C     C_R   0.273983 0.739340 0.675815 -0.142404
C13   C     C_R   0.722426 0.693817 0.649388 -0.145039
C14   C     C_R   0.226044 0.239388 0.324190 -0.142675
C15   C     C_R   0.277629 0.693756 0.350653 -0.150948
C16   C     C_R   0.773858 0.239542 0.675828 -0.138409
C17   C     C_R   0.627444 0.011009 0.201342 -0.267629
C18   C     C_R   0.372558 0.011040 0.798657 -0.267153
C19   C     C_R   0.127442 0.511038 0.201342 -0.267085
C20   C     C_R   0.872557 0.511016 0.798659 -0.262841
C21   C     C_R   0.606122 0.011480 0.282570 0.181837
C22   C     C_R   0.393881 0.011500 0.717429 0.182006
C23   C     C_R   0.106119 0.511503 0.282570 0.181975
C24   C     C_R   0.893879 0.511485 0.717430 0.179776
C25   C     C_R   0.510371 0.991948 0.208604 -0.072549
C26   C     C_R   0.489627 0.991939 0.791397 -0.072399
C27   C     C_R   0.010373 0.491934 0.208604 -0.072406
C28   C     C_R   0.989629 0.491941 0.791396 -0.072745
C29   C     C_R   0.528449 0.995840 0.123569 0.003860
C30   C     C_R   0.471550 0.995841 0.876431 0.003881
C31   C     C_R   0.028451 0.495834 0.123570 0.003841
C32   C     C_R   0.971551 0.495833 0.876431 0.004283
C33   C     C_R   0.588726 0.002627 0.121338 0.150578
C34   C     C_R   0.411274 0.002649 0.878661 0.150590
C35   C     C_R   0.088726 0.502641 0.121338 0.150465
C36   C     C_R   0.911275 0.502627 0.878663 0.147975
C37   C     C_R   0.488969 0.995022 0.041752 0.086203
C38   C     C_R   0.511030 0.995015 0.958248 0.086280
C39   C     C_R   0.988971 0.495007 0.041753 0.086609
C40   C     C_R   0.011031 0.495011 0.958248 0.086401
C41   C     C_R   0.571680 0.998033 0.959167 -0.223125
C42   C     C_R   0.428319 0.998061 0.040833 -0.223162
C43   C     C_R   0.071682 0.498045 0.959167 -0.223276
C44   C     C_R   0.928320 0.498030 0.040834 -0.223570
C45   C     C_R   0.609636 0.002714 0.039442 -0.166702
C46   C     C_R   0.390365 0.002749 0.960557 -0.166390
C47   C     C_R   0.109636 0.502735 0.039442 -0.166363
C48   C     C_R   0.890366 0.502715 0.960559 -0.165964
C49   C     C_R   0.617164 0.860899 0.585858 -0.172141
C50   C     C_R   0.379366 0.134233 0.413047 -0.138295
C51   C     C_R   0.382850 0.860877 0.414160 -0.172399
C52   C     C_R   0.620609 0.134266 0.586937 -0.139595
C53   C     C_R   0.117152 0.360882 0.585844 -0.172431
C54   C     C_R   0.879375 0.634243 0.413055 -0.137213
C55   C     C_R   0.882874 0.360859 0.414176 -0.154118
C56   C     C_R   0.120642 0.634222 0.586954 -0.138261
C57   C     C_R   0.647526 0.770702 0.689983 0.006449
C58   C     C_R   0.310833 0.177225 0.287726 -0.002557
C59   C     C_R   0.352508 0.770668 0.310045 0.006358
C60   C     C_R   0.689081 0.177348 0.712267 -0.001818
C61   C     C_R   0.147492 0.270664 0.689947 0.006321
C62   C     C_R   0.810837 0.677237 0.287744 -0.003155
C63   C     C_R   0.852553 0.270617 0.310122 0.006301
C64   C     C_R   0.189185 0.677192 0.712277 -0.002586
C65   C     C_R   0.610375 0.823507 0.662410 -0.352890
C66   C     C_R   0.358868 0.138228 0.320204 -0.306418
C67   C     C_R   0.389643 0.823490 0.337606 -0.353178
C68   C     C_R   0.641076 0.138308 0.679786 -0.306042
C69   C     C_R   0.110354 0.323484 0.662388 -0.353092
C70   C     C_R   0.858868 0.638234 0.320214 -0.309528
C71   C     C_R   0.889685 0.323445 0.337656 -0.352663
C72   C     C_R   0.141142 0.638208 0.679797 -0.306424
C73   C     C_R   0.661363 0.845010 0.536565 0.388940
C74   C     C_R   0.352030 0.169694 0.474301 0.354444
C75   C     C_R   0.338666 0.844962 0.463473 0.388915
C76   C     C_R   0.647946 0.169725 0.525680 0.360694
C77   C     C_R   0.161346 0.344981 0.536542 0.388733
C78   C     C_R   0.852055 0.669718 0.474314 0.355656
C79   C     C_R   0.838691 0.344964 0.463484 0.318328
C80   C     C_R   0.147984 0.669679 0.525702 0.354825
C81   C     C_R   0.686536 0.782742 0.548514 -0.053742
C82   C     C_R   0.296173 0.193728 0.444835 -0.037549
C83   C     C_R   0.313511 0.782685 0.451528 -0.053445
C84   C     C_R   0.703786 0.193803 0.555168 -0.034074
C85   C     C_R   0.186505 0.282706 0.548479 -0.053545
C86   C     C_R   0.796200 0.693762 0.444860 -0.036301
C87   C     C_R   0.813544 0.282684 0.451586 -0.081516
C88   C     C_R   0.203845 0.693700 0.555168 -0.037736
C89   C     C_R   0.685852 0.748784 0.631105 0.086585
C90   C     C_R   0.277701 0.204219 0.350808 0.087862
C91   C     C_R   0.314194 0.748732 0.368933 0.089030
C92   C     C_R   0.722223 0.204337 0.649195 0.090800
C93   C     C_R   0.185814 0.248741 0.631065 0.089007
C94   C     C_R   0.777717 0.704244 0.350833 0.087911
C95   C     C_R   0.814230 0.248708 0.369011 0.090267
C96   C     C_R   0.222321 0.704182 0.649196 0.087707
C97   C     C_R   0.714750 0.754937 0.481414 0.122469
C98   C     C_R   0.258711 0.209324 0.506852 0.133874
C99   C     C_R   0.285303 0.754866 0.518628 0.122079
C100  C     C_R   0.741274 0.209373 0.493179 0.120859
C101  C     C_R   0.214719 0.254899 0.481379 0.122198
C102  C     C_R   0.758746 0.709367 0.506887 0.131511
C103  C     C_R   0.785269 0.254946 0.518657 0.112851
C104  C     C_R   0.241308 0.709297 0.493151 0.134045
C105  C     C_R   0.260537 0.176580 0.590067 -0.136767
C106  C     C_R   0.696590 0.767000 0.388993 -0.148576
C107  C     C_R   0.739473 0.176596 0.409995 -0.136205
C108  C     C_R   0.303460 0.766926 0.611049 -0.149949
C109  C     C_R   0.760582 0.676633 0.590111 -0.127512
C110  C     C_R   0.196567 0.266971 0.388958 -0.150307
C111  C     C_R   0.239474 0.676565 0.409928 -0.135569
C112  C     C_R   0.803361 0.267096 0.611071 -0.122401
H1    H     H_    0.222685 0.163790 0.708738 0.203975
H2    H     H_    0.707756 0.746443 0.254298 0.203655
H3    H     H_    0.777350 0.163756 0.291361 0.204872
H4    H     H_    0.292283 0.746369 0.745740 0.203858
H5    H     H_    0.722742 0.663850 0.708794 0.205829
H6    H     H_    0.207747 0.246425 0.254266 0.203805
H7    H     H_    0.277316 0.663792 0.291245 0.203938
H8    H     H_    0.792121 0.246628 0.745757 0.201503
H9    H     H_    0.591377 0.000257 0.898810 0.140412
H10   H     H_    0.408623 0.000296 0.101190 0.140426
H11   H     H_    0.091378 0.500275 0.898810 0.140467
H12   H     H_    0.908624 0.500256 0.101191 0.139451
H13   H     H_    0.381331 0.112272 0.272664 0.171469
H14   H     H_    0.577518 0.837062 0.702909 0.176967
H15   H     H_    0.618607 0.112358 0.727326 0.171610
H16   H     H_    0.422489 0.837062 0.297095 0.177129
H17   H     H_    0.881321 0.612267 0.272670 0.171476
H18   H     H_    0.077501 0.337045 0.702891 0.177100
H19   H     H_    0.118674 0.612255 0.727336 0.171513
H20   H     H_    0.922537 0.337003 0.297149 0.175536
H21   H     H_    0.288313 0.134405 0.606377 0.178165
H22   H     H_    0.657001 0.793784 0.366394 0.175436
H23   H     H_    0.711698 0.134421 0.393695 0.179335
H24   H     H_    0.343048 0.793710 0.633653 0.175662
H25   H     H_    0.788360 0.634460 0.606424 0.181478
H26   H     H_    0.156981 0.293759 0.366355 0.175610
H27   H     H_    0.211693 0.634395 0.393611 0.178013
H28   H     H_    0.842923 0.293926 0.633689 0.172309
H29   H     H_    0.655682 0.007355 0.037292 0.160130
H30   H     H_    0.344320 0.007406 0.962707 0.160166
H31   H     H_    0.155681 0.507390 0.037293 0.160237
H32   H     H_    0.844320 0.507360 0.962709 0.160454
H33   H     H_    0.533760 0.982911 0.782294 0.129542
H34   H     H_    0.466235 0.982934 0.217707 0.129601
H35   H     H_    0.033763 0.482923 0.782292 0.129776
H36   H     H_    0.966240 0.482904 0.217707 0.128906
H37   H     H_    0.365096 0.020995 0.655132 0.189496
H38   H     H_    0.634908 0.020972 0.344866 0.189600
H39   H     H_    0.865097 0.520989 0.655137 0.192710
H40   H     H_    0.134903 0.521005 0.344865 0.189504
H41   H     H_    0.673375 0.018474 0.200924 0.162900
H42   H     H_    0.326629 0.018520 0.799074 0.162854
H43   H     H_    0.173371 0.518519 0.200924 0.162933
H44   H     H_    0.826628 0.518489 0.799079 0.168121
N1    N     N_R   0.549130 0.000000 0.284090 -0.113992
N2    N     N_R   0.450870 0.000000 0.715910 -0.114013
N3    N     N_R   0.049130 0.500000 0.284090 -0.113894
N4    N     N_R   0.950870 0.500000 0.715910 -0.115491
O1    O     O_R   0.541320 0.066090 0.608930 -0.609459
O2    O     O_R   0.458680 0.933910 0.391070 -0.643923
O3    O     O_R   0.458680 0.066090 0.391070 -0.609786
O4    O     O_R   0.541320 0.933910 0.608930 -0.643962
O5    O     O_R   0.041320 0.566090 0.608930 -0.609656
O6    O     O_R   0.958680 0.433910 0.391070 -0.645804
O7    O     O_R   0.958680 0.566090 0.391070 -0.609991
O8    O     O_R   0.041320 0.433910 0.608930 -0.643919
O9    O     O_R   0.572880 0.066110 0.470280 -0.569830
O10   O     O_R   0.427120 0.933890 0.529720 -0.572632
O11   O     O_R   0.427120 0.066110 0.529720 -0.569630
O12   O     O_R   0.572880 0.933890 0.470280 -0.572643
O13   O     O_R   0.072880 0.566110 0.470280 -0.569542
O14   O     O_R   0.927120 0.433890 0.529720 -0.572524
O15   O     O_R   0.927120 0.566110 0.529720 -0.569149
O16   O     O_R   0.072880 0.433890 0.470280 -0.572558
Zn1   Zn    Zn3+2 0.478910 0.000000 0.592580 1.024722
Zn2   Zn    Zn3+2 0.521090 0.000000 0.407420 1.024525
Zn3   Zn    Zn3+2 0.978910 0.500000 0.592580 1.024702
Zn4   Zn    Zn3+2 0.021090 0.500000 0.407420 1.023903
S1    S     S_3+6 0.393835 0.201734 0.575052 0.050487
O17   O     O_2   0.393324 0.155155 0.652678 -0.338608
O18   O     O_2   0.455449 0.211869 0.560244 -0.243994
O19   O     O_3   0.366366 0.274414 0.601181 -0.496300
H45   H     H_    0.389749 0.287270 0.659411 0.396346
S2    S     S_3+6 0.698971 0.907992 0.486154 0.015119
O20   O     O_2   0.677856 0.911033 0.386487 -0.362710
O21   O     O_2   0.689872 0.973579 0.527976 -0.336224
O22   O     O_3   0.770323 0.890895 0.502740 -0.490235
H46   H     H_    0.787906 0.924813 0.468043 0.388759
S3    S     S_3+6 0.606155 0.201696 0.424870 0.049624
O23   O     O_2   0.606690 0.155071 0.347304 -0.338432
O24   O     O_2   0.544532 0.211834 0.439634 -0.241334
O25   O     O_3   0.633612 0.274359 0.398661 -0.525942
H47   H     H_    0.610243 0.287179 0.340406 0.392053
S4    S     S_3+6 0.301060 0.907922 0.513930 0.015298
O26   O     O_2   0.322224 0.910973 0.613583 -0.362689
O27   O     O_2   0.310109 0.973514 0.472081 -0.336109
O28   O     O_3   0.229712 0.890790 0.497437 -0.490098
H48   H     H_    0.212129 0.924743 0.532076 0.388563
S5    S     S_3+6 0.893874 0.701747 0.575060 0.048958
O29   O     O_2   0.893372 0.655166 0.652685 -0.338463
O30   O     O_2   0.955485 0.711877 0.560230 -0.245662
O31   O     O_3   0.866417 0.774430 0.601207 -0.498138
H49   H     H_    0.889887 0.787347 0.659332 0.395822
S6    S     S_3+6 0.198956 0.407957 0.486115 0.015534
O32   O     O_2   0.177809 0.411017 0.386455 -0.362698
O33   O     O_2   0.189890 0.473541 0.527971 -0.336007
O34   O     O_3   0.270308 0.390837 0.502639 -0.489478
H50   H     H_    0.287893 0.424790 0.468008 0.388946
S7    S     S_3+6 0.106183 0.701730 0.424954 0.049425
O35   O     O_2   0.106674 0.655164 0.347314 -0.337610
O36   O     O_2   0.044575 0.711877 0.439791 -0.246477
O37   O     O_3   0.133670 0.774400 0.398825 -0.497167
H51   H     H_    0.109626 0.787808 0.341380 0.395829
S8    S     S_3+6 0.800958 0.408037 0.513597 0.026752
O38   O     O_2   0.821918 0.411195 0.613263 -0.314399
O39   O     O_2   0.810099 0.473786 0.472249 -0.339328
O40   O     O_3   0.729543 0.391340 0.497694 -0.467478
H52   H     H_    0.718210 0.389038 0.431281 0.370166
C113  C     C_2   0.642736 0.740364 0.778641 0.419881
H53   H     H_    0.601845 0.742906 0.804578 0.066024
O41   O     O_2   0.684526 0.716187 0.826218 -0.547898
C114  C     C_2   0.297116 0.185788 0.188320 0.435444
H54   H     H_    0.309270 0.147696 0.144073 0.068762
O42   O     O_2   0.275890 0.236474 0.154593 -0.540002
C115  C     C_2   0.357300 0.740336 0.221386 0.417192
H55   H     H_    0.398188 0.742895 0.195440 0.066035
O43   O     O_2   0.315514 0.716143 0.173817 -0.548219
C116  C     C_2   0.702761 0.185952 0.811670 0.437064
H56   H     H_    0.690615 0.147865 0.855935 0.067503
O44   O     O_2   0.723946 0.236664 0.845372 -0.537101
C117  C     C_2   0.142692 0.240318 0.778597 0.416868
H57   H     H_    0.101800 0.242868 0.804533 0.065924
O45   O     O_2   0.184476 0.216122 0.826169 -0.548305
C118  C     C_2   0.797106 0.685790 0.188336 0.434762
H58   H     H_    0.809241 0.647687 0.144091 0.068255
O46   O     O_2   0.775888 0.736477 0.154605 -0.539784
C119  C     C_2   0.857352 0.240257 0.221482 0.412766
H59   H     H_    0.898243 0.242798 0.195547 0.067613
O47   O     O_2   0.815566 0.216061 0.173915 -0.550666
C120  C     C_2   0.202904 0.685746 0.811684 0.435710
H60   H     H_    0.190743 0.647656 0.855929 0.068826
O48   O     O_2   0.224141 0.736425 0.845416 -0.540043

loop_
_geom_bond_atom_site_label_1
_geom_bond_atom_site_label_2
_ccdc_geom_bond_type
C23   H40   S    
C88   C96   A    
C82   C90   A    
C20   H44   S    
C47   H31   S    
C61   C117  S    
S5    O29   D    
C112  H28   S    
C5    C56   S    
C53   C77   A    
C119  H59   S    
S8    O40   S    
N3    Zn4   S    
C53   C69   A    
C114  H54   S    
C76   C84   A    
C6    O6    A    
C73   S2    S    
C111  H27   S    
C46   H30   S    
C74   S1    S    
C57   C113  S    
S1    O17   D    
O19   H45   S    
C99   C108  A    
O37   H51   S    
C62   C70   A    
C37   C38   A    
C98   C105  A    
C57   C89   A    
C60   C116  S    
C32   C36   A    
N2    Zn1   S    
C51   C75   A    
C108  H24   S    
C1    C52   S    
C50   C74   A    
C63   C119  S    
C61   C93   A    
C64   C120  S    
C10   C94   A    
C27   N3    A    
C63   C95   A    
C28   N4    A    
C33   C45   A    
C118  H58   S    
C48   H32   S    
C109  H25   S    
C42   C46   A    
C41   H9    S    
C37   C42   A    
C14   C90   A    
C107  H23   S    
C8    O8    A    
C77   C85   A    
C59   C67   A    
C71   H20   S    
C85   C93   A    
C58   C66   A    
C40   C43   A    
C20   C24   A    
C29   C33   A    
C118  O46   D    
C27   H36   S    
C56   C72   A    
C87   C95   A    
C120  O48   D    
C4    O4    A    
C36   C48   A    
C25   H34   S    
C34   C46   A    
C5    O5    A    
C86   C94   A    
C117  H57   S    
C6    C55   S    
C97   C102  A    
C18   H42   S    
C3    O3    A    
C81   C89   A    
C75   S4    S    
C78   C86   A    
C32   C40   A    
O25   H47   S    
C22   H37   S    
C17   H41   S    
O28   H48   S    
C83   C99   A    
C45   H29   S    
S5    O30   D    
C2    O2    A    
O22   H46   S    
C17   C33   A    
C74   C82   A    
S4    O28   S    
C15   H7    S    
C79   C87   A    
C88   C104  A    
C3    C50   S    
C120  H60   S    
S1    O18   D    
C25   C29   A    
C62   C118  S    
C30   C34   A    
O10   Zn1   S    
C27   C31   A    
S3    O23   D    
C84   C100  A    
C75   C83   A    
C15   C111  A    
C6    O14   A    
C28   C32   A    
S8    O38   D    
C64   C96   A    
C38   C41   A    
S4    O27   D    
C39   C40   A    
C12   C108  A    
C58   C114  S    
S6    O32   D    
C69   H18   S    
O15   Zn3   S    
C22   N2    A    
O13   Zn4   S    
C14   H6    S    
C52   C68   A    
C9    C93   A    
C114  O42   D    
C44   H12   S    
C100  C103  A    
C17   C21   A    
C7    O15   A    
C103  C112  A    
C26   H33   S    
C19   C23   A    
S3    O24   D    
N4    Zn3   S    
C113  H53   S    
C24   H39   S    
C11   H3    S    
C11   C107  A    
C55   C79   A    
O16   Zn4   S    
C115  H55   S    
C54   C70   A    
C16   C112  A    
C110  H26   S    
S7    O36   D    
O3    Zn2   S    
C8    O16   A    
O34   H50   S    
C7    C54   S    
C119  O47   D    
C51   C67   A    
C21   H38   S    
C116  O44   D    
C59   C115  S    
C117  O45   D    
C68   H15   S    
C63   C71   A    
C49   C65   A    
C73   C81   A    
C80   S7    S    
C87   C103  A    
C97   C106  A    
C79   S8    S    
C115  O43   D    
C2    O10   A    
C26   C30   A    
C43   C47   A    
C62   C94   A    
C25   N1    A    
C19   H43   S    
O5    Zn3   S    
S5    O31   S    
C49   C73   A    
C10   C106  A    
O6    Zn4   S    
C5    O13   A    
S2    O21   D    
C83   C91   A    
C86   C102  A    
C43   H11   S    
O9    Zn2   S    
O40   H52   S    
C85   C101  A    
C42   H10   S    
C72   H19   S    
C105  H21   S    
C59   C91   A    
S1    O19   S    
O12   Zn2   S    
C100  C107  A    
C14   C110  A    
C7    O7    A    
C28   H35   S    
C99   C104  A    
C4    O12   A    
C13   C89   A    
C18   C22   A    
C21   N1    A    
C1    O1    A    
O11   Zn1   S    
C78   S5    S    
C57   C65   A    
S4    O26   D    
C52   C76   A    
S2    O20   D    
C10   H2    S    
C8    C53   S    
C104  C111  A    
C13   H5    S    
C24   N4    A    
C16   C92   A    
C39   C44   A    
C13   C109  A    
C98   C101  A    
C50   C66   A    
C56   C80   A    
O8    Zn3   S    
C4    C49   S    
C58   C90   A    
C61   C69   A    
C65   H14   S    
S2    O22   S    
C16   H8    S    
C101  C110  A    
S3    O25   S    
C9    H1    S    
C113  O41   D    
C76   S3    S    
C19   C35   A    
C67   H16   S    
C66   H13   S    
S6    O34   S    
C3    O11   A    
C81   C97   A    
C18   C34   A    
C31   C35   A    
C1    O9    A    
C31   C39   A    
C26   N2    A    
S6    O33   D    
N1    Zn2   S    
C64   C72   A    
C116  H56   S    
O1    Zn1   S    
O7    Zn4   S    
C82   C98   A    
O2    Zn2   S    
C2    C51   S    
C15   C91   A    
S7    O35   D    
C20   C36   A    
C44   C48   A    
C106  H22   S    
S7    O37   S    
C11   C95   A    
O31   H49   S    
C60   C68   A    
C80   C88   A    
C70   H17   S    
C29   C37   A    
C41   C45   A    
C12   C96   A    
C102  C109  A    
C84   C92   A    
C30   C38   A    
C54   C78   A    
C35   C47   A    
C77   S6    S    
C60   C92   A    
C9    C105  A    
O14   Zn3   S    
C55   C71   A    
O4    Zn1   S    
S8    O39   D    
C23   N3    A    
C12   H4    S    
