data_mof_unit_9597.cif
_audit_creation_date              2012-10-26T21:24:51-0400
_audit_creation_method            fapswitch 2.2
_symmetry_space_group_name_H-M    P1
_symmetry_Int_Tables_number       1
_space_group_crystal_system       triclinic
_cell_length_a                    9.548062
_cell_length_b                    10.851103
_cell_length_c                    15.397471
_cell_angle_alpha                 89.647388
_cell_angle_beta                  74.788239
_cell_angle_gamma                 90.79792
_cell_volume                      1539.16245854

loop_
_atom_site_label
_atom_site_type_symbol
_atom_type_description
_atom_site_fract_x
_atom_site_fract_y
_atom_site_fract_z
_atom_type_partial_charge
C1    C     C_R   0.997952 0.262472 0.502570 0.559487
C2    C     C_R   0.228805 0.474452 0.039340 0.004344
C3    C     C_R   0.328145 0.503802 0.090423 0.022329
C4    C     C_R   0.918886 0.499909 0.672227 0.586122
C5    C     C_R   0.081538 0.454822 0.081680 -0.083703
C6    C     C_R   0.028491 0.466521 0.174503 0.217931
C7    C     C_R   0.273907 0.511632 0.184387 -0.173182
C8    C     C_R   0.111836 0.066359 0.523631 0.021488
C9    C     C_R   0.991362 0.129709 0.513190 0.012745
C10   C     C_R   0.863310 0.062684 0.515962 -0.150253
C11   C     C_R   0.864984 0.934070 0.515272 -0.156650
C12   C     C_R   0.678231 0.507684 0.907962 0.026342
C13   C     C_R   0.994780 0.871334 0.511446 0.008394
C14   C     C_R   0.113920 0.939444 0.522826 0.022988
C15   C     C_3   0.269998 0.939828 0.471137 -0.279472
C16   C     C_R   0.999783 0.737947 0.501812 0.540841
C17   C     C_3   0.267161 0.079258 0.472665 -0.257889
C18   C     C_R   0.605721 0.541280 0.426418 0.171992
C19   C     C_R   0.544291 0.447252 0.568569 -0.016535
C20   C     C_R   0.395442 0.447840 0.568806 -0.022372
C21   C     C_R   0.458417 0.539606 0.425929 0.171158
C22   C     C_3   0.470915 0.664783 0.384932 -0.280125
C23   C     C_R   0.773976 0.561477 0.953968 0.017781
C24   C     C_3   0.628557 0.668113 0.386901 -0.278103
C25   C     C_R   0.081234 0.498552 0.327203 0.551197
C26   C     C_R   0.875611 0.509748 0.770564 0.048935
C27   C     C_R   0.125815 0.494364 0.227412 -0.006606
C28   C     C_R   0.918091 0.589792 0.907809 -0.162246
C29   C     C_R   0.966761 0.568737 0.815801 -0.189479
C30   C     C_R   0.737841 0.466808 0.818674 0.216519
C31   C     C_R   0.527114 0.500020 0.951768 0.026201
C32   C     C_R   0.478307 0.521989 0.045871 0.041039
C33   C     C_R   0.580432 0.565638 0.091049 -0.117570
C34   C     C_R   0.724417 0.588248 0.045114 -0.112958
C35   C     C_R   0.422669 0.481190 0.902838 -0.139670
C36   C     C_R   0.276620 0.466650 0.946063 -0.148212
Cu1   Cu    Cu3+1 0.140670 0.499980 0.500000 0.935567
Cu2   Cu    Cu3+1 0.859330 0.500020 0.500000 0.975347
H1    H     H_    0.797542 0.627226 0.081311 0.120032
H2    H     H_    0.315229 0.407489 0.625209 0.118869
H3    H     H_    0.455617 0.664627 0.315943 0.113284
H4    H     H_    0.346242 0.527550 0.226183 0.127617
H5    H     H_    0.403970 0.730310 0.431489 0.148211
H6    H     H_    0.704328 0.671871 0.318649 0.108969
H7    H     H_    0.651465 0.737299 0.434417 0.143127
H8    H     H_    0.200532 0.449438 0.906026 0.112748
H9    H     H_    0.991120 0.633390 0.942052 0.119928
H10   H     H_    0.075050 0.599416 0.779924 0.131225
H11   H     H_    0.551605 0.590010 0.161032 0.099308
H12   H     H_    0.006227 0.431209 0.042323 0.141443
H13   H     H_    0.451345 0.481398 0.830172 0.158491
H14   H     H_    0.845146 0.517830 0.246915 0.326589
H15   H     H_    0.615336 0.321436 0.827501 0.322315
H16   H     H_    0.764506 0.108887 0.513648 0.140359
H17   H     H_    0.766690 0.884763 0.513155 0.129007
H18   H     H_    0.340370 0.902154 0.511773 0.132533
H19   H     H_    0.286238 0.902379 0.402188 0.134361
H20   H     H_    0.334848 0.120498 0.514078 0.141770
H21   H     H_    0.281875 0.121887 0.404912 0.151544
H22   H     H_    0.574909 0.405653 0.624671 0.166770
N1    N     N_R   0.648210 0.500930 0.499430 -0.236288
N2    N     N_R   0.352300 0.500890 0.499430 -0.233423
O1    O     O_R   0.118810 0.319640 0.500000 -0.501525
O2    O     O_3   0.671362 0.377320 0.779218 -0.732706
O3    O     O_R   0.881230 0.319680 0.499990 -0.495215
O4    O     O_R   0.055580 0.499970 0.629840 -0.525940
O5    O     O_R   0.818000 0.500010 0.629830 -0.460468
O6    O     O_R   0.118770 0.680320 0.500010 -0.503257
O7    O     O_R   0.881190 0.680360 0.500000 -0.516643
O8    O     O_R   0.182000 0.499990 0.370170 -0.508730
O9    O     O_R   0.944420 0.500030 0.370160 -0.484559
O10   O     O_3   0.882747 0.444763 0.210883 -0.693469

loop_
_geom_bond_atom_site_label_1
_geom_bond_atom_site_label_2
_ccdc_geom_bond_type
C28   H9    S    
C30   O2    S    
C18   C21   A    
C35   C36   A    
Cu1   N2    S    
C6    O10   S    
C12   C23   A    
C18   C24   S    
C24   H7    S    
C28   C29   A    
C3    C7    A    
C5    C6    A    
C20   H2    S    
H15   O2    S    
C22   H3    S    
C33   H11   S    
Cu1   O6    S    
C7    C27   A    
C7    H4    S    
C22   H5    S    
C8    C9    A    
C1    O3    A    
C36   H8    S    
C16   O6    A    
C9    C10   A    
C17   H20   S    
Cu2   N1    S    
Cu2   O7    S    
C21   C22   S    
C15   H19   S    
C1    O1    A    
Cu1   O1    S    
C29   H10   S    
C34   H1    S    
C1    C9    S    
Cu1   Cu2   S    
H14   O10   S    
C6    C27   A    
Cu2   O3    S    
C23   C34   A    
Cu1   O4    S    
C33   C34   A    
C23   C28   A    
C21   N2    A    
C17   H21   S    
C25   O9    A    
C26   C30   A    
C12   C31   A    
C35   H13   S    
C24   H6    S    
C31   C35   A    
C5    H12   S    
C2    C5    A    
C11   H17   S    
C2    C36   A    
C15   C17   S    
Cu2   O9    S    
C8    C14   A    
C12   C30   A    
C31   C32   A    
C16   O7    A    
C4    O5    A    
C4    C26   S    
C18   N1    A    
C19   H22   S    
C25   C27   S    
C8    C17   S    
Cu1   O8    S    
C15   H18   S    
C19   C20   A    
C2    C3    A    
C32   C33   A    
C4    O4    A    
C11   C13   A    
C19   N1    A    
C22   C24   S    
C20   N2    A    
C3    C32   A    
C10   H16   S    
C10   C11   A    
Cu2   O5    S    
C26   C29   A    
C13   C16   S    
C14   C15   S    
C25   O8    A    
C13   C14   A    
