data_mof_unit_19833.cif
_audit_creation_date              2012-10-26T19:28:23-0400
_audit_creation_method            fapswitch 2.2
_symmetry_space_group_name_H-M    P1
_symmetry_Int_Tables_number       1
_space_group_crystal_system       triclinic
_cell_length_a                    14.759945
_cell_length_b                    14.542401
_cell_length_c                    14.349477
_cell_angle_alpha                 77.531949
_cell_angle_beta                  102.461993
_cell_angle_gamma                 114.568416
_cell_volume                      2707.44726354

loop_
_atom_site_label
_atom_site_type_symbol
_atom_type_description
_atom_site_fract_x
_atom_site_fract_y
_atom_site_fract_z
_atom_type_partial_charge
C1    C     C_R   0.880401 0.311433 0.514844 0.550574
C2    C     C_R   0.494226 0.122910 0.418672 0.255980
C3    C     C_R   0.604772 0.908179 0.599511 -0.098065
C4    C     C_R   0.390121 0.098088 0.399884 -0.101854
C5    C     C_R   0.718039 0.672493 0.347798 -0.162078
C6    C     C_R   0.283044 0.329262 0.654252 -0.146698
C7    C     C_R   0.796676 0.638106 0.368420 0.425422
C8    C     C_R   0.202492 0.360952 0.630816 0.429617
C9    C     C_R   0.715598 0.510458 0.491727 -0.028295
C10   C     C_R   0.286344 0.492302 0.511222 -0.002547
C11   C     C_R   0.630841 0.538142 0.469787 -0.022198
C12   C     C_R   0.119442 0.688488 0.483628 0.554229
C13   C     C_R   0.372447 0.466730 0.535591 -0.006007
C14   C     C_R   0.635137 0.622542 0.397479 -0.013569
C15   C     C_R   0.367906 0.382035 0.607604 -0.003176
C16   C     C_R   0.000096 0.499914 0.668870 0.534193
C17   C     C_R   0.999897 0.500075 0.331130 0.534081
C18   C     C_R   0.542964 0.486084 0.516729 0.029399
C19   C     C_R   0.461462 0.520451 0.490528 0.039783
C20   C     C_R   0.471942 0.607577 0.420655 -0.128342
C21   C     C_R   0.533341 0.400234 0.588073 -0.141977
C22   C     C_R   0.556878 0.657032 0.374937 -0.134822
C23   C     C_R   0.637734 0.077804 0.511860 -0.025841
C24   C     C_R   0.447727 0.349807 0.632658 -0.124476
C25   C     C_1   0.000270 0.499799 0.771285 -0.050571
C26   C     C_1   0.999726 0.500194 0.228717 -0.049369
C27   C     C_1   0.000249 0.499808 0.856699 -0.052083
C28   C     C_1   0.999751 0.500190 0.143303 -0.051780
C29   C     C_1   0.000089 0.499934 0.957321 -0.007703
C30   C     C_1   0.999916 0.500070 0.042681 -0.007748
C31   C     C_R   0.812238 0.202032 0.523724 -0.062655
C32   C     C_R   0.186307 0.797983 0.469992 -0.060230
C33   C     C_R   0.777098 0.020751 0.573557 0.289637
C34   C     C_R   0.358608 0.926951 0.485147 -0.040369
C35   C     C_R   0.217646 0.975551 0.403777 0.273726
C36   C     C_R   0.846843 0.121627 0.553661 0.287802
C37   C     C_R   0.149518 0.875075 0.428286 0.268630
C38   C     C_R   0.708588 0.178526 0.503331 -0.151811
C39   C     C_R   0.290000 0.824862 0.496251 -0.174637
C40   C     C_3   0.008794 0.872464 0.469400 -0.063723
C41   C     C_3   0.984543 0.144065 0.491180 -0.055974
C42   C     C_3   0.790495 0.877435 0.547998 -0.125871
C43   C     C_3   0.161091 0.041960 0.255689 -0.118304
C44   C     C_3   0.427777 0.839451 0.721219 -0.123609
C45   C     C_R   0.672906 0.000559 0.559131 -0.060347
C46   C     C_3   0.543314 0.295968 0.360333 -0.141570
C47   C     C_3   0.141332 0.312274 0.775285 -0.094920
C48   C     C_3   0.851341 0.681235 0.221203 -0.100259
C49   C     C_R   0.322070 0.001380 0.431889 -0.036604
C50   C     C_R   0.532393 0.053353 0.482983 0.018557
C51   C     C_R   0.463519 0.954991 0.518276 -0.001869
C52   C     C_R   0.502667 0.888583 0.586521 0.250132
Cu1   Cu    Cu3+1 0.081740 0.475690 0.523180 0.993416
Cu2   Cu    Cu3+1 0.918260 0.524310 0.476820 0.986535
H1    H     H_    0.631135 0.853340 0.648027 0.170851
H2    H     H_    0.720746 0.450045 0.548195 0.125647
H3    H     H_    0.721856 0.738106 0.293501 0.093918
H4    H     H_    0.279099 0.263358 0.708200 0.097195
H5    H     H_    0.017298 0.825004 0.540237 0.111156
H6    H     H_    0.927346 0.853064 0.445199 0.130235
H7    H     H_    0.044308 0.954947 0.477375 0.133736
H8    H     H_    0.067339 0.166902 0.507285 0.156480
H9    H     H_    0.969268 0.200897 0.431153 0.106596
H10   H     H_    0.951933 0.067536 0.467748 0.095839
H11   H     H_    0.835121 0.829353 0.575060 0.138071
H12   H     H_    0.361855 0.151671 0.352050 0.154211
H13   H     H_    0.809875 0.918390 0.475511 0.088276
H14   H     H_    0.710108 0.824829 0.540889 0.123999
H15   H     H_    0.097766 0.969099 0.239927 0.168029
H16   H     H_    0.228925 0.049828 0.227409 0.101845
H17   H     H_    0.138343 0.105283 0.216340 0.133127
H18   H     H_    0.385099 0.889900 0.695413 0.121387
H19   H     H_    0.500265 0.879497 0.765777 0.118711
H20   H     H_    0.382098 0.772182 0.768279 0.143740
H21   H     H_    0.613863 0.361862 0.344749 0.152589
H22   H     H_    0.527417 0.301844 0.430767 0.109943
H23   H     H_    0.415676 0.639994 0.399486 0.097982
H24   H     H_    0.482918 0.303000 0.301459 0.125448
H25   H     H_    0.070746 0.290513 0.805244 0.146745
H26   H     H_    0.191705 0.390478 0.792146 0.103755
H27   H     H_    0.175363 0.256267 0.811886 0.097300
H28   H     H_    0.817179 0.737296 0.185240 0.095064
H29   H     H_    0.799453 0.602612 0.206752 0.104688
H30   H     H_    0.919904 0.701251 0.188467 0.144077
H31   H     H_    0.590587 0.369217 0.611012 0.091761
H32   H     H_    0.316837 0.764037 0.520049 0.210500
H33   H     H_    0.683405 0.240468 0.488283 0.190769
H34   H     H_    0.561088 0.722955 0.320812 0.109142
H35   H     H_    0.443843 0.284342 0.687293 0.108579
H36   H     H_    0.281559 0.552913 0.454806 0.123977
N1    N     N_R   0.795420 0.560790 0.441960 -0.223918
N2    N     N_R   0.204580 0.439210 0.558040 -0.222804
O1    O     O_R   0.977910 0.338120 0.530560 -0.408956
O2    O     O_3   0.948587 0.141619 0.575514 -0.489576
O3    O     O_3   0.813117 0.944924 0.615092 -0.542605
O4    O     O_3   0.181534 0.049441 0.355089 -0.580123
O5    O     O_3   0.443670 0.804979 0.643880 -0.585727
O6    O     O_3   0.557076 0.205023 0.361742 -0.574476
O7    O     O_3   0.116959 0.308651 0.675090 -0.488350
O8    O     O_3   0.880081 0.687239 0.320820 -0.488008
O9    O     O_R   0.022090 0.661880 0.469440 -0.406025
O10   O     O_R   0.839850 0.379180 0.491410 -0.528315
O11   O     O_R   0.160150 0.620820 0.508590 -0.523940
O12   O     O_R   0.069040 0.479460 0.643530 -0.452710
O13   O     O_R   0.930960 0.520540 0.356470 -0.449172
O14   O     O_R   0.930990 0.520530 0.604380 -0.497277
O15   O     O_R   0.069010 0.479470 0.395620 -0.501259
O16   O     O_3   0.047827 0.850789 0.399308 -0.511891

loop_
_geom_bond_atom_site_label_1
_geom_bond_atom_site_label_2
_ccdc_geom_bond_type
C11   C18   A    
C40   H6    S    
C27   C29   S    
C18   C21   A    
C33   C45   A    
C6    H4    S    
Cu2   O9    S    
C19   C20   A    
C47   H25   S    
C24   H35   S    
C9    N1    A    
C46   H22   S    
Cu1   Cu2   S    
C34   C51   A    
C20   H23   S    
C23   C45   A    
C17   C26   S    
C47   H26   S    
C35   C37   A    
C8    O7    S    
C17   O15   A    
C11   C14   A    
Cu1   O12   S    
C52   O5    S    
C1    C31   S    
C33   C36   A    
C47   O7    S    
C18   C19   A    
C32   C39   A    
C2    C50   A    
C6    C15   A    
C3    H1    S    
C16   O12   A    
C35   C49   A    
C42   H11   S    
C8    N2    A    
C22   H34   S    
C16   O14   A    
C40   O16   S    
C46   O6    S    
C10   N2    A    
C43   H15   S    
C40   H5    S    
C12   C32   S    
C42   H14   S    
C51   C52   A    
C41   H8    S    
C33   O3    S    
C46   H21   S    
C50   C51   A    
C48   O8    S    
C21   H31   S    
C7    O8    S    
C13   C19   A    
Cu1   O1    S    
C42   O3    S    
C12   O11   A    
C46   H24   S    
C36   O2    S    
Cu2   O14   S    
C23   C50   A    
C6    C8    A    
C35   O4    S    
C3    C45   A    
C40   H7    S    
C34   C39   A    
C2    C4    A    
C29   C30   T    
C17   O13   A    
C44   O5    S    
Cu1   O15   S    
C41   O2    S    
C7    N1    A    
Cu1   N2    S    
C43   O4    S    
C9    H2    S    
C32   C37   A    
C44   H20   S    
C9    C11   A    
C10   H36   S    
C5    C14   A    
C37   O16   S    
C15   C24   A    
C20   C22   A    
C43   H16   S    
C13   C15   A    
C42   H13   S    
C41   H9    S    
C5    C7    A    
C16   C25   S    
C34   C49   A    
C43   H17   S    
Cu2   O13   S    
Cu2   O10   S    
C10   C13   A    
C3    C52   A    
C48   H29   S    
C25   C27   T    
C23   C38   A    
C38   H33   S    
C26   C28   T    
C39   H32   S    
C31   C38   A    
C5    H3    S    
C4    C49   A    
C14   C22   A    
C28   C30   S    
C12   O9    A    
C4    H12   S    
Cu1   O11   S    
C48   H28   S    
C44   H18   S    
C47   H27   S    
C44   H19   S    
C48   H30   S    
Cu2   N1    S    
C2    O6    S    
C1    O1    A    
C21   C24   A    
C31   C36   A    
C41   H10   S    
C1    O10   A    
