data_mof_unit_5943.cif
_audit_creation_date              2012-10-26T19:03:28-0400
_audit_creation_method            fapswitch 2.2
_symmetry_space_group_name_H-M    P1
_symmetry_Int_Tables_number       1
_space_group_crystal_system       triclinic
_cell_length_a                    10.85598
_cell_length_b                    13.056871
_cell_length_c                    11.643243
_cell_angle_alpha                 98.83346
_cell_angle_beta                  95.582925
_cell_angle_gamma                 88.430227
_cell_volume                      1622.93175737

loop_
_atom_site_label
_atom_site_type_symbol
_atom_type_description
_atom_site_fract_x
_atom_site_fract_y
_atom_site_fract_z
_atom_type_partial_charge
C1    C     C_R   0.499677 0.298717 0.480143 0.535373
C2    C     C_R   0.469196 0.126416 0.361161 -0.150574
C3    C     C_R   0.546785 0.132963 0.565752 -0.032677
C4    C     C_R   0.262287 0.496837 0.498194 0.540077
C5    C     C_R   0.561743 0.024079 0.546643 0.007695
C6    C     C_R   0.505450 0.967392 0.442309 0.005405
C7    C     C_R   0.486725 0.861628 0.438252 -0.163887
C8    C     C_R   0.615926 0.861612 0.620607 -0.034252
C9    C     C_R   0.630433 0.969601 0.629165 -0.022144
C10   C     C_R   0.352884 0.443241 0.025210 -0.175946
C11   C     C_R   0.371952 0.441160 0.146034 0.047776
C12   C     C_R   0.078039 0.432774 0.574316 0.013091
C13   C     C_R   0.566483 0.521310 0.155501 0.038388
C14   C     C_R   0.552755 0.522332 0.033523 -0.001119
C15   C     C_R   0.443562 0.484439 0.967944 0.013467
C16   C     C_R   0.510160 0.699799 0.520292 0.550988
C17   C     C_R   0.430350 0.484688 0.845790 0.058522
C18   C     C_R   0.630363 0.553834 0.853284 0.029534
C19   C     C_R   0.646461 0.557668 0.975140 -0.195985
C20   C     C_R   0.738168 0.495390 0.501568 0.545022
C21   C     C_R   0.151799 0.366810 0.639899 -0.109312
C22   C     C_R   0.105032 0.325010 0.729197 -0.139942
C23   C     C_R   0.128701 0.487067 0.493960 -0.017793
C24   C     C_R   0.983416 0.345470 0.752641 -0.138559
C25   C     C_R   0.905941 0.401775 0.681946 -0.119007
C26   C     C_R   0.950187 0.442794 0.587979 0.020268
C27   C     C_R   0.094834 0.586226 0.320383 0.057466
C28   C     C_R   0.068888 0.542443 0.202761 -0.106767
C29   C     C_R   0.102344 0.593822 0.113906 -0.130504
C30   C     C_R   0.160769 0.689579 0.141766 -0.096072
C31   C     C_R   0.185778 0.734156 0.258528 -0.101442
C32   C     C_R   0.153508 0.682573 0.347910 -0.066979
C33   C     C_R   0.738492 0.018513 0.704192 0.041093
C34   C     C_R   0.050239 0.534758 0.413076 -0.051400
C35   C     C_R   0.739746 0.036900 0.826474 -0.069376
C36   C     C_R   0.846131 0.074705 0.895687 -0.108907
C37   C     C_R   0.951774 0.094561 0.843484 -0.116933
C38   C     C_R   0.950947 0.077260 0.721948 -0.114316
C39   C     C_R   0.844788 0.039446 0.652435 -0.097821
C40   C     C_R   0.552477 0.186517 0.688236 0.061820
C41   C     C_R   0.655169 0.245971 0.737622 -0.040289
C42   C     C_R   0.666613 0.285462 0.856773 -0.097997
C43   C     C_R   0.576357 0.264286 0.927323 -0.100984
C44   C     C_R   0.471948 0.207519 0.878117 -0.132706
C45   C     C_R   0.923732 0.533899 0.418484 -0.169205
C46   C     C_R   0.459779 0.168832 0.758881 -0.108208
C47   C     C_R   0.701614 0.802379 0.694453 0.065377
C48   C     C_R   0.807816 0.754836 0.649037 -0.073013
C49   C     C_R   0.900406 0.715112 0.722743 -0.107232
C50   C     C_R   0.888386 0.723984 0.842316 -0.120446
C51   C     C_R   0.782098 0.769987 0.887789 -0.132863
C52   C     C_R   0.687476 0.806612 0.813629 -0.080124
C53   C     C_R   0.427811 0.961641 0.227658 0.023445
C54   C     C_R   0.317505 0.988488 0.164733 -0.112710
C55   C     C_R   0.284692 0.937583 0.051581 -0.128284
C56   C     C_R   0.872715 0.491293 0.505492 -0.020336
C57   C     C_R   0.361411 0.859465 0.000318 -0.114685
C58   C     C_R   0.471093 0.832151 0.062050 -0.117419
C59   C     C_R   0.505023 0.883641 0.174592 -0.099109
C60   C     C_R   0.534564 0.810136 0.529553 -0.027986
C61   C     C_R   0.504607 0.184706 0.470342 -0.027520
C62   C     C_R   0.465400 0.018424 0.346382 -0.017259
Cu1   Cu    Cu3+1 0.509250 0.507730 0.615930 0.928670
Cu2   Cu    Cu3+1 0.490750 0.492270 0.384070 0.934543
H1    H     H_    0.347544 0.453648 0.795335 0.124180
H2    H     H_    0.185350 0.729579 0.072738 0.121680
H3    H     H_    0.228251 0.809455 0.279546 0.109967
H4    H     H_    0.171907 0.718366 0.438039 0.094148
H5    H     H_    0.658205 0.022714 0.867958 0.111128
H6    H     H_    0.846507 0.088822 0.989769 0.102779
H7    H     H_    0.034101 0.123815 0.897134 0.092651
H8    H     H_    0.032825 0.092663 0.681598 0.110284
H9    H     H_    0.845933 0.024780 0.558424 0.104597
H10   H     H_    0.440803 0.165349 0.286904 0.132990
H11   H     H_    0.728420 0.255998 0.684259 0.106317
H12   H     H_    0.705232 0.576454 0.808859 0.152462
H13   H     H_    0.746830 0.329976 0.895238 0.091903
H14   H     H_    0.586871 0.292541 0.020052 0.123203
H15   H     H_    0.401409 0.192226 0.932665 0.104818
H16   H     H_    0.380127 0.122529 0.722159 0.099171
H17   H     H_    0.268434 0.411926 0.976909 0.082607
H18   H     H_    0.732858 0.585395 0.022713 0.084709
H19   H     H_    0.648489 0.553939 0.206731 0.116452
H20   H     H_    0.245718 0.345506 0.622041 0.135449
H21   H     H_    0.948019 0.315159 0.824118 0.108478
H22   H     H_    0.820678 0.751761 0.557465 0.092886
H23   H     H_    0.301260 0.409178 0.188848 0.130046
H24   H     H_    0.982655 0.679443 0.687559 0.115357
H25   H     H_    0.960956 0.694688 0.899566 0.105815
H26   H     H_    0.772557 0.776478 0.980297 0.101103
H27   H     H_    0.605934 0.842736 0.849687 0.100311
H28   H     H_    0.256811 0.048567 0.203383 0.098009
H29   H     H_    0.199560 0.958515 0.003736 0.106534
H30   H     H_    0.335665 0.819840 0.912942 0.113911
H31   H     H_    0.530230 0.771445 0.022464 0.114812
H32   H     H_    0.591665 0.862922 0.220221 0.106914
H33   H     H_    0.163548 0.277141 0.780678 0.097977
H34   H     H_    0.812894 0.412302 0.704752 0.139244
H35   H     H_    0.864317 0.570832 0.355895 0.124902
H36   H     H_    0.432656 0.818661 0.364580 0.138502
H37   H     H_    0.022151 0.468841 0.180060 0.095998
H38   H     H_    0.082301 0.559668 0.023450 0.100565
N1    N     N_R   0.523180 0.519350 0.790130 -0.231250
N2    N     N_R   0.476820 0.480650 0.209890 -0.228996
O1    O     O_R   0.506570 0.354460 0.582000 -0.503284
O2    O     O_R   0.490940 0.341410 0.386200 -0.508297
O3    O     O_R   0.327470 0.506530 0.597920 -0.520252
O4    O     O_R   0.311840 0.493480 0.402120 -0.497532
O5    O     O_R   0.509060 0.658590 0.613800 -0.488428
O6    O     O_R   0.493430 0.645540 0.418000 -0.502013
O7    O     O_R   0.688160 0.506520 0.597880 -0.525833
O8    O     O_R   0.672530 0.493470 0.402080 -0.514908

loop_
_geom_bond_atom_site_label_1
_geom_bond_atom_site_label_2
_ccdc_geom_bond_type
C41   C42   A    
C35   C36   A    
C20   C56   S    
C53   C59   A    
C16   O6    A    
C53   C54   A    
C43   H14   S    
C31   H3    S    
C4    O4    A    
C12   C23   A    
C28   C29   A    
C5    C9    A    
C33   C39   A    
C36   C37   A    
C37   C38   A    
C10   C15   A    
C51   H26   S    
C5    C6    A    
Cu2   O8    S    
C15   C17   A    
C18   C19   A    
C16   C60   S    
C20   O8    A    
C28   H37   S    
C31   C32   A    
C45   C56   A    
C11   H23   S    
C8    C9    A    
C11   N2    A    
Cu1   O1    S    
C19   H18   S    
C24   H21   S    
C2    H10   S    
C2    C61   A    
C55   H29   S    
C1    O2    A    
C32   H4    S    
C22   H33   S    
C21   C22   A    
C9    C33   S    
C49   H24   S    
C44   C46   A    
C16   O5    A    
Cu2   O4    S    
C3    C61   A    
C27   C34   S    
C38   C39   A    
C4    O3    A    
C38   H8    S    
Cu1   O7    S    
C7    H36   S    
C51   C52   A    
C24   C25   A    
Cu1   N1    S    
C45   H35   S    
C4    C23   S    
C25   C26   A    
C12   C21   A    
C12   C26   A    
Cu1   O5    S    
C47   C52   A    
C40   C46   A    
C58   H31   S    
C54   H28   S    
C29   C30   A    
C41   H11   S    
C20   O7    A    
C53   C62   S    
C50   H25   S    
Cu2   O6    S    
C47   C48   A    
C21   H20   S    
C23   C34   A    
C50   C51   A    
C34   C45   A    
C13   N2    A    
C30   H2    S    
C26   C56   A    
C48   C49   A    
C36   H6    S    
C3    C40   S    
C57   H30   S    
C55   C57   A    
C43   C44   A    
C48   H22   S    
C59   H32   S    
Cu1   O3    S    
C7    C60   A    
Cu2   N2    S    
C54   C55   A    
C40   C41   A    
C18   H12   S    
C27   C32   A    
C14   C19   A    
C44   H15   S    
C3    C5    A    
C1    C61   S    
Cu2   O2    S    
C6    C7    A    
C13   H19   S    
C10   H17   S    
C17   H1    S    
C6    C62   A    
C37   H7    S    
C58   C59   A    
C8    C47   S    
C8    C60   A    
C46   H16   S    
C57   C58   A    
C30   C31   A    
C33   C35   A    
C29   H38   S    
C22   C24   A    
C18   N1    A    
C39   H9    S    
C17   N1    A    
C10   C11   A    
Cu1   Cu2   S    
C25   H34   S    
C35   H5    S    
C42   H13   S    
C49   C50   A    
C42   C43   A    
C27   C28   A    
C14   C15   A    
C52   H27   S    
C13   C14   A    
C2    C62   A    
C1    O1    A    
