data_mof_unit_15853.cif
_audit_creation_date              2012-12-10T17:11:30-0500
_audit_creation_method            fapswitch 2.2
_symmetry_space_group_name_H-M    P1
_symmetry_Int_Tables_number       1
_space_group_crystal_system       triclinic
_cell_length_a                    15.088007
_cell_length_b                    12.95083
_cell_length_c                    11.667246
_cell_angle_alpha                 100.147933
_cell_angle_beta                  93.704559
_cell_angle_gamma                 90.283667
_cell_volume                      2239.14186631

loop_
_atom_site_label
_atom_site_type_symbol
_atom_type_description
_atom_site_fract_x
_atom_site_fract_y
_atom_site_fract_z
_atom_type_partial_charge
C1    C     C_R   0.494756 0.299206 0.478381 0.873829
C2    C     C_R   0.505242 0.700792 0.521620 0.870439
C3    C     C_R   0.034758 0.479825 0.286615 0.275772
C4    C     C_R   0.965236 0.520194 0.713388 0.277263
C5    C     C_R   0.513486 0.814282 0.534167 -0.189042
C6    C     C_R   0.486464 0.185712 0.465840 -0.205753
C7    C     C_R   0.422824 0.017192 0.371038 0.408059
C8    C     C_R   0.576992 0.982815 0.629069 0.345863
C9    C     C_R   0.424532 0.127318 0.384119 0.194522
C10   C     C_R   0.575372 0.872695 0.615913 0.163256
C11   C     C_R   0.539898 0.136868 0.541049 -0.186959
C12   C     C_R   0.460023 0.863115 0.458980 -0.184589
C13   C     C_R   0.529095 0.030401 0.543619 -0.042211
C14   C     C_R   0.470747 0.969614 0.456488 -0.060057
C15   C     C_R   0.407569 0.413397 0.022823 -0.261762
C16   C     C_R   0.592419 0.586623 0.977179 -0.261495
C17   C     C_R   0.417259 0.420550 0.144737 0.141257
C18   C     C_R   0.582730 0.579469 0.855264 0.133616
C19   C     C_R   0.541192 0.535687 0.156410 0.073599
C20   C     C_R   0.458807 0.464315 0.843590 0.071412
C21   C     C_R   0.533886 0.531026 0.033799 0.056313
C22   C     C_R   0.466109 0.468984 0.966202 0.055479
C23   C     C_R   0.328527 0.499667 0.500320 0.828204
C24   C     C_R   0.671472 0.500346 0.499681 0.831935
C25   C     C_R   0.819763 0.510848 0.605576 -0.142062
C26   C     C_R   0.180232 0.489175 0.394434 -0.144386
C27   C     C_R   0.768296 0.500862 0.499614 -0.079510
C28   C     C_R   0.231701 0.499163 0.500389 -0.078715
C29   C     C_R   0.809372 0.491128 0.394196 -0.186196
C30   C     C_R   0.190626 0.508898 0.605801 -0.191573
C31   C     C_R   0.901623 0.490730 0.393827 0.063555
C32   C     C_R   0.098374 0.509298 0.606175 0.064658
C33   C     C_R   0.953517 0.500358 0.500385 0.028599
C34   C     C_R   0.046481 0.499671 0.499621 0.029455
C35   C     C_R   0.912462 0.510630 0.607506 0.040006
C36   C     C_R   0.087534 0.489396 0.392501 0.039739
C37   C     C_R   0.942475 0.480613 0.288212 -0.186417
C38   C     C_R   0.057520 0.519407 0.711788 -0.191855
Cu1   Cu    Cu3+1 0.506660 0.507730 0.615930 0.994989
Cu2   Cu    Cu3+1 0.493340 0.492270 0.384070 0.999905
H1    H     H_    0.786941 0.518660 0.686276 0.200398
H2    H     H_    0.213049 0.481361 0.313738 0.199637
H3    H     H_    0.354450 0.365133 0.973444 0.168523
H4    H     H_    0.645533 0.634896 0.026558 0.170702
H5    H     H_    0.769621 0.483534 0.312209 0.162270
H6    H     H_    0.230377 0.516491 0.687781 0.160186
H7    H     H_    0.902537 0.473231 0.206426 0.196278
H8    H     H_    0.097456 0.526782 0.793569 0.194170
H9    H     H_    0.409943 0.815979 0.402530 0.225953
H10   H     H_    0.590073 0.183943 0.597372 0.227165
H11   H     H_    0.407229 0.416181 0.790765 0.128777
H12   H     H_    0.592772 0.583818 0.209235 0.129780
H13   H     H_    0.628865 0.621608 0.812692 0.174889
H14   H     H_    0.371116 0.378425 0.187309 0.174274
N1    N     N_R   0.516670 0.519360 0.790130 -0.197297
N2    N     N_R   0.483330 0.480640 0.209870 -0.198044
O1    O     O_R   0.504720 0.354460 0.582000 -0.578187
O2    O     O_R   0.495280 0.645540 0.418000 -0.577659
O3    O     O_R   0.493480 0.341410 0.386200 -0.551797
O4    O     O_R   0.506520 0.658590 0.613800 -0.558045
O5    O     O_R   0.375880 0.506510 0.597910 -0.599520
O6    O     O_R   0.624120 0.493490 0.402090 -0.597724
O7    O     O_R   0.364640 0.493450 0.402110 -0.586746
O8    O     O_R   0.635360 0.506550 0.597890 -0.585193
Br1   Br    Br    0.084066 0.465494 0.136744 -0.427631
Br2   Br    Br    0.915917 0.534502 0.863248 -0.422216
Br3   Br    Br    0.666094 0.800579 0.694383 -0.416072
Br4   Br    Br    0.333883 0.199535 0.305654 -0.404981
S1    S     S_3+6 0.365055 0.940259 0.245803 0.045696
O9    O     O_2   0.415982 0.842745 0.204278 -0.300577
O10   O     O_2   0.275147 0.909778 0.278728 -0.252889
O11   O     O_3   0.352549 0.006484 0.134219 -0.460512
H15   H     H_    0.316035 0.959489 0.072740 0.387729
S2    S     S_3+6 0.634621 0.059626 0.754521 0.065741
O12   O     O_2   0.725013 0.088980 0.722296 -0.202691
O13   O     O_2   0.584931 0.158176 0.795694 -0.299628
O14   O     O_3   0.646593 0.994034 0.866676 -0.424241
H16   H     H_    0.585268 0.981927 0.887588 0.360341

loop_
_geom_bond_atom_site_label_1
_geom_bond_atom_site_label_2
_ccdc_geom_bond_type
C19   N2    A    
C4    Br2   S    
C8    C13   A    
C27   C29   A    
C24   C27   S    
C6    C9    A    
C12   H9    S    
O14   H16   S    
Cu1   O8    S    
C16   C21   A    
Cu2   O7    S    
S2    O13   D    
C19   C21   A    
C20   H11   S    
C1    O3    A    
C2    O4    A    
Cu1   O1    S    
Cu2   O6    S    
C7    C9    A    
S1    O10   D    
C18   H13   S    
C19   H12   S    
C15   C22   A    
Cu1   N1    S    
Cu2   N2    S    
S2    O14   S    
C31   C33   A    
C32   C38   A    
C37   H7    S    
C16   H4    S    
C38   H8    S    
C23   O7    A    
C4    C35   A    
C24   O8    A    
Cu2   O3    S    
C21   C22   A    
C3    Br1   S    
C20   N1    A    
C7    C14   A    
Cu1   O5    S    
Cu2   O2    S    
S2    O12   D    
C1    C6    S    
C5    C12   A    
C25   H1    S    
C6    C11   A    
C10   Br3   S    
C31   C37   A    
C29   H5    S    
C32   C34   A    
S1    O11   S    
C1    O1    A    
C8    S2    S    
C33   C34   A    
C16   C18   A    
C23   C28   S    
C17   N2    A    
C18   N1    A    
C25   C35   A    
C26   C36   A    
C12   C14   A    
C2    C5    S    
C20   C22   A    
Cu1   Cu2   S    
C26   H2    S    
C15   C17   A    
C24   O6    A    
C30   H6    S    
C4    C38   A    
O11   H15   S    
C7    S1    S    
C2    O2    A    
C25   C27   A    
C26   C28   A    
C28   C30   A    
C9    Br4   S    
C15   H3    S    
C5    C10   A    
C29   C31   A    
C11   H10   S    
C30   C32   A    
C11   C13   A    
C3    C36   A    
Cu1   O4    S    
C33   C35   A    
C34   C36   A    
S1    O9    D    
C23   O5    A    
C3    C37   A    
C8    C10   A    
C13   C14   A    
C17   H14   S    
