data_mof_unit_65565.cif
_audit_creation_date              2013-03-05T16:09:17-0500
_audit_creation_method            fapswitch 2.2
_symmetry_space_group_name_H-M    P1
_symmetry_Int_Tables_number       1
_space_group_crystal_system       triclinic
_cell_length_a                    38.725523
_cell_length_b                    45.066399
_cell_length_c                    29.683634
_cell_angle_alpha                 89.942494
_cell_angle_beta                  130.593449
_cell_angle_gamma                 90.08742
_cell_volume                      39337.4546476

loop_
_atom_site_label
_atom_site_type_symbol
_atom_site_description
_atom_site_fract_x
_atom_site_fract_y
_atom_site_fract_z
_atom_type_partial_charge
O1    O     O_R   0.298140 0.236530 0.096350 -0.599790
O2    O     O_R   0.701860 0.236530 0.903650 -0.597760
O3    O     O_R   0.798140 0.736530 0.096350 -0.600698
O4    O     O_R   0.201860 0.736530 0.903650 -0.597618
O5    O     O_R   0.263350 0.201750 0.026760 -0.592854
O6    O     O_R   0.736650 0.201750 0.973240 -0.597809
O7    O     O_R   0.763350 0.701750 0.026760 -0.592456
O8    O     O_R   0.236650 0.701750 0.973240 -0.597220
C1    C     C_R   0.290615 0.209278 0.081263 0.972893
C2    C     C_R   0.709385 0.209277 0.918736 0.972202
C3    C     C_R   0.790602 0.709277 0.081264 0.971494
C4    C     C_R   0.209365 0.709277 0.918736 0.967288
O9    O     O_R   0.318280 0.267330 0.034740 -0.632334
O10   O     O_R   0.681720 0.267330 0.965260 -0.629673
O11   O     O_R   0.818280 0.767330 0.034740 -0.632723
O12   O     O_R   0.181720 0.767330 0.965260 -0.630496
O13   O     O_R   0.283490 0.232560 0.965160 -0.579468
O14   O     O_R   0.716510 0.232560 0.034840 -0.582668
O15   O     O_R   0.783490 0.732560 0.965160 -0.579490
O16   O     O_R   0.216510 0.732560 0.034840 -0.580643
C5    C     C_R   0.317662 0.249643 0.000625 0.931805
C6    C     C_R   0.682352 0.249586 0.999401 0.933190
C7    C     C_R   0.817655 0.749634 0.000648 0.931589
C8    C     C_R   0.182264 0.749500 0.999238 0.929451
Zn1   Zn    Zn3+2 0.273180 0.273170 0.046410 1.043510
Zn2   Zn    Zn3+2 0.726820 0.273170 0.953590 1.045516
Zn3   Zn    Zn3+2 0.773180 0.773170 0.046410 1.042264
Zn4   Zn    Zn3+2 0.226820 0.773170 0.953590 1.045899
Zn5   Zn    Zn3+2 0.226720 0.226730 0.953480 1.066929
Zn6   Zn    Zn3+2 0.773280 0.226730 0.046520 1.063635
Zn7   Zn    Zn3+2 0.726720 0.726730 0.953480 1.068483
Zn8   Zn    Zn3+2 0.273280 0.726730 0.046520 1.065645
O17   O     O_R   0.236540 0.298140 0.973130 -0.621536
O18   O     O_R   0.763460 0.298140 0.026870 -0.622113
O19   O     O_R   0.736540 0.798140 0.973130 -0.621912
O20   O     O_R   0.263460 0.798140 0.026870 -0.620643
O21   O     O_R   0.201750 0.263360 0.903540 -0.613233
O22   O     O_R   0.798250 0.263360 0.096460 -0.612856
O23   O     O_R   0.701750 0.763360 0.903540 -0.612802
O24   O     O_R   0.298250 0.763360 0.096460 -0.613193
O25   O     O_R   0.216410 0.267340 0.034730 -0.596268
O26   O     O_R   0.783590 0.267340 0.965270 -0.598081
O27   O     O_R   0.716410 0.767340 0.034730 -0.597829
O28   O     O_R   0.283590 0.767340 0.965270 -0.596443
O29   O     O_R   0.181620 0.232560 0.965150 -0.600178
O30   O     O_R   0.818380 0.232560 0.034850 -0.600344
O31   O     O_R   0.681620 0.732560 0.965150 -0.600193
O32   O     O_R   0.318380 0.732560 0.034850 -0.600142
C9    C     C_R   0.209451 0.290604 0.918649 0.878063
C10   C     C_R   0.790704 0.290604 0.081352 0.882703
C11   C     C_R   0.709297 0.790604 0.918648 0.883153
C12   C     C_R   0.290558 0.790603 0.081351 0.879073
C13   C     C_R   0.182685 0.249885 0.000139 0.988277
C14   C     C_R   0.817290 0.249903 0.999824 0.994738
C15   C     C_R   0.682693 0.749877 0.000145 0.994358
C16   C     C_R   0.317298 0.749913 0.999831 0.988708
C17   C     C_R   0.373705 0.223313 0.998595 0.307151
C18   C     C_R   0.628102 0.223619 0.005291 0.307502
C19   C     C_R   0.873457 0.723259 0.998317 0.306200
C20   C     C_R   0.130005 0.723451 0.008870 0.308545
C21   C     C_R   0.409799 0.225115 0.998820 -0.236325
C22   C     C_R   0.594157 0.225627 0.009161 -0.234759
C23   C     C_R   0.909520 0.725023 0.998515 -0.236584
C24   C     C_R   0.095767 0.725386 0.012263 -0.254022
H1    H     H_    0.423663 0.204871 0.996509 0.201606
H2    H     H_    0.580444 0.205377 0.011833 0.203476
H3    H     H_    0.923150 0.704774 0.995797 0.201743
H4    H     H_    0.084031 0.705224 0.018489 0.204203
C25   C     C_R   0.428820 0.252562 0.003116 -0.044397
C26   C     C_R   0.575965 0.253154 0.006340 -0.048292
C27   C     C_R   0.928784 0.752439 0.003260 -0.043228
C28   C     C_R   0.074914 0.752596 0.004526 -0.008413
C29   C     C_R   0.411642 0.279121 0.007171 0.257933
C30   C     C_R   0.592911 0.279644 0.001349 0.257790
C31   C     C_R   0.911943 0.779001 0.007870 0.257548
C32   C     C_R   0.089480 0.778648 0.994670 0.243603
C33   C     C_R   0.374833 0.277242 0.005922 -0.253851
C34   C     C_R   0.627067 0.277502 0.997433 -0.253516
C35   C     C_R   0.875110 0.777167 0.006548 -0.253956
C36   C     C_R   0.123760 0.776763 0.991414 -0.294008
H5    H     H_    0.360691 0.297097 0.008792 0.175971
H6    H     H_    0.641427 0.297303 0.994660 0.175068
H7    H     H_    0.861156 0.797025 0.009740 0.176384
H8    H     H_    0.135320 0.796893 0.984764 0.174331
C37   C     C_R   0.355846 0.249764 0.001555 -0.197954
C38   C     C_R   0.644853 0.249929 0.999833 -0.196267
C39   C     C_R   0.855851 0.749720 0.001673 -0.197999
C40   C     C_R   0.144484 0.749575 0.999124 -0.179531
N1    N     N_R   0.469554 0.273671 0.973142 -0.139805
N2    N     N_R   0.504372 0.273892 0.974176 -0.141823
N3    N     N_R   0.969399 0.773661 0.973278 -0.140188
N4    N     N_R   0.003933 0.773746 0.973752 -0.125161
C41   C     C_R   0.537888 0.253358 0.006057 0.295565
C42   C     C_R   0.466936 0.252798 0.003730 0.292969
C43   C     C_R   0.037019 0.752882 0.004610 0.313368
C44   C     C_R   0.966697 0.752633 0.003543 0.289045
N5    N     N_R   0.534775 0.232155 0.035745 -0.153269
N6    N     N_R   0.499906 0.231880 0.034612 -0.153763
N7    N     N_R   0.033869 0.731591 0.034130 -0.162147
N8    N     N_R   0.999296 0.731453 0.033584 -0.154736
C45   C     C_R   0.959349 0.459331 0.418721 0.898688
C46   C     C_R   0.040617 0.459330 0.581278 0.898957
C47   C     C_R   0.459350 0.959329 0.418723 0.898560
C48   C     C_R   0.540618 0.959331 0.581279 0.898960
C49   C     C_3   0.368495 0.129934 0.288652 -0.189167
C50   C     C_3   0.636269 0.127823 0.715672 -0.191825
C51   C     C_3   0.865742 0.628655 0.286131 -0.188659
C52   C     C_3   0.135849 0.628045 0.715242 -0.191660
C53   C     C_3   0.331028 0.124328 0.221387 0.144212
C54   C     C_3   0.669653 0.122095 0.783238 0.139310
C55   C     C_3   0.830656 0.622932 0.218612 0.144305
C56   C     C_3   0.169641 0.622315 0.782810 0.139876
H9    H     H_    0.363294 0.133894 0.320776 0.167691
H10   H     H_    0.645191 0.130064 0.687067 0.169072
H11   H     H_    0.858310 0.631582 0.316207 0.168097
H12   H     H_    0.144426 0.630466 0.686287 0.168988
C57   C     C_1   0.312861 0.187086 0.125636 -0.088608
C58   C     C_1   0.687202 0.187086 0.874359 -0.090004
C59   C     C_1   0.812836 0.687084 0.125635 -0.089958
C60   C     C_1   0.187185 0.687085 0.874360 -0.092031
C61   C     C_1   0.437208 0.062715 0.374111 -0.136107
C62   C     C_1   0.562901 0.062711 0.625897 -0.135857
C63   C     C_1   0.937211 0.562712 0.374109 -0.136099
C64   C     C_1   0.062903 0.562712 0.625895 -0.135939
C65   C     C_3   0.392540 0.151483 0.275509 -0.170859
C66   C     C_3   0.611726 0.151658 0.724079 -0.163454
C67   C     C_3   0.890152 0.651627 0.275823 -0.170608
C68   C     C_3   0.111318 0.651654 0.724088 -0.163808
C69   C     C_3   0.354397 0.145652 0.208387 0.034791
C70   C     C_3   0.645810 0.145654 0.791602 0.036505
C71   C     C_3   0.854367 0.645645 0.208378 0.034759
C72   C     C_3   0.145806 0.645654 0.791600 0.036624
C73   C     C_3   0.420197 0.125177 0.278729 -0.245339
C74   C     C_3   0.579498 0.127452 0.716580 -0.204989
C75   C     C_3   0.920566 0.626591 0.281555 -0.246564
C76   C     C_3   0.079523 0.627228 0.717015 -0.205332
C77   C     C_3   0.395558 0.103858 0.290770 0.017098
C78   C     C_3   0.604584 0.103849 0.709249 0.014710
C79   C     C_3   0.895581 0.603848 0.290757 0.017070
C80   C     C_3   0.104599 0.603850 0.709246 0.014821
C81   C     C_3   0.381452 0.119697 0.211705 0.136580
C82   C     C_3   0.614311 0.121734 0.784125 0.134512
C83   C     C_3   0.884126 0.620928 0.214146 0.136823
C84   C     C_3   0.114731 0.621518 0.784539 0.134420
C85   C     C_3   0.357662 0.098434 0.223978 0.282754
C86   C     C_3   0.638496 0.098243 0.776438 0.254287
C87   C     C_3   0.860011 0.598275 0.223648 0.283515
C88   C     C_3   0.138910 0.598248 0.776425 0.254507
C89   C     C_1   0.331653 0.168370 0.163085 0.003114
C90   C     C_1   0.668476 0.168372 0.836904 0.008345
C91   C     C_1   0.831619 0.668364 0.163079 0.003005
C92   C     C_1   0.168464 0.668371 0.836904 0.007786
C93   C     C_1   0.418402 0.081327 0.336431 0.042775
C94   C     C_1   0.581739 0.081321 0.663584 0.043371
C95   C     C_1   0.918413 0.581321 0.336423 0.043022
C96   C     C_1   0.081748 0.581322 0.663581 0.043251
H13   H     H_    0.457170 0.125192 0.302576 0.169356
H14   H     H_    0.542079 0.129388 0.688719 0.165577
H15   H     H_    0.957864 0.627772 0.307727 0.169240
H16   H     H_    0.042120 0.628980 0.689511 0.165387
H17   H     H_    0.406536 0.173648 0.296003 0.174859
H18   H     H_    0.601069 0.173974 0.703245 0.175225
H19   H     H_    0.902202 0.673915 0.296589 0.175403
H20   H     H_    0.100322 0.673967 0.703261 0.174989
C97   C     C_R   0.099865 0.252706 0.945997 0.074988
C98   C     C_R   0.900099 0.252406 0.054528 0.072924
C99   C     C_R   0.599849 0.752185 0.945311 0.073054
C100  C     C_R   0.400094 0.752880 0.053885 0.074853
C101  C     C_R   0.063624 0.252867 0.946190 0.247907
C102  C     C_R   0.936506 0.253915 0.054800 0.257057
C103  C     C_R   0.563414 0.753697 0.944970 0.257168
C104  C     C_R   0.436316 0.753069 0.053656 0.247985
C105  C     C_R   0.072828 0.251736 0.000631 -0.237055
C106  C     C_R   0.927621 0.254049 0.000595 -0.237604
C107  C     C_R   0.572260 0.753999 0.999146 -0.237537
C108  C     C_R   0.427087 0.751884 0.999205 -0.237095
C109  C     C_R   0.117944 0.249799 0.054777 0.201274
C110  C     C_R   0.882699 0.252343 0.946251 0.204835
C111  C     C_R   0.617168 0.752437 0.053526 0.204896
C112  C     C_R   0.381958 0.749896 0.945084 0.201398
C113  C     C_R   0.154009 0.248705 0.054485 0.178796
C114  C     C_R   0.846385 0.250165 0.945869 0.181886
C115  C     C_R   0.653511 0.750225 0.053994 0.181752
C116  C     C_R   0.345912 0.748778 0.945416 0.178853
C117  C     C_R   0.144902 0.250179 0.000155 -0.267537
C118  C     C_R   0.855180 0.250377 0.000056 -0.268734
C119  C     C_R   0.644761 0.750305 0.999832 -0.268522
C120  C     C_R   0.355050 0.750274 0.999760 -0.267864
N9    N     N_R   0.032035 0.231660 0.031127 -0.094992
N10   N     N_R   0.968728 0.274518 0.970860 -0.082239
N11   N     N_R   0.531277 0.774553 0.028894 -0.082773
N12   N     N_R   0.467734 0.731744 0.968649 -0.094936
N13   N     N_R   0.997772 0.232282 0.031205 -0.093529
N14   N     N_R   0.003012 0.273921 0.970817 -0.089875
N15   N     N_R   0.497004 0.774003 0.028966 -0.089760
N16   N     N_R   0.501983 0.732321 0.968537 -0.092915
C121  C     C_R   0.965534 0.253672 0.000923 0.412874
C122  C     C_R   0.035149 0.252449 0.000864 0.429291
C123  C     C_R   0.464749 0.752557 0.998929 0.429011
C124  C     C_R   0.534334 0.753687 0.998798 0.412683
C125  C     C_3   0.156012 0.389663 0.752539 0.326441
C126  C     C_3   0.844018 0.389246 0.247992 0.326949
C127  C     C_3   0.655981 0.889787 0.752895 0.326529
C128  C     C_3   0.343957 0.889271 0.248050 0.326687
C129  C     C_3   0.147435 0.355970 0.740711 -0.243302
C130  C     C_3   0.853156 0.355594 0.259760 -0.244646
C131  C     C_3   0.647596 0.856086 0.741033 -0.243395
C132  C     C_3   0.353030 0.855613 0.259813 -0.244791
H21   H     H_    0.165652 0.340562 0.733295 0.178496
H22   H     H_    0.835414 0.339880 0.267554 0.177470
H23   H     H_    0.666037 0.840757 0.733859 0.178457
H24   H     H_    0.335269 0.839929 0.267626 0.177302
C133  C     C_1   0.187346 0.312796 0.874345 -0.170364
C134  C     C_1   0.812824 0.312795 0.125657 -0.170614
C135  C     C_1   0.687143 0.812797 0.874346 -0.169723
C136  C     C_1   0.312634 0.812793 0.125660 -0.170658
C137  C     C_1   0.062767 0.437187 0.625735 -0.123228
C138  C     C_1   0.937132 0.437187 0.374268 -0.123560
C139  C     C_1   0.562768 0.937195 0.625746 -0.123325
C140  C     C_1   0.437136 0.937179 0.374281 -0.123717
C141  C     C_3   0.156535 0.387937 0.804971 -0.241370
C142  C     C_3   0.842982 0.387880 0.195112 -0.241489
C143  C     C_3   0.656173 0.887964 0.805040 -0.241531
C144  C     C_3   0.342891 0.887870 0.195147 -0.240632
C145  C     C_3   0.146242 0.354282 0.791860 0.003697
C146  C     C_3   0.853835 0.354281 0.208144 0.003962
C147  C     C_3   0.646069 0.854297 0.791883 0.003596
C148  C     C_3   0.353677 0.854265 0.208172 0.003959
C149  C     C_3   0.104556 0.393549 0.760512 0.145237
C150  C     C_3   0.894873 0.393908 0.239047 0.145273
C151  C     C_3   0.604170 0.893471 0.760251 0.145171
C152  C     C_3   0.394793 0.893854 0.239054 0.145357
C153  C     C_3   0.104731 0.395933 0.708862 -0.072780
C154  C     C_3   0.895198 0.395926 0.291152 -0.072762
C155  C     C_3   0.604673 0.895951 0.708891 -0.072808
C156  C     C_3   0.395150 0.895909 0.291182 -0.072852
C157  C     C_3   0.094652 0.360216 0.748488 0.188485
C158  C     C_3   0.905325 0.360633 0.250992 0.189673
C159  C     C_3   0.594448 0.860125 0.748178 0.189469
C160  C     C_3   0.405178 0.860572 0.250991 0.188747
C161  C     C_3   0.095699 0.362334 0.697800 0.160259
C162  C     C_3   0.904780 0.362380 0.302139 0.160512
C163  C     C_3   0.595824 0.862340 0.697786 0.160260
C164  C     C_3   0.404665 0.862356 0.302164 0.160658
C165  C     C_1   0.168739 0.331551 0.837017 0.005106
C166  C     C_1   0.831405 0.331550 0.162986 0.003723
C167  C     C_1   0.668529 0.831558 0.837027 0.004606
C168  C     C_1   0.331211 0.831541 0.163000 0.004702
C169  C     C_1   0.081637 0.418533 0.663296 0.048642
C170  C     C_1   0.918249 0.418530 0.336711 0.048575
C171  C     C_1   0.581623 0.918546 0.663318 0.048714
C172  C     C_1   0.418241 0.918517 0.336734 0.048277
H25   H     H_    0.182207 0.398211 0.849312 0.182719
H26   H     H_    0.816925 0.398105 0.150838 0.182691
H27   H     H_    0.681644 0.898250 0.849422 0.182771
H28   H     H_    0.316840 0.898102 0.150878 0.183001
O33   O     O_R   0.502030 0.030780 0.561620 -0.615708
O34   O     O_R   0.497970 0.030780 0.438380 -0.617238
O35   O     O_R   0.002030 0.530780 0.561620 -0.615845
O36   O     O_R   0.997970 0.530780 0.438380 -0.616390
O37   O     O_R   0.559540 0.030780 0.561620 -0.608091
O38   O     O_R   0.440460 0.030780 0.438380 -0.606586
O39   O     O_R   0.059540 0.530780 0.561620 -0.608003
O40   O     O_R   0.940460 0.530780 0.438380 -0.607627
C173  C     C_R   0.540620 0.040609 0.581306 0.900479
C174  C     C_R   0.459414 0.040609 0.418696 0.900177
C175  C     C_R   0.040621 0.540609 0.581305 0.900424
C176  C     C_R   0.959414 0.540609 0.418696 0.900280
Zn9   Zn    Zn3+2 0.461570 0.999970 0.499990 1.026630
Zn10  Zn    Zn3+2 0.538430 0.999970 0.500010 1.024160
Zn11  Zn    Zn3+2 0.961570 0.499970 0.499990 1.025681
Zn12  Zn    Zn3+2 0.038430 0.499970 0.500010 1.025081
O41   O     O_R   0.940410 0.469170 0.438370 -0.592143
O42   O     O_R   0.059590 0.469170 0.561630 -0.592185
O43   O     O_R   0.440410 0.969170 0.438370 -0.591712
O44   O     O_R   0.559590 0.969170 0.561630 -0.592351
O45   O     O_R   0.997920 0.469160 0.438370 -0.622888
O46   O     O_R   0.002080 0.469160 0.561630 -0.622658
O47   O     O_R   0.497920 0.969160 0.438370 -0.623315
O48   O     O_R   0.502080 0.969160 0.561630 -0.622606
N17   N     N_R   0.357248 0.194584 0.998144 0.218108
O49   O     O_R   0.349215 0.188956 0.033592 -0.402429
O50   O     O_R   0.357099 0.172730 0.969395 -0.356753
N18   N     N_R   0.643399 0.194792 0.004064 0.218676
O51   O     O_R   0.649639 0.189188 0.966807 -0.395583
O52   O     O_R   0.644617 0.172918 0.033727 -0.357876
N19   N     N_R   0.856766 0.694549 0.997480 0.218431
O53   O     O_R   0.848890 0.688793 0.033051 -0.400730
O54   O     O_R   0.856295 0.672805 0.968268 -0.355927
N20   N     N_R   0.147805 0.694756 0.012310 0.219329
O55   O     O_R   0.153189 0.687478 0.974800 -0.391289
O56   O     O_R   0.151826 0.674314 0.046460 -0.357066
N21   N     N_2   0.091300 0.254431 0.891466 -0.268237
H29   H     H_    0.061893 0.244085 0.855939 0.273848
C177  C     C_3   0.097096 0.283694 0.877000 -0.693693
H30   H     H_    0.071119 0.299200 0.868364 0.265301
H31   H     H_    0.093337 0.282382 0.836643 0.233166
H32   H     H_    0.131395 0.292654 0.913763 0.213294
N22   N     N_2   0.908040 0.254594 0.108551 -0.271715
H33   H     H_    0.935407 0.242621 0.143479 0.282686
C178  C     C_3   0.906963 0.284559 0.125040 -0.731058
H34   H     H_    0.935780 0.297667 0.135629 0.260105
H35   H     H_    0.909869 0.283992 0.164796 0.238943
H36   H     H_    0.874378 0.295562 0.088495 0.224279
N23   N     N_2   0.591934 0.754218 0.891285 -0.271297
H37   H     H_    0.564593 0.742148 0.856484 0.282677
C179  C     C_3   0.592953 0.784135 0.874459 -0.731466
H38   H     H_    0.564059 0.797199 0.863607 0.259931
H39   H     H_    0.590147 0.783449 0.834788 0.238817
H40   H     H_    0.625476 0.795262 0.910920 0.224164
N24   N     N_2   0.408681 0.754642 0.108425 -0.268503
H41   H     H_    0.438094 0.744349 0.143990 0.273787
C180  C     C_3   0.402873 0.783900 0.122773 -0.693713
H42   H     H_    0.428929 0.799423 0.131516 0.265474
H43   H     H_    0.406510 0.782591 0.163041 0.233265
H44   H     H_    0.368612 0.792838 0.085913 0.213216
N25   N     N_R   0.017466 0.253374 0.891115 0.216290
O57   O     O_R   0.989257 0.232469 0.878835 -0.331587
O58   O     O_R   0.003122 0.275129 0.853887 -0.362427
N26   N     N_R   0.982308 0.256754 0.109904 0.216782
O59   O     O_R   0.000927 0.235209 0.148300 -0.350347
O60   O     O_R   0.007063 0.279341 0.118817 -0.334155
N27   N     N_R   0.517623 0.756387 0.889810 0.216672
O61   O     O_R   0.499031 0.734703 0.851726 -0.350228
O62   O     O_R   0.492844 0.778977 0.880576 -0.334469
N28   N     N_R   0.482478 0.753652 0.108713 0.216273
O63   O     O_R   0.510654 0.732747 0.121120 -0.331605
O64   O     O_R   0.496851 0.775465 0.145805 -0.362231
N29   N     N_R   0.127255 0.248820 0.110197 0.251771
O65   O     O_R   0.111912 0.269523 0.123633 -0.307809
O66   O     O_R   0.151793 0.227511 0.147856 -0.284820
N30   N     N_R   0.874096 0.250324 0.891515 0.249272
O67   O     O_R   0.874985 0.274139 0.867494 -0.291525
O68   O     O_R   0.858986 0.225634 0.861626 -0.295862
N31   N     N_R   0.625722 0.750599 0.108244 0.249488
O69   O     O_R   0.625374 0.774547 0.132366 -0.290994
O70   O     O_R   0.640082 0.725844 0.137907 -0.296298
N32   N     N_R   0.372618 0.748880 0.889650 0.251775
O71   O     O_R   0.387978 0.769579 0.876126 -0.308194
O72   O     O_R   0.348065 0.727527 0.852085 -0.284668
N33   N     N_R   0.199947 0.246168 0.109539 0.248949
O73   O     O_R   0.225731 0.224546 0.117694 -0.386717
O74   O     O_R   0.215759 0.265037 0.152197 -0.297334
N34   N     N_R   0.800733 0.246931 0.890415 0.246402
O75   O     O_R   0.775050 0.225364 0.882937 -0.388470
O76   O     O_R   0.785430 0.264647 0.846299 -0.291394
N35   N     N_R   0.699138 0.747061 0.109508 0.246206
O77   O     O_R   0.724817 0.725502 0.117144 -0.387753
O78   O     O_R   0.714429 0.764837 0.153515 -0.291385
N36   N     N_R   0.299962 0.746182 0.890391 0.248870
O79   O     O_R   0.274168 0.724538 0.882332 -0.386645
O80   O     O_R   0.284156 0.765012 0.847655 -0.297671
N37   N     N_R   0.190239 0.405559 0.755516 0.229907
O81   O     O_R   0.232760 0.397969 0.794832 -0.357403
O82   O     O_R   0.178721 0.427300 0.719284 -0.349163
N38   N     N_R   0.809827 0.404683 0.245602 0.229635
O83   O     O_R   0.767392 0.396778 0.206686 -0.360732
O84   O     O_R   0.821293 0.426325 0.281964 -0.349448
N39   N     N_R   0.690298 0.905802 0.756235 0.229901
O85   O     O_R   0.732835 0.898297 0.795808 -0.357428
O86   O     O_R   0.678845 0.927568 0.720077 -0.349259
N40   N     N_R   0.309810 0.904754 0.245691 0.229793
O87   O     O_R   0.267360 0.896876 0.206806 -0.360229
O88   O     O_R   0.321331 0.926408 0.282055 -0.348436
N41   N     N_2   0.063312 0.349486 0.639190 -0.293723
H45   H     H_    0.032012 0.359731 0.612804 0.222522
C181  C     C_3   0.060913 0.317458 0.637381 -0.706115
H46   H     H_    0.037910 0.309912 0.590501 0.236295
H47   H     H_    0.047378 0.309359 0.658588 0.256269
H48   H     H_    0.095080 0.307757 0.660400 0.246154
N42   N     N_2   0.937676 0.349575 0.360687 -0.293927
H49   H     H_    0.968816 0.360072 0.386764 0.222659
C182  C     C_3   0.940556 0.317571 0.362458 -0.706592
H50   H     H_    0.963958 0.310019 0.409339 0.236362
H51   H     H_    0.953869 0.309809 0.340820 0.256506
H52   H     H_    0.906603 0.307556 0.339839 0.245792
N43   N     N_2   0.563709 0.849485 0.639139 -0.293764
H53   H     H_    0.532359 0.859666 0.612545 0.222433
C183  C     C_3   0.561466 0.817452 0.637308 -0.706054
H54   H     H_    0.538681 0.809910 0.590433 0.236224
H55   H     H_    0.547757 0.809262 0.658244 0.256274
H56   H     H_    0.595720 0.807833 0.660579 0.246207
N44   N     N_2   0.437559 0.849547 0.360706 -0.293944
H57   H     H_    0.468718 0.860019 0.386758 0.222617
C184  C     C_3   0.440382 0.817541 0.362473 -0.706771
H58   H     H_    0.463780 0.809987 0.409354 0.236314
H59   H     H_    0.453670 0.809748 0.340821 0.256530
H60   H     H_    0.406413 0.807555 0.339868 0.245814
N45   N     N_2   0.063365 0.342853 0.748999 -0.306723
H61   H     H_    0.074966 0.338927 0.791069 0.229877
C185  C     C_3   0.016148 0.351671 0.707510 -0.756939
H62   H     H_    0.995016 0.334056 0.705283 0.262103
H63   H     H_    0.004451 0.354743 0.662418 0.242979
H64   H     H_    0.011022 0.372512 0.722295 0.239511
N46   N     N_2   0.936590 0.343720 0.249909 -0.307093
H65   H     H_    0.924730 0.339969 0.207671 0.229955
C186  C     C_3   0.983691 0.352887 0.290980 -0.760610
H66   H     H_    0.004911 0.335572 0.292772 0.260501
H67   H     H_    0.995705 0.355741 0.336272 0.244104
H68   H     H_    0.988324 0.373931 0.276086 0.239720
N47   N     N_2   0.563070 0.842658 0.748351 -0.306856
H69   H     H_    0.574462 0.838750 0.790319 0.229851
C187  C     C_3   0.515814 0.851360 0.706515 -0.761075
H70   H     H_    0.494676 0.833692 0.704140 0.260288
H71   H     H_    0.504336 0.854405 0.661534 0.243950
H72   H     H_    0.510436 0.872187 0.721054 0.239837
N48   N     N_2   0.436397 0.843604 0.249895 -0.306821
H73   H     H_    0.424495 0.839782 0.207655 0.229918
C188  C     C_3   0.483505 0.852758 0.290880 -0.756845
H74   H     H_    0.504702 0.835390 0.292755 0.262253
H75   H     H_    0.495543 0.855714 0.336167 0.243081
H76   H     H_    0.488140 0.873746 0.275843 0.239395
N49   N     N_2   0.081422 0.414634 0.769567 -0.281290
H77   H     H_    0.047644 0.417540 0.732800 0.231028
C189  C     C_3   0.089827 0.411379 0.824421 -0.703533
H78   H     H_    0.072356 0.429458 0.828128 0.249125
H79   H     H_    0.126809 0.412960 0.862970 0.250489
H80   H     H_    0.076665 0.389748 0.825535 0.229031
N50   N     N_2   0.917384 0.415382 0.229518 -0.281375
H81   H     H_    0.951193 0.418513 0.266022 0.230913
C190  C     C_3   0.908556 0.412392 0.174348 -0.703855
H82   H     H_    0.925526 0.430757 0.170293 0.249031
H83   H     H_    0.871480 0.413694 0.136101 0.250693
H84   H     H_    0.921971 0.390971 0.173029 0.228855
N51   N     N_2   0.580749 0.914459 0.768999 -0.281188
H85   H     H_    0.547016 0.917322 0.732052 0.231045
C191  C     C_3   0.588835 0.911128 0.823624 -0.703660
H86   H     H_    0.571185 0.929153 0.827134 0.249193
H87   H     H_    0.625762 0.912740 0.862383 0.250519
H88   H     H_    0.575648 0.889461 0.824539 0.228833
N52   N     N_2   0.417332 0.915284 0.229497 -0.281971
H89   H     H_    0.451158 0.918378 0.265976 0.230752
C192  C     C_3   0.408445 0.912272 0.174290 -0.705803
H90   H     H_    0.425479 0.930589 0.170238 0.248451
H91   H     H_    0.371368 0.913640 0.136077 0.250770
H92   H     H_    0.421747 0.890813 0.172903 0.229538
N53   N     N_2   0.432888 0.306936 0.014686 -0.294277
H93   H     H_    0.467936 0.306811 0.045808 0.233770
C193  C     C_3   0.412388 0.334530 0.011696 -0.716281
H94   H     H_    0.431226 0.353440 0.012561 0.252872
H95   H     H_    0.414164 0.336549 0.050457 0.233993
H96   H     H_    0.376543 0.335789 0.969608 0.254819
N54   N     N_2   0.576620 0.307832 0.002952 -0.293478
H97   H     H_    0.574801 0.309961 0.035957 0.235517
C194  C     C_3   0.589296 0.334825 0.990378 -0.713950
H98   H     H_    0.569560 0.353702 0.987534 0.253315
H99   H     H_    0.581214 0.332989 0.947067 0.250805
H100  H     H_    0.626063 0.339495 0.026509 0.238130
N55   N     N_2   0.933513 0.806757 0.015938 -0.293782
H101  H     H_    0.968564 0.806428 0.046912 0.234466
C195  C     C_3   0.913456 0.834383 0.013787 -0.717390
H102  H     H_    0.932547 0.853274 0.015122 0.252691
H103  H     H_    0.915330 0.836142 0.052659 0.234050
H104  H     H_    0.877612 0.835949 0.971786 0.254800
N56   N     N_2   0.070655 0.806889 0.989245 -0.295787
H105  H     H_    0.069357 0.821261 0.961074 0.237499
C196  C     C_3   0.090225 0.820689 0.045355 -0.709154
H106  H     H_    0.071787 0.841603 0.037149 0.250916
H107  H     H_    0.126676 0.825950 0.070327 0.241676
H108  H     H_    0.087194 0.805844 0.072546 0.245116
N57   N     N_2   0.282604 0.124512 0.188971 -0.281611
H109  H     H_    0.263405 0.122647 0.143754 0.260862
C197  C     C_3   0.267673 0.104988 0.212015 -0.639985
H110  H     H_    0.230589 0.107886 0.185965 0.250843
H111  H     H_    0.285453 0.110432 0.259054 0.235447
H112  H     H_    0.274299 0.081485 0.208565 0.260567
N58   N     N_2   0.718561 0.119874 0.820618 -0.283639
H113  H     H_    0.734790 0.118403 0.865098 0.256601
C198  C     C_3   0.734447 0.098305 0.801749 -0.636049
H114  H     H_    0.772099 0.099398 0.831497 0.248135
H115  H     H_    0.720275 0.103138 0.755827 0.235674
H116  H     H_    0.724424 0.075563 0.803763 0.261971
N59   N     N_2   0.781858 0.621615 0.183218 -0.283062
H117  H     H_    0.764394 0.619950 0.138386 0.260579
C199  C     C_3   0.766294 0.600852 0.203802 -0.641710
H118  H     H_    0.728809 0.602627 0.175520 0.250119
H119  H     H_    0.781937 0.605977 0.250224 0.235894
H120  H     H_    0.774933 0.577784 0.201203 0.261140
N60   N     N_2   0.218534 0.620331 0.819734 -0.283074
H121  H     H_    0.235048 0.618809 0.864301 0.256654
C200  C     C_3   0.234360 0.598966 0.800476 -0.636362
H122  H     H_    0.271983 0.600221 0.829910 0.248041
H123  H     H_    0.219865 0.603885 0.754443 0.235715
H124  H     H_    0.224639 0.576139 0.802601 0.261841
N61   N     N_R   0.337816 0.069970 0.194579 0.199276
O89   O     O_R   0.305836 0.068940 0.137223 -0.352285
O90   O     O_R   0.351832 0.045547 0.225214 -0.376824
N62   N     N_R   0.653729 0.069550 0.806262 0.199288
O91   O     O_R   0.682788 0.068364 0.863895 -0.377142
O92   O     O_R   0.638497 0.045076 0.775725 -0.372001
N63   N     N_R   0.842752 0.569637 0.193880 0.199237
O93   O     O_R   0.812558 0.568502 0.136294 -0.352071
O94   O     O_R   0.857304 0.545167 0.224414 -0.378228
N64   N     N_R   0.154595 0.569559 0.806239 0.199273
O95   O     O_R   0.183957 0.568376 0.863864 -0.377226
O96   O     O_R   0.139468 0.545086 0.775699 -0.372006
N65   N     N_2   0.387622 0.114928 0.169119 -0.273079
H125  H     H_    0.396031 0.134093 0.159176 0.251749
C201  C     C_3   0.416609 0.090216 0.182094 -0.649892
H126  H     H_    0.416679 0.087232 0.145032 0.250809
H127  H     H_    0.403909 0.069419 0.186947 0.272837
H128  H     H_    0.452007 0.094502 0.223516 0.214189
N66   N     N_2   0.603617 0.119134 0.822473 -0.283049
H129  H     H_    0.632157 0.117776 0.866761 0.267238
C202  C     C_3   0.569445 0.097225 0.804460 -0.656395
H130  H     H_    0.562126 0.098047 0.834915 0.249348
H131  H     H_    0.581675 0.074629 0.806195 0.261672
H132  H     H_    0.537391 0.101904 0.758804 0.231933
N67   N     N_2   0.893194 0.617497 0.174205 -0.272250
H133  H     H_    0.901251 0.637272 0.165466 0.250377
C203  C     C_3   0.924366 0.593881 0.189338 -0.649484
H134  H     H_    0.926642 0.591809 0.154071 0.250787
H135  H     H_    0.912215 0.572397 0.192833 0.272912
H136  H     H_    0.958787 0.598825 0.232061 0.213773
N68   N     N_2   0.104484 0.618683 0.823333 -0.284746
H137  H     H_    0.133215 0.617380 0.867523 0.266469
C204  C     C_3   0.070654 0.596568 0.805704 -0.658483
H138  H     H_    0.063644 0.597216 0.836489 0.248723
H139  H     H_    0.083062 0.574066 0.807285 0.262264
H140  H     H_    0.038390 0.601164 0.760183 0.232132

loop_
_geom_bond_atom_site_label_1
_geom_bond_atom_site_label_2
_geom_bond_distance
_ccdc_geom_bond_type
C72   C84   1.530835 S    
C185  H64   1.108585 S    
C125  N37   1.456916 S    
C191  H86   1.110145 S    
C73   C77   1.549735 S    
C145  C157  1.540806 S    
C196  H106  1.110316 S    
C82   C86   1.526947 S    
C71   C91   1.446009 S    
C76   C80   1.549597 S    
C45   O41   1.277846 A    
C154  C170  1.446503 S    
C35   C39   1.401523 A    
C149  N49   1.447144 S    
C98   N22   1.426296 S    
C178  H34   1.111297 S    
C114  N34   1.438336 S    
N18   O51   1.301444 A    
C187  H71   1.107549 S    
C152  N52   1.447144 S    
C186  H67   1.107552 S    
C43   N7    1.356621 A    
C198  H116  1.110651 S    
C157  N45   1.449660 S    
C9    C133  1.413320 S    
C160  C164  1.534161 S    
Zn6   O22   1.998055 S    
C109  N29   1.437421 S    
N51   H85   1.030389 S    
N1    C42   1.355489 A    
C85   N61   1.457457 S    
C113  N33   1.437132 S    
C46   C137  1.414181 S    
O4    Zn4   1.998431 S    
N3    C44   1.355140 A    
C17   N17   1.438445 S    
C128  C132  1.545008 S    
C201  H127  1.109776 S    
C26   C30   1.414791 A    
N19   O54   1.301371 A    
N28   O63   1.301214 A    
O4    C4    1.274395 A    
O5    Zn5   1.998892 S    
C101  N25   1.437170 S    
C135  C167  1.192629 T    
C52   C56   1.544729 S    
C78   C94   1.445773 S    
N49   C189  1.445222 S    
C145  C165  1.444096 S    
N63   O94   1.300157 A    
C48   O48   1.277630 A    
C144  C148  1.551813 S    
N37   O82   1.300230 A    
C141  H25   1.110015 S    
N66   C202  1.445091 S    
C97   C101  1.407204 A    
C75   H15   1.110033 S    
N27   O61   1.300829 A    
C26   C41   1.469148 S    
O33   C173  1.277925 A    
C82   N66   1.447086 S    
C83   N67   1.447475 S    
C182  H52   1.110545 S    
Zn1   O25   2.007212 S    
N67   C203  1.445357 S    
C99   C103  1.406160 A    
Zn3   O19   1.998636 S    
C198  H114  1.110172 S    
C19   N19   1.438404 S    
Zn4   O28   2.008003 S    
O13   C5    1.279736 A    
Zn9   O48   2.000716 S    
Zn5   O29   2.007056 S    
C112  N32   1.437392 S    
C87   N63   1.457470 S    
Zn10  O47   1.999943 S    
O39   C175  1.277926 A    
C126  C154  1.534487 S    
C34   H6    1.081774 S    
O11   Zn3   2.007120 S    
C132  H24   1.110063 S    
C192  H92   1.109737 S    
C197  H111  1.110378 S    
C116  C120  1.410366 A    
O9    C5    1.277258 A    
O2    Zn2   1.998431 S    
O10   Zn2   2.006326 S    
C127  N39   1.456911 S    
C155  C163  1.540411 S    
C110  C114  1.402209 A    
C80   C96   1.445764 S    
O6    Zn6   1.998913 S    
C23   C27   1.401308 A    
O40   Zn11  1.998379 S    
C140  C172  1.193157 T    
O19   C11   1.274131 A    
N45   H61   1.030670 S    
C72   C92   1.445977 S    
C196  H108  1.111208 S    
C138  C170  1.193140 T    
C108  C123  1.464077 S    
C149  C157  1.533742 S    
N44   H57   1.030234 S    
Zn8   O24   1.998055 S    
C71   C83   1.531333 S    
C144  H28   1.110011 S    
N2    C41   1.356461 A    
C102  C106  1.409554 A    
C178  H36   1.111022 S    
C77   C85   1.535453 S    
C84   N68   1.447087 S    
C50   C66   1.559422 S    
C126  N38   1.456905 S    
C98   C118  1.410032 A    
C53   C85   1.526999 S    
C97   N21   1.427358 S    
C17   C21   1.395665 A    
C110  N30   1.433513 S    
C74   C78   1.549599 S    
C136  C168  1.192599 T    
C19   C23   1.394895 A    
C49   C65   1.559390 S    
C20   C24   1.396381 A    
C100  N24   1.427370 S    
C21   C25   1.401477 A    
C68   C76   1.559444 S    
N59   H117  1.030898 S    
C51   C67   1.559381 S    
C36   C40   1.400439 A    
N41   H45   1.030236 S    
O38   Zn9   1.998379 S    
C204  H138  1.110195 S    
C103  C107  1.409500 A    
N62   O91   1.300205 A    
C17   C37   1.410251 A    
C150  C154  1.541280 S    
C181  H48   1.110543 S    
C159  N47   1.449628 S    
N36   O79   1.301147 A    
C19   C39   1.409954 A    
N54   C194  1.447666 S    
O3    C3    1.274387 A    
N31   O69   1.300685 A    
C21   H1    1.083898 S    
C66   C74   1.559444 S    
C128  C156  1.534512 S    
N39   O85   1.300185 A    
N56   C196  1.446769 S    
C66   C70   1.545904 S    
C57   C89   1.193300 T    
N27   O62   1.300964 A    
C188  H74   1.109951 S    
C196  H107  1.111717 S    
C31   C35   1.403471 A    
C112  C116  1.403202 A    
N10   C121  1.354949 A    
C184  H59   1.110220 S    
O23   C11   1.274144 A    
C190  H82   1.110155 S    
C141  C145  1.551810 S    
N50   H81   1.030391 S    
C125  C141  1.545141 S    
N5    N6    1.328744 A    
C20   C40   1.411609 A    
N52   C192  1.445217 S    
N57   H109  1.030888 S    
C69   C89   1.445979 S    
C191  H87   1.110252 S    
C22   C26   1.402814 A    
N61   O89   1.300231 A    
C31   N55   1.434176 S    
C49   H9    1.109982 S    
C148  C160  1.540789 S    
C193  H95   1.110881 S    
C56   N60   1.447047 S    
C143  C147  1.551825 S    
C180  H43   1.110347 S    
N40   O87   1.300189 A    
C152  C156  1.541268 S    
C58   C90   1.193333 T    
C63   C176  1.414983 S    
N52   H89   1.030390 S    
N23   C179  1.446700 S    
C70   C90   1.445974 S    
N53   C193  1.447650 S    
C189  H79   1.110253 S    
C163  N43   1.447483 S    
C129  H21   1.110061 S    
O36   C176  1.277929 A    
C48   O44   1.277797 A    
O20   C12   1.274125 A    
O40   C176  1.277895 A    
C47   C140  1.414207 S    
C195  H104  1.110914 S    
C75   C83   1.544535 S    
C160  N48   1.449670 S    
C33   C37   1.401567 A    
C131  H23   1.110063 S    
N29   O66   1.301183 A    
C194  H98   1.110343 S    
C137  C169  1.193137 T    
C156  C172  1.446524 S    
C129  C161  1.548751 S    
C18   C38   1.409585 A    
C127  C155  1.534492 S    
O7    C3    1.274499 A    
N15   C123  1.355748 A    
N33   O74   1.301142 A    
N64   O96   1.300137 A    
C202  H131  1.110641 S    
C22   H2    1.083668 S    
N30   O67   1.300665 A    
N39   O86   1.300232 A    
N3    N4    1.328219 A    
C183  H56   1.110546 S    
C115  N35   1.438390 S    
N55   C195  1.447644 S    
N65   C201  1.445337 S    
N26   O60   1.301013 A    
C194  H100  1.110902 S    
C48   C139  1.414142 S    
O5    C1    1.274497 A    
N21   H29   1.030951 S    
C65   C69   1.546132 S    
C130  H22   1.110063 S    
C54   N58   1.447028 S    
C79   C95   1.445724 S    
O8    C4    1.274491 A    
N38   O84   1.300232 A    
C200  H122  1.110191 S    
N43   H53   1.030232 S    
C204  H139  1.110636 S    
C86   N62   1.457462 S    
C52   C68   1.559430 S    
C188  H76   1.108586 S    
C133  C165  1.192593 T    
O25   C13   1.277517 A    
C154  C162  1.540427 S    
C88   N64   1.457463 S    
C55   C71   1.530544 S    
C74   H14   1.109974 S    
C98   C102  1.406187 A    
C190  H84   1.109731 S    
N32   O72   1.301173 A    
N24   C180  1.448213 S    
C53   C69   1.530495 S    
O33   Zn9   1.999460 S    
C141  C149  1.549603 S    
N68   H137  1.030894 S    
O34   C174  1.277956 A    
C41   N5    1.356610 A    
O35   Zn11  1.999460 S    
Zn2   O26   2.008003 S    
O16   Zn8   2.007999 S    
O27   C15   1.277582 A    
C185  H63   1.107576 S    
C49   C53   1.544505 S    
C106  C121  1.462013 S    
C29   C33   1.404032 A    
O14   C6    1.278961 A    
C51   C55   1.544531 S    
Zn6   O30   2.006271 S    
C32   C36   1.395024 A    
C159  C163  1.534161 S    
N66   H129  1.030897 S    
C148  C168  1.444105 S    
C81   C85   1.527458 S    
N59   C199  1.445169 S    
N7    N8    1.328337 A    
C157  C161  1.534166 S    
C179  H40   1.110987 S    
O10   C6    1.277991 A    
N18   O52   1.301407 A    
C47   O43   1.277853 A    
N11   C124  1.354980 A    
C186  H66   1.109961 S    
C132  C148  1.550546 S    
N14   C122  1.355759 A    
C78   C86   1.535447 S    
C109  C113  1.403233 A    
C44   N8    1.355341 A    
C99   N23   1.426275 S    
C73   H13   1.110015 S    
N48   C188  1.445229 S    
C149  C153  1.541249 S    
C70   C82   1.530830 S    
N11   N15   1.328794 A    
N43   C183  1.445033 S    
C49   C77   1.549567 S    
C195  H102  1.110382 S    
C76   H16   1.109975 S    
N9    N13   1.328719 A    
C108  C112  1.410389 A    
N34   O75   1.301264 A    
C142  C150  1.549593 S    
Zn12  O42   1.997897 S    
N55   H101  1.031471 S    
C101  C105  1.411190 A    
C128  N40   1.456908 S    
C54   C86   1.526939 S    
C51   C79   1.549551 S    
N53   H93   1.031450 S    
C203  H134  1.110232 S    
Zn1   O17   1.998636 S    
C150  N50   1.447166 S    
C18   C22   1.395123 A    
C20   N20   1.438274 S    
N49   H77   1.030393 S    
C100  C120  1.410814 A    
O13   Zn5   2.007216 S    
N60   H121  1.030883 S    
C36   H8    1.084298 S    
O15   Zn7   2.007216 S    
N37   O81   1.300189 A    
C153  C169  1.446498 S    
C183  H54   1.110168 S    
C63   C95   1.193684 T    
C151  C155  1.541245 S    
C61   C93   1.193701 T    
N12   N16   1.328700 A    
C45   O45   1.277599 A    
C25   C29   1.413000 A    
N50   C190  1.445213 S    
C67   C75   1.559506 S    
C182  H51   1.110224 S    
N67   H133  1.030952 S    
C111  N31   1.433315 S    
C69   C81   1.531288 S    
C42   N6    1.355729 A    
O17   C9    1.274110 A    
N42   H49   1.030235 S    
C12   C136  1.413329 S    
C200  H124  1.110653 S    
C29   N53   1.434070 S    
C103  N27   1.435908 S    
N20   O55   1.301481 A    
C114  C118  1.410814 A    
N25   O58   1.300611 A    
Zn11  O41   1.998710 S    
C45   C138  1.414184 S    
C187  H70   1.109960 S    
C192  H91   1.110252 S    
C197  H112  1.110628 S    
C129  C145  1.550531 S    
C47   O47   1.277609 A    
C106  C110  1.407933 A    
N16   C124  1.355441 A    
C178  H35   1.110439 S    
N56   H105  1.032299 S    
C139  C171  1.193117 T    
C116  N36   1.437102 S    
N51   C191  1.445219 S    
C143  C151  1.549608 S    
C146  C166  1.444146 S    
C198  H115  1.110371 S    
C5    C37   1.460897 S    
C179  H38   1.111281 S    
C187  H72   1.108585 S    
O1    C1    1.274368 A    
C177  H31   1.110363 S    
C25   C42   1.464281 S    
C186  H68   1.108590 S    
N35   O77   1.301324 A    
C130  C146  1.550569 S    
C27   C44   1.462781 S    
C143  H27   1.110016 S    
C197  H110  1.110217 S    
C164  N44   1.447477 S    
O36   Zn12  2.000231 S    
C53   N57   1.447176 S    
C193  H94   1.110367 S    
N47   H69   1.030634 S    
O37   C173  1.277942 A    
C115  C119  1.410892 A    
C74   C82   1.544753 S    
O21   C9    1.274154 A    
O28   C16   1.277492 A    
C125  C153  1.534531 S    
N19   O53   1.301351 A    
C33   H5    1.081745 S    
C201  H128  1.111057 S    
C147  C159  1.540810 S    
O30   C14   1.278684 A    
N62   O92   1.300134 A    
C127  C143  1.545137 S    
C181  H47   1.110224 S    
C56   C72   1.530805 S    
N36   O80   1.301146 A    
C8    C40   1.460844 S    
C131  C147  1.550562 S    
N17   O50   1.301369 A    
C24   H4    1.083519 S    
C177  H30   1.110057 S    
N31   O70   1.300717 A    
C184  H58   1.110163 S    
C11   C135  1.413321 S    
C67   H19   1.110007 S    
C65   H17   1.110003 S    
C132  C164  1.548769 S    
C155  C171  1.446461 S    
N68   C204  1.445094 S    
C61   C174  1.415026 S    
O6    C2    1.274508 A    
C204  H140  1.110374 S    
N46   H65   1.030654 S    
C75   C79   1.549742 S    
C64   C175  1.415050 S    
C73   C81   1.544512 S    
C52   H12   1.109984 S    
C67   C71   1.546163 S    
N41   C181  1.445033 S    
C76   C84   1.544741 S    
O26   C14   1.277584 A    
C199  H120  1.110623 S    
C35   H7    1.081748 S    
C180  H42   1.110071 S    
Zn8   O32   2.006271 S    
N40   O88   1.300229 A    
O3    Zn3   1.998409 S    
C54   C70   1.530799 S    
C6    C38   1.460650 S    
O34   Zn10  2.000231 S    
O35   C175  1.277939 A    
Zn3   O27   2.007212 S    
C100  C104  1.407157 A    
Zn4   O20   1.998657 S    
N61   O90   1.300156 A    
N23   H37   1.029578 S    
C14   C118  1.462921 S    
Zn5   O21   1.998034 S    
N45   C185  1.445235 S    
C10   C134  1.413317 S    
N1    N2    1.328583 A    
C195  H103  1.110890 S    
N9    C122  1.355819 A    
O12   Zn4   2.006326 S    
N24   H41   1.030939 S    
C203  H135  1.109766 S    
Zn12  O45   1.999943 S    
C146  C158  1.540810 S    
C1    C57   1.414410 S    
N29   O65   1.301309 A    
C126  C142  1.545148 S    
O15   C7    1.279459 A    
C181  H46   1.110167 S    
C68   H20   1.110006 S    
C84   C88   1.526934 S    
C3    C59   1.414439 S    
C80   C88   1.535450 S    
C185  H62   1.109954 S    
N33   O73   1.301164 A    
C83   C87   1.527480 S    
C79   C87   1.535477 S    
C202  H130  1.110187 S    
C50   H10   1.109984 S    
C183  H55   1.110222 S    
N30   O68   1.300767 A    
N65   H125  1.030941 S    
C55   C87   1.527016 S    
C144  C152  1.549580 S    
C50   C78   1.549601 S    
C199  H119  1.110401 S    
C142  C146  1.551825 S    
C201  H126  1.110200 S    
C147  C167  1.444144 S    
C151  C159  1.533744 S    
C30   N54   1.433745 S    
N12   C123  1.355820 A    
C194  H99   1.110915 S    
C13   C117  1.463561 S    
C158  N46   1.449646 S    
C4    C60   1.414483 S    
C28   C43   1.469188 S    
Zn2   O18   1.998657 S    
Zn11  O46   2.000716 S    
O16   C8    1.279049 A    
N42   C182  1.445041 S    
C32   N56   1.423652 S    
N48   H73   1.030679 S    
O14   Zn6   2.007999 S    
C15   C119  1.463033 S    
C188  H75   1.107581 S    
C30   C34   1.404574 A    
O32   C16   1.278934 A    
C184  H60   1.110546 S    
C34   C38   1.400773 A    
O11   C7    1.276842 A    
C162  N42   1.447492 S    
O12   C8    1.278344 A    
C7    C39   1.459558 S    
C128  C144  1.545150 S    
O1    Zn1   1.998409 S    
C62   C94   1.193713 T    
O9    Zn1   2.007120 S    
C130  C162  1.548766 S    
C46   O46   1.277643 A    
C68   C72   1.545912 S    
N47   C187  1.445232 S    
C177  H32   1.109552 S    
C111  C115  1.402112 A    
N57   C197  1.445133 S    
C59   C91   1.193325 T    
C191  H88   1.109731 S    
C23   H3    1.083906 S    
O18   C10   1.274133 A    
O7    Zn7   1.998892 S    
Zn9   O43   1.998710 S    
C77   C93   1.445743 S    
O8    Zn8   1.998913 S    
N58   H113  1.030881 S    
Zn10  O44   1.997897 S    
C193  H96   1.110924 S    
C199  H118  1.110268 S    
C52   C80   1.549606 S    
N22   H33   1.029557 S    
C113  C117  1.410435 A    
C180  H44   1.109620 S    
C107  C111  1.407793 A    
C55   N59   1.447248 S    
N17   O49   1.301344 A    
O24   C12   1.274126 A    
C127  C131  1.544951 S    
N4    C43   1.356262 A    
C46   O42   1.277803 A    
C56   C88   1.526944 S    
N58   C198  1.445105 S    
C179  H39   1.110408 S    
N44   C184  1.445031 S    
C104  N28   1.437089 S    
C2    C58   1.414472 S    
C131  C163  1.548740 S    
N35   O78   1.301091 A    
C189  H78   1.110150 S    
C105  C109  1.410392 A    
N63   O93   1.300238 A    
C99   C119  1.410133 A    
C142  H26   1.110022 S    
C28   C32   1.412190 A    
C134  C166  1.192627 T    
N22   C178  1.446706 S    
C51   H11   1.109977 S    
O37   Zn10  1.999197 S    
C153  C161  1.540424 S    
O39   Zn12  1.999197 S    
N34   O76   1.301123 A    
C192  H90   1.110150 S    
C60   C92   1.193339 T    
C64   C96   1.193709 T    
C150  C158  1.533723 S    
O2    C2    1.274374 A    
O31   C15   1.278773 A    
C50   C54   1.544713 S    
C65   C73   1.559521 S    
C151  N51   1.447155 S    
N64   O95   1.300206 A    
C202  H132  1.110375 S    
C125  C129  1.544973 S    
C97   C117  1.410889 A    
C105  C122  1.464051 S    
O38   C174  1.277889 A    
N28   O64   1.300580 A    
N60   C200  1.445103 S    
Zn7   O31   2.007056 S    
O22   C10   1.274125 A    
C158  C162  1.534160 S    
N26   O59   1.300828 A    
C156  C164  1.540428 S    
N54   H97   1.031526 S    
N21   C177  1.448197 S    
C182  H50   1.110171 S    
C27   C31   1.412764 A    
N46   C186  1.445236 S    
C18   N18   1.438924 S    
N13   C121  1.355464 A    
C161  N41   1.447484 S    
N38   O83   1.300188 A    
C200  H123  1.110372 S    
Zn7   O23   1.998034 S    
N20   O56   1.301396 A    
C24   C28   1.403481 A    
C102  N26   1.435971 S    
N25   O57   1.301208 A    
C107  C124  1.462057 S    
C203  H136  1.111069 S    
N10   N14   1.328791 A    
O29   C13   1.279004 A    
C104  C108  1.411195 A    
C190  H83   1.110253 S    
N32   O71   1.301321 A    
C126  C130  1.544986 S    
C152  C160  1.533714 S    
C16   C120  1.463427 S    
C66   H18   1.110005 S    
C81   N65   1.447439 S    
C62   C173  1.415061 S    
C189  H80   1.109743 S    
