data_mof_unit_61780.cif
_audit_creation_date              2012-12-10T20:11:20-0500
_audit_creation_method            fapswitch 2.2
_symmetry_space_group_name_H-M    P1
_symmetry_Int_Tables_number       1
_space_group_crystal_system       triclinic
_cell_length_a                    19.465874
_cell_length_b                    18.468059
_cell_length_c                    14.158121
_cell_angle_alpha                 90.000159
_cell_angle_beta                  91.190897
_cell_angle_gamma                 89.996373
_cell_volume                      5088.70132742

loop_
_atom_site_label
_atom_site_type_symbol
_atom_type_description
_atom_site_fract_x
_atom_site_fract_y
_atom_site_fract_z
_atom_type_partial_charge
C1    C     C_R   0.365409 0.500007 0.503108 0.862260
C2    C     C_R   0.460668 0.273389 0.434899 0.126747
C3    C     C_R   0.460598 0.726613 0.434979 0.126535
C4    C     C_R   0.539322 0.273384 0.565111 0.126454
C5    C     C_R   0.539990 0.802689 0.565887 -0.272998
C6    C     C_R   0.460081 0.197307 0.434036 -0.272967
C7    C     C_R   0.460012 0.802695 0.434113 -0.272843
C8    C     C_R   0.539907 0.197302 0.565976 -0.272790
C9    C     C_R   0.499999 0.841505 0.500003 0.115664
C10   C     C_R   0.499995 0.158489 0.500005 0.115606
C11   C     C_R   0.527348 0.961656 0.423335 -0.052014
C12   C     C_R   0.634585 0.500003 0.496800 0.862287
C13   C     C_R   0.472644 0.038335 0.576673 -0.052001
C14   C     C_R   0.472648 0.961658 0.576674 -0.051929
C15   C     C_R   0.527350 0.038332 0.423337 -0.051914
C16   C     C_R   0.499996 0.077226 0.500005 -0.006285
C17   C     C_R   0.499998 0.922767 0.500004 -0.006336
C18   C     C_R   0.499865 0.500000 0.328960 0.905033
C19   C     C_R   0.500135 0.500000 0.671040 0.905147
C20   C     C_1   0.499844 0.500000 0.227580 -0.179030
C21   C     C_1   0.500157 0.500000 0.772420 -0.179078
C22   C     C_1   0.499868 0.500000 0.142395 0.006174
C23   C     C_R   0.963220 0.543529 0.560839 -0.177218
C24   C     C_1   0.500133 0.500000 0.857605 0.006179
C25   C     C_1   0.499955 0.500000 0.042594 0.021741
C26   C     C_1   0.500046 0.500000 0.957406 0.021746
C27   C     C_R   0.747628 0.433713 0.486199 -0.008892
C28   C     C_R   0.252425 0.566441 0.512940 -0.008580
C29   C     C_R   0.252311 0.433723 0.512366 -0.009001
C30   C     C_R   0.747500 0.566437 0.485959 -0.008979
C31   C     C_R   0.818912 0.434726 0.487435 -0.209127
C32   C     C_R   0.181145 0.565582 0.510605 -0.209303
C33   C     C_R   0.181029 0.434747 0.510047 -0.211575
C34   C     C_R   0.036709 0.457083 0.435912 -0.177307
C35   C     C_R   0.818774 0.565560 0.487260 -0.211808
C36   C     C_R   0.854233 0.500191 0.489674 0.078088
C37   C     C_R   0.145699 0.500202 0.507506 0.078174
C38   C     C_R   0.710327 0.500042 0.489714 -0.144256
C39   C     C_R   0.289630 0.500051 0.509516 -0.144255
C40   C     C_1   0.715835 0.363223 0.477403 0.212144
C41   C     C_1   0.284293 0.636818 0.522873 0.211940
C42   C     C_1   0.284063 0.363271 0.522073 0.212770
C43   C     C_1   0.715584 0.636822 0.476417 0.212834
C44   C     C_1   0.581506 0.688552 0.633332 0.243196
C45   C     C_R   0.034326 0.543403 0.565534 -0.180648
C46   C     C_1   0.418659 0.311435 0.366470 0.243292
C47   C     C_1   0.418521 0.688566 0.366636 0.243720
C48   C     C_1   0.581319 0.311423 0.633556 0.243997
C49   C     C_1   0.557144 0.922672 0.345241 0.189025
C50   C     C_1   0.442841 0.077314 0.654765 0.188954
C51   C     C_1   0.442856 0.922677 0.654769 0.188962
C52   C     C_1   0.557159 0.077309 0.345250 0.188893
C53   C     C_R   0.965589 0.457194 0.431236 -0.180670
C54   C     C_R   0.071149 0.500184 0.503062 0.123023
C55   C     C_R   0.928780 0.500401 0.493735 0.122934
C56   C     C_R   0.539407 0.726607 0.565016 0.126846
H1    H     H_    0.847258 0.384108 0.487361 0.141395
H2    H     H_    0.428510 0.168422 0.382513 0.150125
H3    H     H_    0.428389 0.831585 0.382653 0.150206
H4    H     H_    0.571474 0.168413 0.617503 0.150230
H5    H     H_    0.152904 0.616266 0.510650 0.141323
H6    H     H_    0.152618 0.384194 0.511631 0.142301
H7    H     H_    0.847077 0.616164 0.485105 0.142384
H8    H     H_    0.935039 0.576444 0.610159 0.142368
H9    H     H_    0.064896 0.424129 0.386643 0.142293
H10   H     H_    0.060583 0.576248 0.618408 0.140877
H11   H     H_    0.939306 0.424287 0.378451 0.140933
H12   H     H_    0.571617 0.831574 0.617343 0.150099
N1    N     N_R   0.500000 0.689440 0.500000 -0.127483
N2    N     N_1   0.615350 0.341634 0.688775 -0.206822
N3    N     N_1   0.580911 0.891515 0.282969 -0.181383
N4    N     N_1   0.419068 0.108465 0.717037 -0.181422
N5    N     N_1   0.419091 0.891523 0.717043 -0.181687
N6    N     N_1   0.580938 0.108458 0.282983 -0.181757
N7    N     N_R   0.500000 0.310560 0.500000 -0.127539
N8    N     N_1   0.691072 0.306509 0.469596 -0.198630
N9    N     N_1   0.309126 0.693428 0.531583 -0.198505
N10   N     N_1   0.308798 0.306595 0.530598 -0.198359
N11   N     N_1   0.690707 0.693441 0.468026 -0.198296
N12   N     N_1   0.615618 0.658325 0.688446 -0.207989
N13   N     N_1   0.384618 0.341651 0.311263 -0.207989
N14   N     N_1   0.384427 0.658345 0.311498 -0.206862
O1    O     O_R   0.398180 0.560840 0.499980 -0.608471
O2    O     O_R   0.601820 0.439160 0.500020 -0.608456
O3    O     O_R   0.601820 0.560840 0.500020 -0.608512
O4    O     O_R   0.398180 0.439160 0.499980 -0.608464
O5    O     O_R   0.500000 0.560830 0.373710 -0.602186
O6    O     O_R   0.500000 0.439170 0.626290 -0.602187
O7    O     O_R   0.500000 0.560830 0.626290 -0.602155
O8    O     O_R   0.500000 0.439170 0.373710 -0.602218
Zn1   Zn    Zn3+2 0.500000 0.581210 0.500000 0.977160
Zn2   Zn    Zn3+2 0.500000 0.418790 0.500000 0.977115

loop_
_geom_bond_atom_site_label_1
_geom_bond_atom_site_label_2
_ccdc_geom_bond_type
C23   C45   A    
O5    Zn1   S    
C29   C42   S    
C6    H2    S    
C5    C56   A    
C35   C36   A    
C4    C8    A    
O3    Zn1   S    
C2    C46   S    
C12   O2    A    
C12   O3    A    
C11   C49   S    
C19   C21   S    
C24   C26   S    
C32   H5    S    
C52   N6    T    
C41   N9    T    
C27   C38   A    
C43   N11   T    
C15   C16   A    
C29   C33   A    
C28   C41   S    
C30   C38   A    
C47   N14   T    
C50   N4    T    
C4    N7    A    
C11   C15   A    
O6    Zn2   S    
C33   H6    S    
C22   C25   S    
O7    Zn1   S    
C13   C14   A    
C14   C17   A    
C2    C6    A    
C5    H12   S    
C34   H9    S    
C7    H3    S    
C53   C55   A    
C27   C31   A    
C18   O8    A    
C28   C32   A    
C19   O6    A    
C28   C39   A    
C25   C26   T    
C32   C37   A    
C33   C37   A    
C40   N8    T    
C5    C9    A    
C19   O7    A    
C46   N13   T    
C44   C56   S    
O8    Zn2   S    
C14   C51   S    
C44   N12   T    
C27   C40   S    
C29   C39   A    
C15   C52   S    
N7    Zn2   S    
C37   C54   S    
C30   C35   A    
C9    C17   S    
C23   H8    S    
C20   C22   T    
C45   C54   A    
C34   C54   A    
C30   C43   S    
C21   C24   T    
C42   N10   T    
C4    C48   S    
C1    O4    A    
C7    C9    A    
C11   C17   A    
C3    N1    A    
C51   N5    T    
C48   N2    T    
C6    C10   A    
C35   H7    S    
C23   C55   A    
C1    O1    A    
O1    Zn1   S    
C3    C7    A    
C18   O5    A    
C31   H1    S    
C36   C55   S    
O4    Zn2   S    
C8    H4    S    
C3    C47   S    
C18   C20   S    
C12   C38   S    
C53   H11   S    
C1    C39   S    
C13   C50   S    
C34   C53   A    
C8    C10   A    
C56   N1    A    
C49   N3    T    
C13   C16   A    
C45   H10   S    
C31   C36   A    
C10   C16   S    
O2    Zn2   S    
N1    Zn1   S    
C2    N7    A    
