data_mof_unit_42968.cif
_audit_creation_date              2012-12-10T16:56:35-0500
_audit_creation_method            fapswitch 2.2
_symmetry_space_group_name_H-M    P1
_symmetry_Int_Tables_number       1
_space_group_crystal_system       triclinic
_cell_length_a                    10.996917
_cell_length_b                    10.957606
_cell_length_c                    9.730826
_cell_angle_alpha                 90.629085
_cell_angle_beta                  89.567223
_cell_angle_gamma                 89.277543
_cell_volume                      1172.36482521

loop_
_atom_site_label
_atom_site_type_symbol
_atom_type_description
_atom_site_fract_x
_atom_site_fract_y
_atom_site_fract_z
_atom_type_partial_charge
C1    C     C_R   0.502346 0.265618 0.499924 0.982851
C2    C     C_3   0.878125 0.488192 0.490064 -0.316828
C3    C     C_3   0.929221 0.620886 0.466594 -0.356796
C4    C     C_3   0.925891 0.389697 0.374292 0.075741
C5    C     C_2   0.492060 0.932139 0.395965 -0.169062
C6    C     C_2   0.530626 0.863924 0.502129 -0.117801
C7    C     C_2   0.503147 0.064906 0.389371 -0.096158
C8    C     C_2   0.497419 0.133865 0.503195 -0.136604
C9    C     C_2   0.542667 0.411592 0.921029 -0.084369
C10   C     C_2   0.531520 0.406981 0.075585 0.005178
C11   C     C_R   0.260343 0.492853 0.499981 0.990751
C12   C     C_R   0.505041 0.734231 0.500716 0.909119
C13   C     C_R   0.739969 0.494730 0.498315 0.926885
C14   C     C_3   0.067774 0.473004 0.654887 0.578973
C15   C     C_3   0.928999 0.449889 0.635379 -0.462149
C16   C     C_3   0.068588 0.609945 0.439106 0.171077
C17   C     C_3   0.075177 0.376895 0.388082 0.390299
C18   C     C_3   0.122794 0.485748 0.498326 -0.440161
Cu1   Cu    Cu3+1 0.500030 0.500020 0.638630 1.096192
Cu2   Cu    Cu3+1 0.499970 0.499980 0.361370 1.084058
H1    H     H_    0.074355 0.601223 0.329064 0.227089
H2    H     H_    0.444370 0.889584 0.310988 0.204584
H3    H     H_    0.505184 0.106348 0.288594 0.172215
H4    H     H_    0.481800 0.093695 0.603038 0.148189
H5    H     H_    0.588084 0.335236 0.869645 0.175668
H6    H     H_    0.448207 0.566164 0.895312 0.240184
H7    H     H_    0.555653 0.321593 0.123489 0.184194
H8    H     H_    0.483822 0.581390 0.107113 0.205603
H9    H     H_    0.909598 0.354418 0.654219 0.266040
H10   H     H_    0.877533 0.498348 0.718409 0.223343
H11   H     H_    0.911347 0.668976 0.563354 0.241415
N1    N     N_2   0.498630 0.498660 0.846910 -0.269420
N2    N     N_2   0.498590 0.498630 0.153040 -0.281980
O1    O     O_R   0.500020 0.321960 0.617040 -0.592889
O2    O     O_R   0.499980 0.321920 0.382900 -0.541690
O3    O     O_R   0.317710 0.500000 0.617070 -0.506821
O4    O     O_R   0.317670 0.499960 0.382930 -0.552598
O5    O     O_R   0.500020 0.678080 0.617100 -0.539008
O6    O     O_R   0.499980 0.678040 0.382960 -0.569217
O7    O     O_R   0.682330 0.500040 0.617070 -0.591660
O8    O     O_R   0.682290 0.500000 0.382930 -0.552925
S1    S     S_3+6 0.081482 0.608449 0.772876 0.097698
O9    O     O_2   0.015803 0.576584 0.903579 -0.184931
O10   O     O_2   0.212164 0.630089 0.808863 -0.204495
O11   O     O_3   0.023027 0.744202 0.727758 -0.512593
H12   H     H_    0.036694 0.799040 0.807627 0.403369
C19   C     C_2   0.889657 0.432218 0.226918 0.978134
O12   O     O_2   0.912818 0.533856 0.186661 -0.556083
O13   O     O_R   0.840244 0.351013 0.130519 -0.664533
H13   H     H_    0.824708 0.389551 0.037863 0.348136
C20   C     C_2   0.863943 0.707556 0.368238 1.013046
O14   O     O_2   0.757508 0.735098 0.388446 -0.622284
O15   O     O_R   0.927213 0.764077 0.261341 -0.612457
H14   H     H_    0.873920 0.821885 0.206903 0.366192
C21   C     C_2   0.616872 0.907993 0.608243 0.844495
O16   O     O_2   0.601787 0.881555 0.728905 -0.559348
O17   O     O_R   0.718097 0.975257 0.568935 -0.654877
H15   H     H_    0.772756 0.994980 0.649418 0.378474
S2    S     S_3+6 0.135276 0.350801 0.764858 0.135098
O18   O     O_2   0.039459 0.265346 0.815926 -0.205182
O19   O     O_2   0.235253 0.277068 0.699714 -0.258202
O20   O     O_3   0.201969 0.410456 0.904270 -0.398184
H16   H     H_    0.267825 0.352484 0.929282 0.380421
S3    S     S_3+6 0.151494 0.752231 0.459293 0.058882
O21   O     O_2   0.241726 0.748063 0.573856 -0.274843
O22   O     O_2   0.219297 0.775969 0.327767 -0.284894
O23   O     O_3   0.054279 0.869746 0.488186 -0.436027
H17   H     H_    0.101920 0.931216 0.539180 0.406946
S4    S     S_3+6 0.149357 0.382141 0.213608 0.081168
O24   O     O_2   0.276016 0.328429 0.215305 -0.268389
O25   O     O_2   0.079799 0.302159 0.116408 -0.140143
O26   O     O_3   0.158121 0.521463 0.142632 -0.449371
H18   H     H_    0.245652 0.540761 0.136633 0.380069
S5    S     S_3+6 0.127146 0.222439 0.433642 0.128827
O27   O     O_2   0.259762 0.226408 0.462546 -0.321862
O28   O     O_2   0.059958 0.169857 0.553452 -0.198693
O29   O     O_3   0.119828 0.123200 0.300322 -0.383553
H19   H     H_    0.171069 0.052298 0.326507 0.388973
S6    S     S_3+6 0.839948 0.244166 0.391900 0.081626
O30   O     O_2   0.899745 0.137081 0.320996 -0.143657
O31   O     O_2   0.812572 0.209637 0.537363 -0.276216
O32   O     O_3   0.706512 0.259480 0.312998 -0.552603
H20   H     H_    0.700451 0.189228 0.248567 0.370360

loop_
_geom_bond_atom_site_label_1
_geom_bond_atom_site_label_2
_ccdc_geom_bond_type
C10   H7    S    
C21   O16   D    
C11   C18   S    
H6    N1    S    
C16   H1    S    
C1    C8    S    
C14   C18   S    
Cu1   Cu2   S    
C6    C21   S    
C13   O8    A    
Cu2   O8    S    
C9    H5    S    
C7    C8    D    
C19   O13   S    
O29   H19   S    
C17   S4    S    
C14   S2    S    
S5    O28   D    
C11   O3    A    
Cu1   O3    S    
C6    C12   S    
C5    C6    D    
C11   O4    A    
S4    O25   D    
C2    C13   S    
C13   O7    A    
C9    N1    D    
Cu2   O2    S    
C5    H2    S    
S5    O29   S    
C9    C10   S    
C14   S1    S    
S2    O18   D    
S1    O10   D    
Cu1   N1    S    
C1    O1    A    
C15   H9    S    
S2    O19   D    
S5    O27   D    
C20   O14   D    
S3    O23   S    
C4    S6    S    
S6    O31   D    
Cu2   O6    S    
C3    C20   S    
O11   H12   S    
O23   H17   S    
C20   O15   S    
S1    O11   S    
S3    O22   D    
S4    O26   S    
C2    C4    S    
O20   H16   S    
Cu1   O5    S    
C19   O12   D    
C17   C18   S    
C3    H11   S    
C2    C15   S    
Cu2   N2    S    
H8    N2    S    
O13   H13   S    
C21   O17   S    
C17   S5    S    
S1    O9    D    
C4    C17   S    
C1    O2    A    
C15   H10   S    
C5    C7    S    
S2    O20   S    
O26   H18   S    
Cu1   O1    S    
S6    O32   S    
O15   H14   S    
S3    O21   D    
C12   O6    A    
C2    C3    S    
Cu2   O4    S    
O17   H15   S    
C7    H3    S    
C8    H4    S    
C10   N2    D    
C12   O5    A    
S4    O24   D    
Cu1   O7    S    
S6    O30   D    
C16   C18   S    
O32   H20   S    
C14   C15   S    
C16   S3    S    
C3    C16   S    
C4    C19   S    
