data_mof_unit_62789.cif
_audit_creation_date              2012-12-10T16:59:25-0500
_audit_creation_method            fapswitch 2.2
_symmetry_space_group_name_H-M    P1
_symmetry_Int_Tables_number       1
_space_group_crystal_system       triclinic
_cell_length_a                    13.152651
_cell_length_b                    13.149861
_cell_length_c                    17.920934
_cell_angle_alpha                 110.195743
_cell_angle_beta                  72.808469
_cell_angle_gamma                 91.122713
_cell_volume                      2767.22163428

loop_
_atom_site_label
_atom_site_type_symbol
_atom_type_description
_atom_site_fract_x
_atom_site_fract_y
_atom_site_fract_z
_atom_type_partial_charge
C1    C     C_R   0.217092 0.543577 0.531755 0.509394
C2    C     C_R   0.590528 0.400752 0.901545 -0.111615
C3    C     C_R   0.633382 0.332283 0.930792 0.090594
C4    C     C_R   0.781868 0.456291 0.468321 0.526163
C5    C     C_R   0.612445 0.357591 0.016552 0.047859
C6    C     C_R   0.553160 0.457488 0.073899 0.010375
C7    C     C_R   0.651458 0.284904 0.045753 -0.117860
C8    C     C_R   0.631398 0.309341 0.131024 -0.134479
C9    C     C_R   0.533901 0.479972 0.159962 -0.117234
C10   C     C_2   0.895672 0.441965 0.455766 -0.066218
C11   C     C_2   0.937018 0.496683 0.516223 0.083341
C12   C     C_R   0.406005 0.708978 0.864680 -0.142236
C13   C     C_2   0.101244 0.557759 0.548819 -0.096967
C14   C     C_2   0.053210 0.487139 0.499275 -0.145637
C15   C     C_2   0.537603 0.896448 0.535050 -0.079103
C16   C     C_R   0.471303 0.217460 0.475273 0.511854
C17   C     C_2   0.505768 0.937425 0.486285 -0.149157
C18   C     C_2   0.463754 0.101351 0.461719 -0.103420
C19   C     C_2   0.509097 0.053935 0.500620 -0.147167
C20   C     C_R   0.528738 0.782444 0.524730 0.512265
C21   C     C_R   0.551987 0.433161 0.276894 0.498262
C22   C     C_R   0.447945 0.565772 0.723597 0.514781
C23   C     C_R   0.458652 0.524079 0.847081 0.013670
C24   C     C_R   0.434658 0.599421 0.813477 0.025631
C25   C     C_R   0.572869 0.406732 0.187780 0.041947
C26   C     C_R   0.403050 0.743701 0.947968 -0.138072
C27   C     C_R   0.473995 0.562095 0.926919 0.032557
C28   C     C_R   0.437419 0.671438 0.979370 0.039401
C29   C     C_R   0.523517 0.495577 0.956743 0.007780
C30   C     C_R   0.513931 0.530068 0.043183 0.025386
C31   C     C_R   0.469497 0.637287 0.094965 -0.125609
C32   C     C_R   0.435434 0.707606 0.062670 -0.125475
Cl1   Cl    Cl    0.440624 0.385197 0.798323 -0.070792
F1    F     F_    0.872600 0.563926 0.591783 -0.168741
F2    F     F_    0.695505 0.240701 0.874674 -0.181870
H1    H     H_    0.406172 0.790688 0.103535 0.110289
H2    H     H_    0.486095 0.551957 0.207177 0.094540
H3    H     H_    0.661684 0.252525 0.152796 0.110177
H4    H     H_    0.377340 0.828083 0.987124 0.116720
H5    H     H_    0.385680 0.767917 0.840328 0.142806
H6    H     H_    0.465611 0.671533 0.159821 0.105631
H7    H     H_    0.614752 0.380774 0.834708 0.143312
H8    H     H_    0.697153 0.208801 0.002773 0.138725
H9    H     H_    0.100578 0.421252 0.444014 0.142211
H10   H     H_    0.054914 0.625341 0.603075 0.135431
H11   H     H_    0.947323 0.393913 0.393755 0.064117
H12   H     H_    0.549154 0.101900 0.544506 0.166575
H13   H     H_    0.475098 0.885350 0.437365 0.129828
H14   H     H_    0.422156 0.054069 0.418851 0.107825
H15   H     H_    0.563250 0.948696 0.586775 0.099850
O1    O     O_3   0.500000 0.500000 0.500000 -0.444512
O2    O     O_R   0.474570 0.394560 0.317400 -0.540251
O3    O     O_R   0.403380 0.624270 0.695980 -0.549162
O4    O     O_R   0.609140 0.497770 0.314440 -0.538950
O5    O     O_R   0.512900 0.483390 0.672170 -0.523329
O6    O     O_R   0.526170 0.271940 0.521690 -0.538875
O7    O     O_R   0.451880 0.756290 0.574830 -0.535077
O8    O     O_R   0.271960 0.460780 0.472050 -0.537817
O9    O     O_R   0.749980 0.510990 0.431420 -0.537704
O10   O     O_R   0.262540 0.611050 0.579000 -0.535423
O11   O     O_R   0.715520 0.417170 0.517520 -0.523014
O12   O     O_R   0.426070 0.262540 0.438550 -0.539701
O13   O     O_R   0.595870 0.709230 0.464930 -0.528267
Zn1   Zn    Zn3+2 0.562560 0.419520 0.551940 0.958090
Zn2   Zn    Zn3+2 0.419550 0.406100 0.433160 0.938666
Zn3   Zn    Zn3+2 0.611810 0.553570 0.428930 0.948805
Zn4   Zn    Zn3+2 0.406080 0.620810 0.585960 0.948875

loop_
_geom_bond_atom_site_label_1
_geom_bond_atom_site_label_2
_ccdc_geom_bond_type
C10   H11   S    
O11   Zn1   S    
C23   C24   A    
O6    Zn1   S    
C12   H5    S    
C29   C30   A    
O4    Zn3   S    
C23   C27   A    
C27   C29   A    
C12   C24   A    
O8    Zn2   S    
C26   C28   A    
C31   C32   A    
C17   H13   S    
C3    F2    S    
C21   O4    A    
O5    Zn1   S    
C21   O2    A    
C6    C9    A    
C9    H2    S    
C2    C3    A    
O1    Zn1   S    
O13   Zn3   S    
C9    C25   A    
C7    C8    A    
O1    Zn4   S    
C1    O8    A    
C1    O10   A    
C13   H10   S    
C8    C25   A    
O7    Zn4   S    
C15   C20   S    
C16   O12   A    
C16   O6    A    
C20   O13   A    
C2    C29   A    
C5    C6    A    
C32   H1    S    
C4    O9    A    
C14   H9    S    
C6    C30   A    
C2    H7    S    
C22   O3    A    
C7    H8    S    
C8    H3    S    
O9    Zn3   S    
C30   C31   A    
O3    Zn4   S    
C11   C14   S    
C19   H12   S    
C26   H4    S    
C15   H15   S    
C1    C13   S    
C10   C11   D    
C15   C17   D    
C4    C10   S    
C3    C5    A    
C28   C32   A    
O10   Zn4   S    
C16   C18   S    
C18   C19   D    
O1    Zn2   S    
C22   C24   S    
C27   C28   A    
C5    C7    A    
C21   C25   S    
C22   O5    A    
C31   H6    S    
O12   Zn2   S    
C17   C19   S    
C20   O7    A    
C13   C14   D    
C4    O11   A    
C11   F1    S    
O2    Zn2   S    
C18   H14   S    
C12   C26   A    
C23   Cl1   S    
O1    Zn3   S    
