data_mof_unit_30171.cif
_audit_creation_date              2012-10-26T21:19:43-0400
_audit_creation_method            fapswitch 2.2
_symmetry_space_group_name_H-M    P1
_symmetry_Int_Tables_number       1
_space_group_crystal_system       triclinic
_cell_length_a                    10.829402
_cell_length_b                    15.13216
_cell_length_c                    13.846777
_cell_angle_alpha                 90.364961
_cell_angle_beta                  90.155966
_cell_angle_gamma                 90.163862
_cell_volume                      2269.03858325

loop_
_atom_site_label
_atom_site_type_symbol
_atom_type_description
_atom_site_fract_x
_atom_site_fract_y
_atom_site_fract_z
_atom_type_partial_charge
C1    C     C_R   0.501828 0.329901 0.499698 0.561375
C2    C     C_R   0.465366 0.812290 0.420169 -0.169402
C3    C     C_R   0.504077 0.233359 0.499488 0.003984
C4    C     C_R   0.509237 0.766870 0.501056 0.008367
C5    C     C_R   0.565449 0.185557 0.426443 0.106187
C6    C     C_R   0.556167 0.814596 0.581217 0.119685
C7    C     C_R   0.566261 0.093513 0.429773 -0.118135
C8    C     C_R   0.551515 0.906741 0.580662 -0.118314
C9    C     C_R   0.503280 0.048578 0.502723 0.045201
C10   C     C_R   0.503449 0.951757 0.501075 0.045940
C11   C     C_R   0.564244 0.564907 0.108536 -0.146460
C12   C     C_R   0.503639 0.670156 0.500382 0.555618
C13   C     C_R   0.401302 0.463153 0.891666 -0.148213
C14   C     C_R   0.564016 0.563261 0.210028 0.048150
C15   C     C_R   0.403780 0.463100 0.790161 0.042780
C16   C     C_R   0.262109 0.501788 0.499651 0.545111
C17   C     C_R   0.737717 0.497301 0.500201 0.538242
C18   C     C_R   0.434931 0.437306 0.209009 0.051466
C19   C     C_R   0.596304 0.536573 0.791148 0.068887
C20   C     C_R   0.434856 0.435350 0.107508 -0.154264
C21   C     C_R   0.598640 0.536521 0.892660 -0.142518
C22   C     C_R   0.499756 0.499979 0.054784 0.022080
C23   C     C_R   0.871472 0.494376 0.500334 -0.006065
C24   C     C_R   0.499897 0.499882 0.945405 0.021802
C25   C     C_R   0.216876 0.704516 0.259958 -0.115209
C26   C     C_R   0.744831 0.289075 0.711932 -0.095629
C27   C     C_R   0.165248 0.664776 0.341448 -0.075623
C28   C     C_R   0.803474 0.334031 0.636937 -0.054349
C29   C     C_R   0.119035 0.578160 0.335447 0.058302
C30   C     C_R   0.878969 0.407686 0.657154 0.048426
C31   C     C_R   0.125416 0.531801 0.247440 -0.083905
C32   C     C_R   0.897401 0.434055 0.753607 -0.112842
C33   C     C_R   0.178741 0.571364 0.166606 -0.107819
C34   C     C_R   0.128133 0.502037 0.498758 -0.001410
C35   C     C_R   0.838988 0.388627 0.828418 -0.122116
C36   C     C_R   0.224601 0.657614 0.172896 -0.096740
C37   C     C_R   0.762236 0.316538 0.807567 -0.099800
C38   C     C_R   0.932839 0.532553 0.422257 -0.158923
C39   C     C_R   0.066733 0.463103 0.576603 -0.155756
C40   C     C_3   0.259403 0.017565 0.627168 -0.311397
C41   C     C_3   0.288445 0.980884 0.346700 -0.316124
C42   C     C_3   0.572882 0.224353 0.258219 -0.284164
C43   C     C_3   0.737724 0.743666 0.644615 -0.295285
C44   C     C_R   0.938671 0.457028 0.577514 -0.032349
C45   C     C_R   0.060591 0.536488 0.420190 -0.035537
C46   C     C_R   0.442524 0.096173 0.576394 0.122343
C47   C     C_R   0.460438 0.904334 0.419630 0.122361
C48   C     C_R   0.445167 0.188390 0.574689 -0.169584
Cu1   Cu    Cu3+1 0.500000 0.499990 0.596430 0.947516
Cu2   Cu    Cu3+1 0.500000 0.500010 0.403570 0.946626
H1    H     H_    0.265439 0.688275 0.110164 0.104966
H2    H     H_    0.672698 0.565413 0.752367 0.130071
H3    H     H_    0.384832 0.382818 0.071224 0.078305
H4    H     H_    0.678661 0.563981 0.928960 0.080340
H5    H     H_    0.250164 0.771891 0.263961 0.092904
H6    H     H_    0.685727 0.233048 0.695859 0.105209
H7    H     H_    0.160050 0.701594 0.408648 0.092389
H8    H     H_    0.789186 0.312060 0.563122 0.098894
H9    H     H_    0.089749 0.465021 0.241739 0.094798
H10   H     H_    0.955381 0.490498 0.770664 0.094200
H11   H     H_    0.184299 0.535236 0.099042 0.100103
H12   H     H_    0.716405 0.281901 0.865534 0.102260
H13   H     H_    0.852392 0.409789 0.902531 0.101265
H14   H     H_    0.880988 0.561215 0.363104 0.128142
H15   H     H_    0.118950 0.433938 0.635217 0.118914
H16   H     H_    0.398189 0.225081 0.631091 0.119098
H17   H     H_    0.432261 0.776016 0.357700 0.125713
H18   H     H_    0.377955 0.087762 0.716493 0.241063
H19   H     H_    0.217742 0.985036 0.690977 0.135909
H20   H     H_    0.266777 0.967363 0.568783 0.161770
H21   H     H_    0.197722 0.071952 0.603561 0.131635
H22   H     H_    0.425261 0.913663 0.273081 0.238643
H23   H     H_    0.615928 0.056762 0.374864 0.128755
H24   H     H_    0.259569 0.013364 0.278628 0.132352
H25   H     H_    0.282783 0.030653 0.405644 0.163425
H26   H     H_    0.224012 0.925342 0.361657 0.127688
H27   H     H_    0.723022 0.211944 0.349447 0.233555
H28   H     H_    0.578066 0.155814 0.229222 0.124005
H29   H     H_    0.620957 0.269419 0.207634 0.141690
H30   H     H_    0.474526 0.244427 0.262939 0.153198
H31   H     H_    0.601873 0.804386 0.725876 0.240303
H32   H     H_    0.797406 0.802345 0.632070 0.122572
H33   H     H_    0.743350 0.698408 0.581315 0.160522
H34   H     H_    0.588375 0.943620 0.641672 0.123810
H35   H     H_    0.772804 0.708101 0.708916 0.123829
H36   H     H_    0.613600 0.617666 0.073010 0.083413
H37   H     H_    0.321391 0.435475 0.927196 0.079897
H38   H     H_    0.614812 0.613222 0.249904 0.115042
H39   H     H_    0.327788 0.433614 0.750619 0.113615
H40   H     H_    0.382488 0.388410 0.248143 0.112606
N1    N     N_R   0.500000 0.500020 0.258690 -0.211580
N2    N     N_R   0.500000 0.499980 0.741310 -0.215214
N3    N     N_2   0.379898 0.052147 0.652719 -0.523755
N4    N     N_2   0.413297 0.948413 0.336719 -0.525416
N5    N     N_2   0.631212 0.229726 0.352187 -0.493840
N6    N     N_2   0.611499 0.770953 0.661163 -0.492264
O1    O     O_R   0.500010 0.371450 0.581430 -0.514422
O2    O     O_R   0.499990 0.628550 0.418570 -0.523574
O3    O     O_R   0.500010 0.371460 0.418560 -0.474000
O4    O     O_R   0.499990 0.628540 0.581440 -0.458948
O5    O     O_R   0.319640 0.500000 0.581430 -0.521809
O6    O     O_R   0.680360 0.500000 0.418570 -0.507324
O7    O     O_R   0.319640 0.500010 0.418560 -0.492265
O8    O     O_R   0.680360 0.499990 0.581440 -0.504977

loop_
_geom_bond_atom_site_label_1
_geom_bond_atom_site_label_2
_ccdc_geom_bond_type
C42   H30   S    
C40   H21   S    
C27   C29   A    
C43   H33   S    
C40   N3    S    
C1    O3    A    
Cu1   O8    S    
C37   H12   S    
C7    H23   S    
Cu2   O3    S    
C17   C23   S    
C40   H20   S    
C18   N1    A    
C19   C21   A    
C17   O8    A    
Cu1   O5    S    
C21   H4    S    
C11   C14   A    
C41   H25   S    
C11   H36   S    
C3    C48   A    
C33   C36   A    
C31   H9    S    
C38   C45   A    
C19   N2    A    
C16   C34   S    
C15   N2    A    
C19   H2    S    
C31   C33   A    
C4    C12   S    
C9    C10   S    
C12   O2    A    
H22   N4    S    
C41   H24   S    
Cu2   O7    S    
C39   H15   S    
C30   C44   S    
C5    N5    S    
C38   H14   S    
C46   C48   A    
Cu2   O2    S    
C40   H19   S    
C42   H29   S    
C42   N5    S    
C43   H35   S    
C32   C35   A    
C4    C6    A    
C2    H17   S    
C27   H7    S    
C1    O1    A    
C5    C7    A    
H31   N6    S    
C6    C8    A    
H27   N5    S    
C23   C44   A    
C34   C39   A    
C13   C24   A    
C29   C45   S    
C1    C3    S    
C18   H40   S    
C2    C4    A    
C17   O6    A    
C15   H39   S    
Cu2   N1    S    
C16   O7    A    
C41   N4    S    
C13   H37   S    
C43   N6    S    
C34   C45   A    
C36   H1    S    
C33   H11   S    
C20   C22   A    
C42   H28   S    
C6    N6    S    
C13   C15   A    
C22   C24   S    
C32   H10   S    
Cu1   N2    S    
C7    C9    A    
C35   C37   A    
C8    H34   S    
C25   H5    S    
C20   H3    S    
C3    C5    A    
C26   H6    S    
C26   C37   A    
Cu2   O6    S    
C39   C44   A    
C28   H8    S    
C2    C47   A    
C25   C27   A    
C23   C38   A    
C11   C22   A    
C26   C28   A    
H18   N3    S    
C28   C30   A    
C14   H38   S    
C29   C31   A    
Cu1   O4    S    
C30   C32   A    
C46   N3    S    
C47   N4    S    
C18   C20   A    
C14   N1    A    
C12   O4    A    
C25   C36   A    
Cu1   O1    S    
C16   O5    A    
C9    C46   A    
C8    C10   A    
Cu1   Cu2   S    
C21   C24   A    
C10   C47   A    
C43   H32   S    
C35   H13   S    
C48   H16   S    
C41   H26   S    
