data_mof_unit_61916.cif
_audit_creation_date              2012-12-10T16:51:50-0500
_audit_creation_method            fapswitch 2.2
_symmetry_space_group_name_H-M    P1
_symmetry_Int_Tables_number       1
_space_group_crystal_system       triclinic
_cell_length_a                    18.39772
_cell_length_b                    18.376538
_cell_length_c                    18.379934
_cell_angle_alpha                 90.823087
_cell_angle_beta                  119.668228
_cell_angle_gamma                 119.424834
_cell_volume                      4422.20608857

loop_
_atom_site_label
_atom_site_type_symbol
_atom_type_description
_atom_site_fract_x
_atom_site_fract_y
_atom_site_fract_z
_atom_type_partial_charge
C1    C     C_R   0.776997 0.639151 0.638769 0.883961
C2    C     C_2   0.112279 0.307786 0.303390 -0.294150
C3    C     C_2   0.442453 0.162547 0.718544 -0.143819
C4    C     C_R   0.222990 0.361596 0.361213 0.853231
C5    C     C_2   0.498593 0.195366 0.807652 -0.294927
C6    C     C_2   0.440073 0.218846 0.662461 -0.157275
C7    C     C_2   0.504452 0.307781 0.695546 -0.297399
C8    C     C_2   0.053914 0.793301 0.717650 0.428046
C9    C     C_2   0.111761 0.803966 0.804692 -0.392307
C10   C     C_2   0.942318 0.729470 0.662166 -0.200463
C11   C     C_2   0.887538 0.699532 0.695994 -0.374010
C12   C     C_3   0.568720 0.767084 0.835721 -0.129738
C13   C     C_2   0.437745 0.161097 0.220885 -0.166786
C14   C     C_2   0.508486 0.195409 0.204175 -0.283214
C15   C     C_2   0.442254 0.216811 0.281031 -0.168807
C16   C     C_R   0.499702 0.638186 0.361230 0.851008
C17   C     C_2   0.491543 0.304099 0.296346 -0.281424
C18   C     C_2   0.440545 0.777956 0.221512 -0.160322
C19   C     C_2   0.504583 0.808969 0.196702 -0.291175
C20   C     C_2   0.442883 0.724246 0.280189 -0.162348
C21   C     C_2   0.498648 0.691009 0.303328 -0.289277
C22   C     C_R   0.499758 0.138560 0.861553 0.853217
C23   C     C_3   0.593379 0.791943 0.766914 -0.177177
C24   C     C_R   0.500541 0.861865 0.138835 0.850407
C25   C     C_R   0.777086 0.138583 0.138825 0.850524
C26   C     C_R   0.222885 0.862382 0.861038 0.892085
C27   C     C_R   0.501314 0.140893 0.142219 0.864339
C28   C     C_R   0.500426 0.361605 0.638626 0.853636
C29   C     C_R   0.500132 0.858294 0.858298 0.772380
C30   C     C_R   0.498730 0.359011 0.357936 0.861692
C31   C     C_R   0.499963 0.641767 0.641743 0.779641
C32   C     C_3   0.475080 0.673503 0.766877 -0.178359
C33   C     C_3   0.406713 0.708136 0.733113 -0.171305
C34   C     C_3   0.525011 0.826575 0.733150 -0.175614
C35   C     C_3   0.500290 0.800907 0.801088 0.050794
C36   C     C_3   0.431373 0.732993 0.664306 -0.124983
C37   C     C_3   0.499803 0.699169 0.698941 0.047470
C38   C     C_2   0.943984 0.162608 0.219940 -0.159450
C39   C     C_2   0.887781 0.195435 0.196689 -0.292500
C40   C     C_2   0.056335 0.218846 0.278590 -0.157616
Cl1   Cl    Cl    0.105374 0.853820 0.662128 -0.588564
H1    H     H_    0.330057 0.674539 0.720022 0.141334
H2    H     H_    0.375706 0.090877 0.190813 0.182542
H3    H     H_    0.454597 0.609853 0.779938 0.138208
H4    H     H_    0.574683 0.263876 0.237563 0.149837
H5    H     H_    0.403396 0.185030 0.312088 0.181492
H6    H     H_    0.525436 0.336687 0.262127 0.149706
H7    H     H_    0.384355 0.793100 0.199073 0.177161
H8    H     H_    0.563452 0.797583 0.219486 0.152784
H9    H     H_    0.395621 0.711024 0.304044 0.176707
H10   H     H_    0.544487 0.700548 0.279122 0.153132
H11   H     H_    0.625232 0.781730 0.906865 0.149707
H12   H     H_    0.078236 0.344000 0.280647 0.151081
H13   H     H_    0.670035 0.825545 0.780004 0.137974
H14   H     H_    0.545490 0.890226 0.720091 0.137423
H15   H     H_    0.374863 0.718352 0.593163 0.151622
H16   H     H_    0.906775 0.091370 0.196183 0.177456
H17   H     H_    0.921627 0.265606 0.220772 0.151901
H18   H     H_    0.093780 0.184957 0.301019 0.177848
H19   H     H_    0.394934 0.091310 0.684454 0.189394
H20   H     H_    0.544638 0.265527 0.844021 0.151480
H21   H     H_    0.383593 0.185006 0.591067 0.180068
H22   H     H_    0.563596 0.343953 0.765850 0.151229
H23   H     H_    0.077555 0.766208 0.836681 0.124023
H24   H     H_    0.903847 0.709236 0.590435 0.212063
H25   H     H_    0.922642 0.722323 0.766820 0.159100
O1    O     O_3   0.500000 0.500000 0.500000 -0.491822
O2    O     O_R   0.270900 0.886160 0.946260 -0.655657
O3    O     O_R   0.560160 0.177420 0.117340 -0.646407
O4    O     O_R   0.729180 0.615300 0.675360 -0.645369
O5    O     O_R   0.440020 0.882760 0.822680 -0.634777
O6    O     O_R   0.439990 0.057240 0.117340 -0.646984
O7    O     O_R   0.560190 0.882760 0.942820 -0.649230
O8    O     O_R   0.729270 0.053840 0.113900 -0.642276
O9    O     O_R   0.270910 0.884750 0.824690 -0.576211
O10   O     O_R   0.560170 0.175430 0.946260 -0.646208
O11   O     O_R   0.440000 0.886160 0.115330 -0.643741
O12   O     O_R   0.439910 0.615300 0.386140 -0.643393
O13   O     O_R   0.270820 0.446200 0.386140 -0.644812
O14   O     O_R   0.560090 0.613880 0.384720 -0.641723
O15   O     O_R   0.439920 0.324620 0.553780 -0.643380
O16   O     O_R   0.560100 0.442800 0.382710 -0.646070
O17   O     O_R   0.560070 0.617290 0.677370 -0.640090
O18   O     O_R   0.439930 0.322630 0.382710 -0.648599
O19   O     O_R   0.439900 0.617290 0.557220 -0.646846
O20   O     O_R   0.560080 0.446200 0.675360 -0.644343
O21   O     O_R   0.729180 0.613880 0.553780 -0.638039
O22   O     O_R   0.270820 0.324620 0.384720 -0.642933
O23   O     O_3   0.500090 0.000040 0.000040 -0.498934
O24   O     O_R   0.440010 0.053840 0.824690 -0.624184
O25   O     O_R   0.560180 0.884750 0.113900 -0.644339
O26   O     O_R   0.729260 0.175430 0.115330 -0.644413
Zn1   Zn    Zn3+2 0.414150 0.543930 0.458110 0.965301
Zn2   Zn    Zn3+2 0.585850 0.541910 0.456060 0.975364
Zn3   Zn    Zn3+2 0.414160 0.370220 0.456060 0.963010
Zn4   Zn    Zn3+2 0.585840 0.543930 0.629770 0.970109
Zn5   Zn    Zn3+2 0.585940 0.956110 0.041940 0.961897
Zn6   Zn    Zn3+2 0.585930 0.129820 0.043980 0.971493
Zn7   Zn    Zn3+2 0.414240 0.958130 0.043980 0.964095
Zn8   Zn    Zn3+2 0.414250 0.956110 0.870280 1.014814

loop_
_geom_bond_atom_site_label_1
_geom_bond_atom_site_label_2
_ccdc_geom_bond_type
C1    O21   A    
C16   C21   S    
C31   O19   A    
C9    H23   S    
O4    Zn4   S    
C1    C11   S    
C22   O10   A    
C3    C6    S    
O26   Zn6   S    
O7    Zn5   S    
C12   C23   S    
O23   Zn7   S    
O16   Zn2   S    
C33   H1    S    
C36   C37   S    
O13   Zn1   S    
C38   C39   D    
O15   Zn3   S    
C29   O7    A    
O12   Zn1   S    
O10   Zn6   S    
O21   Zn2   S    
C33   C36   S    
C31   O17   A    
C18   C20   S    
C34   C35   S    
C20   H9    S    
O19   Zn1   S    
C5    C22   S    
C8    C9    D    
O1    Zn2   S    
C14   C27   S    
C14   H4    S    
C34   C36   S    
C27   O3    A    
C11   H25   S    
O3    Zn6   S    
C13   H2    S    
O22   Zn3   S    
C34   H14   S    
C40   H18   S    
C13   C14   D    
C12   C32   S    
O1    Zn3   S    
C17   C30   S    
O24   Zn8   S    
C12   H11   S    
C9    C26   S    
O8    Zn5   S    
C32   H3    S    
C25   O8    A    
O23   Zn8   S    
C8    Cl1   S    
C4    O13   A    
C18   C19   D    
C23   C37   S    
C39   H17   S    
C7    C28   S    
C31   C37   S    
O23   Zn5   S    
C16   O14   A    
O18   Zn3   S    
C30   O16   A    
C2    C4    S    
C36   H15   S    
C38   H16   S    
C19   H8    S    
C23   C34   S    
C26   O9    A    
C22   O24   A    
C5    H20   S    
C32   C37   S    
O25   Zn5   S    
C12   C35   S    
C7    H22   S    
O20   Zn4   S    
C13   C15   S    
C28   O20   A    
O1    Zn4   S    
O14   Zn2   S    
C24   O25   A    
C21   H10   S    
C23   H13   S    
C10   H24   S    
C15   C17   D    
C25   O26   A    
C28   O15   A    
C17   H6    S    
C3    C5    D    
C2    H12   S    
C18   H7    S    
C6    C7    D    
C4    O22   A    
O5    Zn8   S    
C29   C35   S    
C1    O4    A    
O23   Zn6   S    
C26   O2    A    
C32   C33   S    
C6    H21   S    
C19   C24   S    
O2    Zn7   S    
C25   C39   S    
C38   C40   S    
O17   Zn4   S    
O9    Zn8   S    
C33   C35   S    
O11   Zn7   S    
C16   O12   A    
C30   O18   A    
C10   C11   D    
C2    C40   D    
C24   O11   A    
C20   C21   D    
C8    C10   S    
O1    Zn1   S    
C15   H5    S    
C3    H19   S    
C27   O6    A    
C29   O5    A    
O6    Zn7   S    
