data_mof_unit_49245.cif
_audit_creation_date              2013-03-05T15:51:39-0500
_audit_creation_method            fapswitch 2.2
_symmetry_space_group_name_H-M    P1
_symmetry_Int_Tables_number       1
_space_group_crystal_system       triclinic
_cell_length_a                    31.682432
_cell_length_b                    18.378142
_cell_length_c                    25.792035
_cell_angle_alpha                 90.058499
_cell_angle_beta                  144.626597
_cell_angle_gamma                 89.881893
_cell_volume                      8693.80933798

loop_
_atom_site_label
_atom_site_type_symbol
_atom_site_description
_atom_site_fract_x
_atom_site_fract_y
_atom_site_fract_z
_atom_type_partial_charge
Zn1   Zn    Zn3+2 0.000000 0.086750 0.293940 1.025111
Zn2   Zn    Zn3+2 0.000000 0.913250 0.706060 1.026739
Zn3   Zn    Zn3+2 0.000000 0.086750 0.706060 1.016625
Zn4   Zn    Zn3+2 0.000000 0.913250 0.293940 1.030608
Zn5   Zn    Zn3+2 0.500000 0.586750 0.293940 1.009575
Zn6   Zn    Zn3+2 0.500000 0.413250 0.706060 1.015574
Zn7   Zn    Zn3+2 0.500000 0.586750 0.706060 1.031433
Zn8   Zn    Zn3+2 0.500000 0.413250 0.293940 1.025475
Zn9   Zn    Zn3+2 0.913220 1.000000 0.119290 0.999256
Zn10  Zn    Zn3+2 0.086780 0.000000 0.880710 0.978838
Zn11  Zn    Zn3+2 0.413220 0.500000 0.119290 0.983103
Zn12  Zn    Zn3+2 0.586780 0.500000 0.880710 0.991914
Zn13  Zn    Zn3+2 0.086730 0.000000 0.292800 0.979054
Zn14  Zn    Zn3+2 0.913270 0.000000 0.707200 0.998694
Zn15  Zn    Zn3+2 0.586730 0.500000 0.292800 0.999335
Zn16  Zn    Zn3+2 0.413270 0.500000 0.707200 0.995490
O1    O     O_3   0.999990 0.000000 0.249990 -0.524518
O2    O     O_3   0.000010 1.000000 0.750010 -0.521447
O3    O     O_3   0.499990 0.500000 0.249990 -0.521363
O4    O     O_3   0.500010 0.500000 0.750010 -0.523775
O5    O     O_R   0.914560 0.853840 0.195310 -0.635828
O6    O     O_R   0.085440 0.146160 0.804690 -0.622178
O7    O     O_R   0.085440 0.853840 0.804690 -0.625736
O8    O     O_R   0.914560 0.146160 0.195310 -0.620942
O9    O     O_R   0.414560 0.353840 0.195310 -0.621161
O10   O     O_R   0.585440 0.646160 0.804690 -0.628869
O11   O     O_R   0.585440 0.353840 0.804690 -0.623920
O12   O     O_R   0.414560 0.646160 0.195310 -0.630020
O13   O     O_R   0.085440 0.146150 0.366190 -0.626175
O14   O     O_R   0.914560 0.853850 0.633810 -0.630352
O15   O     O_R   0.914560 0.146150 0.633810 -0.636037
O16   O     O_R   0.085440 0.853850 0.366190 -0.616560
O17   O     O_R   0.585440 0.646150 0.366190 -0.640427
O18   O     O_R   0.414560 0.353850 0.633810 -0.636261
O19   O     O_R   0.414560 0.646150 0.633810 -0.625607
O20   O     O_R   0.585440 0.353850 0.366190 -0.631686
O21   O     O_R   0.853820 0.085430 0.073070 -0.629513
O22   O     O_R   0.146180 0.914570 0.926930 -0.635946
O23   O     O_R   0.146180 0.085430 0.926930 -0.633918
O24   O     O_R   0.853820 0.914570 0.073070 -0.629018
O25   O     O_R   0.353820 0.585430 0.073070 -0.635184
O26   O     O_R   0.646180 0.414570 0.926930 -0.632097
O27   O     O_R   0.646180 0.585430 0.926930 -0.631392
O28   O     O_R   0.353820 0.414570 0.073070 -0.627626
O29   O     O_R   0.146150 0.914540 0.365390 -0.638361
O30   O     O_R   0.853850 0.085460 0.634610 -0.635875
O31   O     O_R   0.853850 0.914540 0.634610 -0.629689
O32   O     O_R   0.146150 0.085460 0.365390 -0.635862
O33   O     O_R   0.646150 0.414540 0.365390 -0.627897
O34   O     O_R   0.353850 0.585460 0.634610 -0.621902
O35   O     O_R   0.353850 0.414540 0.634610 -0.636143
O36   O     O_R   0.646150 0.585460 0.365390 -0.633786
O37   O     O_R   0.939240 1.000000 0.071950 -0.621192
O38   O     O_R   0.060760 1.000000 0.928050 -0.641870
O39   O     O_R   0.439240 0.500000 0.071950 -0.637843
O40   O     O_R   0.560760 0.500000 0.928050 -0.627387
O41   O     O_R   0.000020 0.939290 0.367320 -0.585993
O42   O     O_R   0.999980 0.060710 0.632680 -0.601097
O43   O     O_R   0.999980 0.939290 0.632680 -0.608648
O44   O     O_R   0.000020 0.060710 0.367320 -0.611014
O45   O     O_R   0.500020 0.439290 0.367320 -0.610560
O46   O     O_R   0.499980 0.560710 0.632680 -0.604322
O47   O     O_R   0.499980 0.439290 0.632680 -0.599195
O48   O     O_R   0.500020 0.560710 0.367320 -0.600321
O49   O     O_R   0.060680 0.000000 0.193390 -0.631271
O50   O     O_R   0.939320 1.000000 0.806610 -0.607774
O51   O     O_R   0.560680 0.500000 0.193390 -0.608260
O52   O     O_R   0.439320 0.500000 0.806610 -0.618917
C1    C     C_R   0.860082 0.860262 0.110105 0.784072
C2    C     C_R   0.139845 0.139767 0.889872 0.780712
C3    C     C_R   0.140055 0.860394 0.889945 0.785535
C4    C     C_R   0.860225 0.139846 0.110287 0.779582
C5    C     C_R   0.360147 0.360190 0.110256 0.780327
C6    C     C_R   0.639956 0.639735 0.889980 0.784722
C7    C     C_R   0.639821 0.360246 0.889826 0.779695
C8    C     C_R   0.359898 0.639475 0.110095 0.778867
C9    C     C_R   0.139686 0.139844 0.389504 0.764999
C10   C     C_R   0.860310 0.860171 0.610475 0.769108
C11   C     C_R   0.860301 0.140088 0.610816 0.767862
C12   C     C_R   0.138912 0.859525 0.388134 0.776453
C13   C     C_R   0.639647 0.640231 0.389003 0.768814
C14   C     C_R   0.360347 0.359803 0.610935 0.767241
C15   C     C_R   0.360104 0.639777 0.610043 0.773696
C16   C     C_R   0.639801 0.360353 0.389809 0.768435
C17   C     C_R   0.999797 0.000543 0.108782 0.794577
C18   C     C_R   0.000397 0.999162 0.891288 0.791580
C19   C     C_R   0.499546 0.498554 0.108567 0.790975
C20   C     C_R   0.500558 0.501998 0.891492 0.786750
C21   C     C_R   0.002224 0.000309 0.393584 0.983265
C22   C     C_R   0.998833 0.999548 0.607389 0.989582
C23   C     C_R   0.501107 0.499698 0.392559 0.988058
C24   C     C_R   0.498664 0.500435 0.607303 0.994260
C25   C     C_3   0.062571 0.966153 0.546674 0.131993
C26   C     C_3   0.940666 0.032590 0.456225 0.155301
C27   C     C_3   0.001890 0.929918 0.517633 0.121219
C28   C     C_3   0.001346 0.069073 0.485497 0.113034
C29   C     C_3   0.492092 0.431340 0.476328 0.120147
C30   C     C_3   0.507762 0.569497 0.523968 0.113224
C31   C     C_3   0.435898 0.474105 0.452001 0.146405
C32   C     C_3   0.563892 0.526745 0.548150 0.141927
C33   C     C_3   0.059685 0.033903 0.579170 0.311026
C34   C     C_3   0.943733 0.964950 0.424066 0.324307
C35   C     C_3   0.554008 0.459670 0.573420 0.322133
C36   C     C_3   0.445731 0.541256 0.426772 0.320047
C37   C     C_3   0.998529 0.997713 0.550093 -0.332661
C38   C     C_3   0.004526 0.001366 0.452761 -0.336912
C39   C     C_3   0.497513 0.502318 0.549314 -0.333663
C40   C     C_3   0.502142 0.498459 0.450587 -0.337054
C41   C     C_R   0.210708 0.180940 0.555150 -0.176653
C42   C     C_R   0.791903 0.816616 0.447041 -0.170161
C43   C     C_R   0.787476 0.181207 0.443142 -0.179550
C44   C     C_R   0.265505 0.874667 0.578114 -0.160300
C45   C     C_R   0.713070 0.680561 0.557214 -0.179620
C46   C     C_R   0.284893 0.321585 0.441130 -0.185202
C47   C     C_R   0.232409 0.624650 0.418571 -0.199759
C48   C     C_R   0.707329 0.315626 0.552597 -0.168156
C49   C     C_R   0.233389 0.208800 0.625180 -0.164133
C50   C     C_R   0.771636 0.786833 0.379491 -0.161929
C51   C     C_R   0.754464 0.201410 0.363698 -0.134733
C52   C     C_R   0.326666 0.883126 0.670607 -0.165708
C53   C     C_R   0.746518 0.700094 0.637075 -0.134247
C54   C     C_R   0.250373 0.303106 0.360366 -0.136384
C55   C     C_R   0.170570 0.615982 0.325895 -0.188390
C56   C     C_R   0.728141 0.285629 0.620518 -0.168079
C57   C     C_R   0.800121 0.753705 0.691628 0.331701
C58   C     C_R   0.196963 0.249275 0.305966 0.336673
C59   C     C_R   0.115432 0.668733 0.270589 0.316575
C60   C     C_R   0.773324 0.224831 0.667184 0.339206
C61   C     C_R   0.277743 0.270063 0.671494 0.343252
C62   C     C_R   0.727861 0.725194 0.333919 0.338857
C63   C     C_R   0.700872 0.255182 0.309257 0.333937
C64   C     C_R   0.381326 0.830104 0.725812 0.330619
C65   C     C_R   0.819908 0.787196 0.664776 -0.224609
C66   C     C_R   0.178332 0.214582 0.333781 -0.237831
C67   C     C_R   0.123713 0.730911 0.309992 -0.270355
C68   C     C_R   0.803297 0.199206 0.650749 -0.251039
C69   C     C_R   0.305486 0.298114 0.652845 -0.254126
C70   C     C_R   0.698074 0.698822 0.350395 -0.254680
C71   C     C_R   0.680458 0.287992 0.335635 -0.231431
C72   C     C_R   0.373720 0.768173 0.686765 -0.248958
C73   C     C_R   0.784519 0.770123 0.581834 0.019654
C74   C     C_R   0.214555 0.230843 0.417364 0.022662
C75   C     C_R   0.186240 0.740728 0.404100 0.030869
C76   C     C_R   0.778453 0.225111 0.576941 0.026006
C77   C     C_R   0.279699 0.273473 0.578033 0.025528
C78   C     C_R   0.721922 0.725055 0.423388 0.024406
C79   C     C_R   0.715674 0.270501 0.418420 0.022705
C80   C     C_R   0.311819 0.758441 0.592867 0.025011
C81   C     C_R   0.228465 0.216331 0.525819 0.068589
C82   C     C_R   0.772898 0.782413 0.475339 0.065947
C83   C     C_R   0.770015 0.216150 0.473033 0.054384
C84   C     C_R   0.257067 0.812478 0.537874 0.072325
C85   C     C_R   0.730234 0.715846 0.527147 0.055881
C86   C     C_R   0.268772 0.285202 0.471984 0.056667
C87   C     C_R   0.241152 0.686720 0.459121 0.079861
C88   C     C_R   0.726917 0.282119 0.524666 0.065990
C89   C     C_R   0.804073 0.804323 0.554232 -0.108369
C90   C     C_R   0.195976 0.195667 0.445777 -0.106386
C91   C     C_R   0.194893 0.803351 0.444082 -0.092169
C92   C     C_R   0.802820 0.195205 0.553479 -0.107364
C93   C     C_R   0.302807 0.304773 0.553502 -0.107798
C94   C     C_R   0.697330 0.695145 0.446570 -0.109784
C95   C     C_R   0.695929 0.304380 0.445950 -0.106541
C96   C     C_R   0.303565 0.695827 0.553196 -0.092238
H1    H     H_    0.177379 0.132575 0.523109 0.168183
H2    H     H_    0.824576 0.865399 0.478220 0.175682
H3    H     H_    0.825640 0.136710 0.479376 0.214046
H4    H     H_    0.224894 0.917443 0.538681 0.157188
H5    H     H_    0.674941 0.636158 0.520954 0.213342
H6    H     H_    0.323130 0.365942 0.477651 0.210196
H7    H     H_    0.273217 0.582062 0.457982 0.153770
H8    H     H_    0.673888 0.363998 0.520985 0.177253
H9    H     H_    0.214328 0.183605 0.641266 0.167085
H10   H     H_    0.792151 0.810816 0.364845 0.170772
H11   H     H_    0.770304 0.174278 0.344136 0.253566
H12   H     H_    0.331124 0.931413 0.698934 0.192224
H13   H     H_    0.730960 0.672450 0.656779 0.250763
H14   H     H_    0.265059 0.331609 0.339947 0.249998
H15   H     H_    0.165889 0.567572 0.297497 0.200594
H16   H     H_    0.707181 0.308851 0.634819 0.163149
H17   H     H_    0.864477 0.825332 0.710877 0.185218
H18   H     H_    0.134068 0.176068 0.288041 0.183396
H19   H     H_    0.080909 0.771492 0.266544 0.149075
H20   H     H_    0.844715 0.158056 0.695919 0.189629
H21   H     H_    0.345883 0.340153 0.696969 0.189762
H22   H     H_    0.657813 0.656759 0.306149 0.192858
H23   H     H_    0.635614 0.325979 0.289297 0.182913
H24   H     H_    0.416464 0.727551 0.730411 0.155067
H25   H     H_    0.622755 0.970920 0.910842 0.143951
H26   H     H_    0.061580 0.342848 0.921009 0.150762
H27   H     H_    0.376388 0.967594 0.081171 0.138990
H28   H     H_    0.948519 0.353394 0.104771 0.162801
H29   H     H_    0.447198 0.147465 0.101239 0.159430
H30   H     H_    0.878719 0.528399 0.095700 0.144085
H31   H     H_    0.558803 0.154710 0.914121 0.150082
H32   H     H_    0.125392 0.532600 0.924640 0.140310
C97   C     C_R   0.897209 0.710460 0.127494 -0.083356
C98   C     C_R   0.273443 0.119545 0.967349 -0.154629
C99   C     C_R   0.104586 0.712828 0.881227 -0.061903
C100  C     C_R   0.726572 0.119460 0.032619 -0.130773
C101  C     C_R   0.227770 0.379213 0.035969 -0.129410
C102  C     C_R   0.603230 0.789344 0.874554 -0.062619
C103  C     C_R   0.774493 0.381676 0.970213 -0.160492
C104  C     C_R   0.395234 0.786422 0.118009 -0.132303
C105  C     C_R   0.916514 0.637985 0.139296 -0.041922
C106  C     C_R   0.339450 0.107400 0.008138 -0.140965
C107  C     C_R   0.086444 0.641509 0.875658 -0.052829
C108  C     C_R   0.662446 0.109428 0.996462 -0.112082
C109  C     C_R   0.164482 0.388523 0.001779 -0.106417
C110  C     C_R   0.584329 0.861637 0.864641 -0.036879
C111  C     C_R   0.840866 0.394089 0.012000 -0.132985
C112  C     C_R   0.413967 0.857959 0.125511 -0.117741
C113  C     C_R   0.110732 0.335325 0.947602 -0.098027
C114  C     C_R   0.637632 0.914967 0.918156 -0.128321
C115  C     C_R   0.896754 0.343224 0.071711 -0.023148
C116  C     C_R   0.361302 0.912128 0.074442 -0.120386
C117  C     C_R   0.863396 0.584527 0.086494 -0.124487
C118  C     C_R   0.395640 0.157591 0.068759 -0.022514
C119  C     C_R   0.139717 0.587831 0.928971 -0.122379
C120  C     C_R   0.608592 0.162746 0.942210 -0.099994
C121  C     C_R   0.120294 0.272100 0.928077 -0.133285
C122  C     C_R   0.710116 0.896399 0.981630 -0.132810
C123  C     C_R   0.885359 0.277997 0.086596 -0.087920
C124  C     C_R   0.289322 0.894958 0.014357 -0.125809
C125  C     C_R   0.790627 0.603188 0.021432 -0.123435
C126  C     C_R   0.384611 0.222413 0.084725 -0.089766
C127  C     C_R   0.211478 0.605183 0.988375 -0.131704
C128  C     C_R   0.618851 0.226729 0.924494 -0.132420
C129  C     C_R   0.184637 0.260753 0.963229 0.075914
C130  C     C_R   0.730570 0.823605 0.990683 0.079866
C131  C     C_R   0.817696 0.263209 0.043040 0.075722
C132  C     C_R   0.269048 0.822750 0.006900 0.076201
C133  C     C_R   0.769747 0.676231 0.010751 0.081006
C134  C     C_R   0.317221 0.237144 0.041916 0.073565
C135  C     C_R   0.231140 0.677089 0.993944 0.072050
C136  C     C_R   0.683952 0.238664 0.961439 0.076431
C137  C     C_R   0.823984 0.730756 0.064786 0.061353
C138  C     C_R   0.261770 0.183829 0.984831 0.082098
C139  C     C_R   0.176886 0.731768 0.939612 0.066402
C140  C     C_R   0.738485 0.184187 0.016055 0.078542
C141  C     C_R   0.239066 0.315205 0.017728 0.077484
C142  C     C_R   0.676264 0.769140 0.936393 0.069806
C143  C     C_R   0.762286 0.316715 0.986150 0.082124
C144  C     C_R   0.323048 0.767836 0.060287 0.075888
C145  C     C_R   0.195957 0.195908 0.946113 -0.129497
C146  C     C_R   0.803972 0.804115 0.054053 -0.131326
C147  C     C_R   0.804366 0.196304 0.054968 -0.126550
C148  C     C_R   0.196189 0.804186 0.946367 -0.137259
C149  C     C_R   0.696141 0.695857 0.946457 -0.124856
C150  C     C_R   0.304309 0.303702 0.055002 -0.127705
C151  C     C_R   0.303775 0.695569 0.053743 -0.138779
C152  C     C_R   0.695937 0.304113 0.946016 -0.127929
H33   H     H_    0.940639 0.749828 0.168087 0.147856
H34   H     H_    0.231721 0.078326 0.921775 0.125518
H35   H     H_    0.061308 0.752697 0.840137 0.139218
H36   H     H_    0.767014 0.076561 0.074711 0.118478
H37   H     H_    0.268136 0.422022 0.077999 0.118752
H38   H     H_    0.559756 0.749960 0.833550 0.143914
H39   H     H_    0.732929 0.423273 0.925140 0.125474
H40   H     H_    0.438099 0.746222 0.157752 0.131817
H41   H     H_    0.972903 0.623308 0.189043 0.159508
H42   H     H_    0.347032 0.058858 0.992575 0.147459
H43   H     H_    0.030913 0.628041 0.830466 0.151405
H44   H     H_    0.654639 0.060168 0.010914 0.156532
H45   H     H_    0.157273 0.437084 0.017787 0.155571
H46   H     H_    0.528128 0.876256 0.815857 0.155212
H47   H     H_    0.849032 0.443490 0.998147 0.162261
H48   H     H_    0.469558 0.871336 0.170860 0.145238
H49   H     H_    0.077206 0.231992 0.886176 0.113905
H50   H     H_    0.749463 0.939907 0.023478 0.137900
H51   H     H_    0.929788 0.239175 0.131631 0.115736
H52   H     H_    0.250249 0.939006 0.974094 0.135834
H53   H     H_    0.751538 0.559453 0.980034 0.139862
H54   H     H_    0.429137 0.260931 0.130111 0.115019
H55   H     H_    0.251025 0.561596 0.029964 0.135416
H56   H     H_    0.575650 0.266899 0.882487 0.113697
H57   H     H_    0.081262 0.762661 0.130590 0.209475
H58   H     H_    0.944340 0.243379 0.894093 0.158657
H59   H     H_    0.560581 0.741946 0.112806 0.165375
H60   H     H_    0.453291 0.255547 0.901429 0.158148
C153  C     C_R   0.955155 0.127557 0.007479 -0.166928
C154  C     C_R   0.042463 0.871134 0.988815 -0.170443
C155  C     C_R   0.459516 0.370608 0.011012 -0.170494
C156  C     C_R   0.545922 0.628623 0.994256 -0.204868
C157  C     C_R   0.940825 0.191808 0.965663 0.445166
C158  C     C_R   0.063452 0.808311 0.036851 0.370391
C159  C     C_R   0.447630 0.306249 0.971165 0.446321
C160  C     C_R   0.563097 0.691673 0.039628 0.446059
C161  C     C_R   0.954029 0.194004 0.925639 -0.124126
C162  C     C_R   0.064082 0.809893 0.091622 -0.138607
C163  C     C_R   0.461205 0.304962 0.931542 -0.124416
C164  C     C_R   0.549494 0.693378 0.079267 -0.172024
C165  C     C_R   0.974626 0.131096 0.920029 -0.154988
C166  C     C_R   0.042836 0.872314 0.097060 -0.166360
C167  C     C_R   0.479626 0.368746 0.924210 -0.150209
C168  C     C_R   0.526785 0.630833 0.082136 -0.169650
C169  C     C_R   0.985113 0.064782 0.957449 0.100307
C170  C     C_R   0.021825 0.936121 0.049107 0.068932
C171  C     C_R   0.487564 0.435080 0.959536 0.108280
C172  C     C_R   0.515362 0.565105 0.043269 0.101173
C173  C     C_R   0.979558 0.063940 0.006063 0.044643
C174  C     C_R   0.022089 0.935627 0.995002 0.033643
C175  C     C_R   0.481687 0.435168 0.007834 0.040530
C176  C     C_R   0.520894 0.565025 0.994588 0.003545
C177  C     C_R   0.002092 0.999660 0.948352 -0.071813
C178  C     C_R   0.999437 0.999933 0.052865 -0.074873
C179  C     C_R   0.502920 0.500852 0.949295 -0.080616
C180  C     C_R   0.497865 0.499771 0.051377 -0.073055
H61   H     H_    0.947465 0.128330 0.041359 0.145741
H62   H     H_    0.041767 0.868930 0.946220 0.159395
H63   H     H_    0.451166 0.369427 0.044175 0.143007
H64   H     H_    0.553767 0.629465 0.960549 0.169329
H65   H     H_    0.981415 0.134894 0.885230 0.115118
H66   H     H_    0.043124 0.869744 0.139255 0.155187
H67   H     H_    0.486814 0.365567 0.889810 0.116740
H68   H     H_    0.519858 0.634252 0.116807 0.122542
O53   O     O_3   0.119167 0.065843 0.664955 -0.585613
C181  C     C_3   0.166684 0.100083 0.677388 0.137402
H69   H     H_    0.149584 0.157669 0.655561 0.214972
H70   H     H_    0.168493 0.073173 0.640466 0.144080
C182  C     C_3   0.243431 0.099185 0.776651 -0.653238
H71   H     H_    0.261213 0.042229 0.801446 0.260386
H72   H     H_    0.281909 0.125000 0.787590 0.247456
H73   H     H_    0.244710 0.129664 0.815130 0.274282
O54   O     O_3   0.883912 0.932922 0.338403 -0.585627
C183  C     C_3   0.838039 0.896930 0.327847 0.128507
H74   H     H_    0.839725 0.920230 0.369425 0.161055
H75   H     H_    0.853934 0.838643 0.345376 0.215005
C184  C     C_3   0.759835 0.901783 0.230297 -0.629182
H76   H     H_    0.754743 0.874865 0.186784 0.273533
H77   H     H_    0.723096 0.874412 0.221496 0.242028
H78   H     H_    0.743130 0.959687 0.210018 0.266441
O55   O     O_3   0.608918 0.420526 0.654821 -0.585247
C185  C     C_3   0.656542 0.385721 0.667579 0.134886
H79   H     H_    0.658112 0.411246 0.630030 0.155681
H80   H     H_    0.639526 0.328078 0.646313 0.213679
C186  C     C_3   0.733327 0.387275 0.766867 -0.627225
H81   H     H_    0.735005 0.357117 0.805838 0.272490
H82   H     H_    0.772140 0.361664 0.778196 0.247657
H83   H     H_    0.750503 0.444374 0.790949 0.268735
O56   O     O_3   0.388827 0.580179 0.345347 -0.583764
C187  C     C_3   0.348718 0.621114 0.341689 0.144102
H84   H     H_    0.371813 0.676826 0.366988 0.199515
H85   H     H_    0.348341 0.596820 0.380901 0.173755
C188  C     C_3   0.270075 0.627245 0.244761 -0.665960
H86   H     H_    0.245203 0.572303 0.217358 0.282682
H87   H     H_    0.238408 0.660660 0.241037 0.226513
H88   H     H_    0.267765 0.653505 0.203702 0.260957
N1    N     N_R   0.909946 0.253588 0.960652 0.200638
O57   O     O_R   0.919234 0.318855 0.951617 -0.395372
O58   O     O_R   0.863602 0.243677 0.951691 -0.391787
N2    N     N_R   0.083756 0.743112 0.029732 0.210730
O59   O     O_R   0.093774 0.682277 0.064579 -0.360332
O60   O     O_R   0.091542 0.743709 0.987400 -0.430795
N3    N     N_R   0.418038 0.243601 0.966827 0.199563
O61   O     O_R   0.429790 0.178690 0.960160 -0.402822
O62   O     O_R   0.369585 0.252301 0.954567 -0.387489
N4    N     N_R   0.597012 0.752676 0.048628 0.263180
O63   O     O_R   0.594519 0.816976 0.067238 -0.359329
O64   O     O_R   0.634364 0.743547 0.043591 -0.345371
N5    N     N_R   0.130081 0.931137 0.597703 0.252707
O65   O     O_R   0.176444 0.908158 0.678605 -0.314445
O66   O     O_R   0.146265 0.926294 0.564952 -0.414653
N6    N     N_R   0.872201 0.065451 0.403995 0.237857
O67   O     O_R   0.829049 0.093599 0.326143 -0.323874
O68   O     O_R   0.847106 0.051996 0.424961 -0.485354
N7    N     N_R   0.001825 0.854306 0.534899 0.251549
O69   O     O_R   0.051810 0.809363 0.568923 -0.275141
O70   O     O_R   0.951620 0.831196 0.516106 -0.400691
N8    N     N_R   0.001563 0.144715 0.468510 0.254038
O71   O     O_R   0.952476 0.190048 0.436210 -0.281736
O72   O     O_R   0.051615 0.167668 0.486964 -0.398012
N9    N     N_R   0.484634 0.356105 0.451540 0.255023
O73   O     O_R   0.429332 0.317211 0.410997 -0.290422
O74   O     O_R   0.534253 0.326836 0.471816 -0.389085
N10   N     N_R   0.516508 0.644694 0.550019 0.247754
O75   O     O_R   0.569821 0.684086 0.585812 -0.292125
O76   O     O_R   0.470219 0.673436 0.535943 -0.386452
N11   N     N_R   0.364707 0.448275 0.397467 0.238538
O77   O     O_R   0.317347 0.427253 0.315649 -0.324002
O78   O     O_R   0.344049 0.457846 0.424498 -0.479217
N12   N     N_R   0.634873 0.553070 0.602402 0.235346
O79   O     O_R   0.682082 0.574716 0.683975 -0.322437
O80   O     O_R   0.655400 0.543920 0.575171 -0.475869
N13   N     N_R   0.161167 0.230306 0.222285 0.217506
O81   O     O_R   0.171922 0.268437 0.191258 -0.339168
O82   O     O_R   0.119444 0.173258 0.177844 -0.419473
N14   N     N_R   0.835024 0.773571 0.774569 0.227112
O83   O     O_R   0.822848 0.736704 0.804548 -0.304235
O84   O     O_R   0.877402 0.830164 0.819389 -0.387321
N15   N     N_R   0.786602 0.187382 0.728523 0.199612
O85   O     O_R   0.808116 0.119850 0.749673 -0.364191
O86   O     O_R   0.767151 0.216421 0.752959 -0.373277
N16   N     N_R   0.051212 0.659119 0.174839 0.188980
O87   O     O_R   0.044186 0.602005 0.138354 -0.340890
O88   O     O_R   0.998996 0.707191 0.123163 -0.417963
N17   N     N_R   0.715963 0.687727 0.273757 0.201354
O89   O     O_R   0.735954 0.717049 0.250139 -0.370569
O90   O     O_R   0.695221 0.620039 0.252985 -0.357929
N18   N     N_R   0.292250 0.305562 0.734644 0.200320
O91   O     O_R   0.274909 0.274341 0.760808 -0.365638
O92   O     O_R   0.312295 0.373446 0.755518 -0.374169
N19   N     N_R   0.444543 0.838823 0.821372 0.204332
O93   O     O_R   0.496286 0.790497 0.872159 -0.400624
O94   O     O_R   0.451637 0.895423 0.858418 -0.351621
N20   N     N_R   0.666728 0.276018 0.227005 0.218881
O95   O     O_R   0.680100 0.240248 0.197836 -0.337570
O96   O     O_R   0.624440 0.332875 0.182522 -0.406671

loop_
_geom_bond_atom_site_label_1
_geom_bond_atom_site_label_2
_geom_bond_distance
_ccdc_geom_bond_type
C98   C106  1.393079 A    
C86   C93   1.419674 A    
C134  C150  1.414144 A    
C186  H81   1.110944 S    
O55   C185  1.407419 S    
O26   C7    1.279692 A    
N19   O94   1.301613 A    
C66   H18   1.078788 S    
C166  C170  1.415960 A    
N17   O90   1.301621 A    
O30   C11   1.277884 A    
C170  C174  1.402347 A    
C169  C177  1.406918 A    
C127  H55   1.080735 S    
Zn12  O26   1.939293 S    
C114  C122  1.391820 A    
C78   C82   1.410663 A    
C97   C137  1.419792 A    
C176  C179  1.412452 A    
C21   C38   1.467533 S    
C183  H74   1.114415 S    
C76   C92   1.422580 A    
C130  C146  1.416706 A    
C27   C34   1.542794 S    
Zn3   O15   1.938437 S    
C100  C108  1.393812 A    
C132  C144  1.412609 A    
C33   C37   1.547119 S    
C42   C50   1.386528 A    
C74   C90   1.416831 A    
O11   C7    1.278516 A    
C103  H39   1.082173 S    
O34   C15   1.282223 A    
C47   C55   1.393117 A    
C41   C49   1.387054 A    
H60   C163  1.082931 S    
Zn1   O44   1.952159 S    
C25   C33   1.543875 S    
C11   C92   1.460486 S    
C44   C52   1.389942 A    
C187  H84   1.110232 S    
C63   N20   1.440410 S    
C167  C171  1.415961 A    
C161  C165  1.390681 A    
Zn5   O48   1.952159 S    
C139  C148  1.415911 A    
Zn6   O47   1.952159 S    
Zn15  O3    1.955242 S    
C116  C124  1.392990 A    
Zn7   O46   1.951212 S    
C123  H51   1.082044 S    
H27   C116  1.078898 S    
O16   C12   1.279931 A    
C78   C94   1.424374 A    
N3    O61   1.301341 A    
Zn16  O4    1.955244 S    
N2    O59   1.301508 A    
Zn12  O4    1.951492 S    
C183  C184  1.520057 S    
Zn1   O13   1.942576 S    
C188  H88   1.110976 S    
C26   C28   1.533873 S    
C26   N6    1.454492 S    
Zn4   O16   1.938438 S    
C73   C89   1.416845 A    
N20   O96   1.301197 A    
C43   H3    1.076502 S    
C7    C152  1.455701 S    
C62   C70   1.400852 A    
C186  H83   1.110375 S    
Zn6   O4    1.955119 S    
C49   H9    1.077681 S    
H58   C161  1.082906 S    
C181  C182  1.521558 S    
C25   N5    1.458222 S    
C142  C149  1.417199 A    
C125  H53   1.079710 S    
C131  C147  1.414104 A    
C22   C37   1.470277 S    
Zn16  O34   1.939590 S    
C42   C82   1.417558 A    
C187  C188  1.520505 S    
Zn10  O22   1.939293 S    
C60   C68   1.399058 A    
O25   C8    1.278475 A    
Zn13  O29   1.939593 S    
C185  C186  1.522324 S    
C171  C179  1.407217 A    
C77   C93   1.423064 A    
C128  H56   1.082297 S    
C138  C145  1.413190 A    
O29   C12   1.280813 A    
C155  H63   1.082169 S    
Zn15  O33   1.939593 S    
C48   C88   1.417684 A    
N16   O87   1.301596 A    
C154  C174  1.418256 A    
C2    C145  1.458831 S    
C61   C69   1.400541 A    
C58   C66   1.400962 A    
C182  H71   1.110598 S    
C35   C39   1.544351 S    
O48   C23   1.283344 A    
C46   C86   1.416544 A    
N13   O82   1.301063 A    
C15   C96   1.460116 S    
C54   C58   1.393906 A    
N1    O57   1.301352 A    
C82   C89   1.414440 A    
C13   C94   1.463693 S    
C41   C81   1.417187 A    
Zn16  O35   1.942778 S    
C67   H19   1.081817 S    
C99   H35   1.080636 S    
N8    O71   1.299986 A    
C105  C117  1.385106 A    
Zn7   O10   1.941040 S    
O33   C16   1.279671 A    
Zn10  O2    1.951492 S    
C134  C138  1.414266 A    
C153  H61   1.081792 S    
O40   C20   1.263043 A    
C102  C142  1.419504 A    
C157  C161  1.395233 A    
N6    O67   1.300374 A    
C43   C51   1.391179 A    
C181  H70   1.114747 S    
C24   C39   1.466548 S    
C55   C59   1.399431 A    
N14   O83   1.301678 A    
Zn5   O17   1.942576 S    
C140  C147  1.413747 A    
C51   C63   1.392504 A    
C49   C61   1.391252 A    
C81   C90   1.414306 A    
C129  C145  1.413892 A    
C98   H34   1.082250 S    
C67   C75   1.416873 A    
C84   C91   1.410612 A    
C25   C27   1.535083 S    
C27   N7    1.460158 S    
C184  H77   1.109379 S    
C57   N14   1.440376 S    
C103  C111  1.393234 A    
O28   C5    1.283142 A    
C136  C152  1.413657 A    
C101  C109  1.393863 A    
C107  C119  1.387005 A    
N10   O76   1.300183 A    
C36   O56   1.412702 S    
H30   C117  1.080083 S    
C32   C40   1.550128 S    
Zn8   O3    1.957004 S    
C80   C96   1.414891 A    
C164  C168  1.390954 A    
C55   H15   1.082616 S    
O38   C18   1.264772 A    
C185  H79   1.113565 S    
C53   H13   1.081406 S    
C19   C180  1.432171 S    
O5    C1    1.279249 A    
C132  C148  1.416796 A    
O32   C9    1.278018 A    
C76   C88   1.409696 A    
C79   C83   1.409578 A    
C53   C57   1.393513 A    
C130  C142  1.413583 A    
C25   C38   1.549796 S    
C75   C87   1.412553 A    
C182  H73   1.110736 S    
Zn15  O51   1.950439 S    
C111  H47   1.082238 S    
Zn11  O28   1.943600 S    
C74   C86   1.411081 A    
N4    O64   1.302037 A    
C26   C34   1.539970 S    
C16   C95   1.453771 S    
C100  H36   1.082152 S    
C65   H17   1.078535 S    
N3    O62   1.299849 A    
C186  H82   1.109482 S    
C6    C149  1.459549 S    
O8    C4    1.276642 A    
N15   O86   1.301223 A    
C62   N17   1.438392 S    
C162  C166  1.392561 A    
C80   C84   1.410846 A    
N18   O91   1.301250 A    
C99   C139  1.418737 A    
O50   C18   1.273776 A    
O37   C17   1.269378 A    
C175  C180  1.412315 A    
Zn1   O1    1.955117 S    
C126  C134  1.415885 A    
Zn13  O1    1.955242 S    
Zn2   O14   1.942575 S    
C79   C95   1.416014 A    
N17   O89   1.301497 A    
C73   C85   1.410891 A    
C105  H41   1.082257 S    
C70   C78   1.423940 A    
C118  C126  1.393849 A    
O9    C5    1.276827 A    
O39   C19   1.265034 A    
O36   C13   1.276357 A    
H26   C113  1.082629 S    
C101  H37   1.082223 S    
C63   C71   1.399946 A    
O13   C9    1.281685 A    
C122  C130  1.419337 A    
Zn1   O8    1.937684 S    
C110  H46   1.082101 S    
H59   C164  1.082843 S    
C60   N15   1.438490 S    
Zn2   O7    1.937681 S    
C169  C173  1.401142 A    
Zn3   O6    1.941040 S    
C183  H75   1.110393 S    
O18   C14   1.287223 A    
C58   N13   1.440265 S    
O6    C2    1.278954 A    
C165  H65   1.082469 S    
C117  C125  1.391970 A    
C17   C178  1.432961 S    
C26   C37   1.547049 S    
N12   O79   1.300314 A    
C168  H68   1.082429 S    
C144  C151  1.414237 A    
C97   C105  1.390940 A    
H32   C119  1.080636 S    
C133  C149  1.417583 A    
N11   O77   1.300342 A    
Zn14  O30   1.939590 S    
C109  H45   1.082259 S    
N5    O66   1.300147 A    
Zn11  O3    1.951492 S    
O41   C21   1.281785 A    
C160  C164  1.396593 A    
C69   C77   1.422897 A    
C70   H22   1.074887 S    
C59   C67   1.404110 A    
N9    O74   1.300230 A    
C187  H85   1.114891 S    
C155  C175  1.416133 A    
C48   H8    1.080037 S    
C31   N11   1.456182 S    
Zn8   O20   1.938438 S    
C34   O54   1.411784 S    
C98   C138  1.415928 A    
C51   H11   1.080001 S    
C113  C121  1.393449 A    
C52   H12   1.082674 S    
N19   O93   1.298670 A    
C88   C95   1.415143 A    
N2    O60   1.300870 A    
C44   C84   1.414654 A    
C188  H87   1.110546 S    
H28   C115  1.082625 S    
C69   H21   1.075681 S    
C9    C90   1.457022 S    
C56   C60   1.390219 A    
C31   C36   1.541857 S    
C28   C33   1.545009 S    
Zn8   O9    1.941042 S    
C3    C148  1.456898 S    
C104  C144  1.418877 A    
C123  C131  1.416307 A    
C33   O53   1.411925 S    
C153  C157  1.401962 A    
C158  C162  1.396709 A    
C155  C159  1.401890 A    
C72   H24   1.081656 S    
O7    C3    1.280295 A    
C156  C160  1.403427 A    
C47   H7    1.082438 S    
C99   C107  1.391794 A    
O19   C15   1.281446 A    
C45   H5    1.077020 S    
O56   C187  1.410797 S    
C32   C35   1.542251 S    
C30   C39   1.551288 S    
Zn6   O18   1.942575 S    
C43   C83   1.416269 A    
Zn10  O23   1.943597 S    
C100  C140  1.416298 A    
C50   C62   1.390548 A    
C66   C74   1.420984 A    
C129  C141  1.415009 A    
C68   H20   1.075064 S    
N7    O70   1.300190 A    
Zn15  O36   1.942778 S    
O15   C11   1.287375 A    
O42   C22   1.284658 A    
C41   H1    1.080415 S    
C32   N12   1.456282 S    
Zn4   O1    1.957004 S    
C59   N16   1.440881 S    
C30   C32   1.534699 S    
Zn9   O37   1.952413 S    
O12   C8    1.279822 A    
C36   C40   1.547591 S    
Zn11  O39   1.952413 S    
N13   O81   1.301689 A    
C54   H14   1.081400 S    
C48   C56   1.387198 A    
Zn2   O43   1.952159 S    
C135  C139  1.412697 A    
C23   C40   1.470262 S    
C141  C150  1.414066 A    
C12   C91   1.454480 S    
N8    O72   1.300248 A    
C120  C128  1.393552 A    
C75   C91   1.414562 A    
Zn5   O3    1.955117 S    
C64   C72   1.403843 A    
C31   C39   1.546102 S    
C65   C73   1.421435 A    
C108  H44   1.082458 S    
C85   C94   1.420399 A    
C125  C133  1.419659 A    
C102  H38   1.080058 S    
C68   C76   1.423674 A    
C104  H40   1.080787 S    
C28   N8    1.459708 S    
C173  C178  1.413363 A    
C46   C54   1.391201 A    
N6    O68   1.299205 A    
C137  C146  1.416791 A    
Zn9   O24   1.943600 S    
C165  C169  1.415972 A    
O54   C183  1.407930 S    
C109  C113  1.389913 A    
Zn3   O42   1.951212 S    
C35   O55   1.411887 S    
C1    C146  1.458892 S    
C168  C172  1.415193 A    
N14   O84   1.301124 A    
Zn7   O4    1.957003 S    
O21   C4    1.282153 A    
C121  C129  1.416210 A    
N20   O95   1.302023 A    
C126  H54   1.082067 S    
C119  C127  1.392636 A    
C8    C151  1.455278 S    
C171  C175  1.401665 A    
C77   C81   1.410863 A    
C172  C176  1.402158 A    
C108  C120  1.389874 A    
C111  C115  1.389242 A    
Zn2   O2    1.955119 S    
C184  H76   1.110960 S    
Zn14  O2    1.955244 S    
C163  C167  1.390597 A    
N7    O69   1.299978 A    
C135  C151  1.415609 A    
C72   C80   1.413637 A    
C156  H64   1.081778 S    
N15   O85   1.301567 A    
Zn13  O49   1.950439 S    
O44   C21   1.272806 A    
C106  C118  1.388998 A    
C106  H42   1.081820 S    
C174  C177  1.410895 A    
C71   C79   1.422021 A    
C4    C147  1.456690 S    
Zn12  O27   1.943597 S    
C124  C132  1.418515 A    
C185  H80   1.110282 S    
N11   O78   1.299504 A    
C103  C143  1.416328 A    
C44   H4    1.082274 S    
C101  C141  1.415952 A    
Zn3   O2    1.957003 S    
C27   C37   1.551585 S    
C166  H66   1.081957 S    
C64   N19   1.435978 S    
C18   C177  1.428378 S    
C112  C116  1.386299 A    
C182  H72   1.109966 S    
O46   C24   1.269427 A    
Zn4   O41   1.951212 S    
C158  N2    1.439545 S    
C30   N10   1.460879 S    
Zn16  O52   1.950442 S    
C159  N3    1.431858 S    
Zn8   O45   1.951212 S    
C172  C180  1.408925 A    
O27   C6    1.279775 A    
C97   H33   1.079869 S    
N1    O58   1.300035 A    
C29   C40   1.552995 S    
C104  C112  1.390533 A    
O53   C181  1.407645 S    
C102  C110  1.391722 A    
C71   H23   1.078357 S    
C154  H62   1.081400 S    
H31   C120  1.082638 S    
C29   C31   1.534484 S    
C29   N9    1.459297 S    
H29   C118  1.082641 S    
C56   H16   1.075713 S    
O24   C1    1.280627 A    
C124  H52   1.080433 S    
N18   O92   1.301512 A    
H57   C162  1.080555 S    
C110  C114  1.385800 A    
C136  C140  1.413675 A    
O43   C22   1.271170 A    
O14   C10   1.281484 A    
O47   C24   1.284401 A    
C131  C143  1.413123 A    
C181  H69   1.109933 S    
Zn5   O12   1.937684 S    
C10   C89   1.456663 S    
Zn6   O11   1.937681 S    
C167  H67   1.082492 S    
Zn9   O21   1.939292 S    
Zn14  O50   1.950442 S    
C45   C53   1.391021 A    
C61   N18   1.438043 S    
C29   C35   1.542935 S    
O35   C14   1.276740 A    
C50   H10   1.077675 S    
Zn12  O40   1.952411 S    
N16   O88   1.301668 A    
C170  C178  1.412903 A    
Zn9   O1    1.951492 S    
C154  C158  1.402285 A    
O52   C20   1.277408 A    
C184  H78   1.110634 S    
C159  C163  1.395231 A    
C153  C173  1.417149 A    
C121  H49   1.082323 S    
N10   O75   1.300048 A    
C5    C150  1.459941 S    
C57   C65   1.400699 A    
C46   H6    1.077497 S    
C28   C38   1.551604 S    
O22   C3    1.279033 A    
C156  C176  1.417702 A    
N12   O80   1.299474 A    
C143  C152  1.413116 A    
C47   C87   1.413591 A    
C52   C64   1.396643 A    
Zn7   O19   1.938437 S    
C112  H48   1.082691 S    
C45   C85   1.416956 A    
C115  C123  1.394076 A    
Zn13  O32   1.942778 S    
O49   C17   1.272133 A    
Zn14  O31   1.942778 S    
C14   C93   1.463276 S    
C87   C96   1.414773 A    
C127  C135  1.418502 A    
N5    O65   1.300319 A    
O51   C19   1.276012 A    
C133  C137  1.413511 A    
O31   C10   1.278066 A    
C83   C92   1.420082 A    
N9    O73   1.300000 A    
C157  N1    1.432650 S    
Zn4   O5    1.941042 S    
C42   H2    1.080213 S    
C107  H43   1.082655 S    
O20   C16   1.281156 A    
C30   C36   1.543783 S    
O10   C6    1.280542 A    
O23   C2    1.280369 A    
C34   C38   1.544377 S    
C160  N4    1.436317 S    
N4    O63   1.301300 A    
Zn10  O38   1.952411 S    
C128  C136  1.416532 A    
H25   C114  1.081001 S    
C122  H50   1.080023 S    
C20   C179  1.430649 S    
Zn11  O25   1.939292 S    
C188  H86   1.110663 S    
O17   C13   1.288009 A    
O45   C23   1.272621 A    
