data_mof_unit_44860.cif
_audit_creation_date              2012-12-10T17:47:41-0500
_audit_creation_method            fapswitch 2.2
_symmetry_space_group_name_H-M    P1
_symmetry_Int_Tables_number       1
_space_group_crystal_system       triclinic
_cell_length_a                    10.851095
_cell_length_b                    10.796655
_cell_length_c                    9.991861
_cell_angle_alpha                 89.752552
_cell_angle_beta                  88.171465
_cell_angle_gamma                 97.754045
_cell_volume                      1159.263635

loop_
_atom_site_label
_atom_site_type_symbol
_atom_type_description
_atom_site_fract_x
_atom_site_fract_y
_atom_site_fract_z
_atom_type_partial_charge
C1    C     C_R   0.514596 0.263109 0.501502 0.983972
C2    C     C_3   0.879927 0.511380 0.499899 -0.002534
C3    C     C_3   0.948306 0.614739 0.403236 -0.241050
C4    C     C_3   0.910582 0.384923 0.445871 -0.546626
C5    C     C_R   0.548745 0.127969 0.765782 0.509301
C6    C     C_R   0.500044 0.055043 0.876982 -0.331008
C7    C     C_R   0.491484 0.926330 0.868510 -0.051731
C8    C     C_R   0.547224 0.878623 0.756171 0.038362
C9    C     C_R   0.542126 0.940992 0.632051 -0.075896
C10   C     C_R   0.546831 0.071563 0.635026 -0.021472
C11   C     C_R   0.546675 0.136290 0.509143 -0.249388
C12   C     C_R   0.257819 0.500332 0.501693 0.903174
C13   C     C_R   0.572153 0.076489 0.388228 0.415096
C14   C     C_R   0.575040 0.947909 0.388644 0.332260
C15   C     C_R   0.543714 0.878249 0.507024 -0.242766
C16   C     C_R   0.299316 0.363017 0.148066 0.463631
C17   C     C_R   0.185839 0.334365 0.087801 -0.503238
C18   C     C_R   0.182574 0.329560 0.950392 0.434296
C19   C     C_R   0.293725 0.361530 0.874575 0.022280
C20   C     C_R   0.399653 0.433450 0.932467 -0.071457
C21   C     C_R   0.400747 0.433711 0.076875 0.091424
C22   C     C_R   0.595493 0.560338 0.065365 0.037621
C23   C     C_R   0.513230 0.741421 0.500718 0.897588
C24   C     C_R   0.596473 0.556654 0.923871 -0.132614
C25   C     C_R   0.742610 0.507101 0.498892 0.865610
C26   C     C_3   0.073348 0.553034 0.640925 0.175387
C27   C     C_3   0.929617 0.532667 0.647212 0.306732
C28   C     C_3   0.091172 0.604213 0.395463 -0.307809
C29   C     C_3   0.049739 0.376315 0.462733 -0.239033
C30   C     C_3   0.121599 0.506824 0.503405 -0.023821
H1    H     H_    0.106580 0.655404 0.646641 0.134140
H2    H     H_    0.888991 0.376356 0.337721 0.210097
H3    H     H_    0.112451 0.567184 0.294606 0.176812
H4    H     H_    0.914478 0.594595 0.301429 0.166870
H5    H     H_    0.483840 0.097953 0.972715 0.158980
H6    H     H_    0.105290 0.292233 0.146380 0.154981
H7    H     H_    0.676554 0.599877 0.866502 0.180001
H8    H     H_    0.088045 0.350192 0.364670 0.145122
H9    H     H_    0.848996 0.306051 0.496362 0.191834
N1    N     N_R   0.498810 0.498800 0.142780 -0.108084
N2    N     N_R   0.498760 0.498720 0.857170 -0.098386
O1    O     O_R   0.500000 0.316780 0.614690 -0.603547
O2    O     O_R   0.499990 0.316750 0.385360 -0.491373
O3    O     O_R   0.314800 0.499990 0.614670 -0.577698
O4    O     O_R   0.314790 0.499970 0.385330 -0.598792
O5    O     O_R   0.500010 0.683250 0.614640 -0.626427
O6    O     O_R   0.500000 0.683220 0.385310 -0.588385
O7    O     O_R   0.685210 0.500030 0.614670 -0.584812
O8    O     O_R   0.685200 0.500010 0.385330 -0.644505
Zn1   Zn    Zn3+2 0.500010 0.500020 0.653130 1.000426
Zn2   Zn    Zn3+2 0.499990 0.499980 0.346870 1.027067
O9    O     O_3   0.597248 0.146842 0.271698 -0.741701
H10   H     H_    0.604832 0.092230 0.193425 0.374139
O10   O     O_3   0.613394 0.244533 0.787619 -0.733780
H11   H     H_    0.605251 0.266265 0.883618 0.328086
C31   C     C_1   0.455119 0.849120 0.985011 0.229959
N3    N     N_1   0.424708 0.787142 0.078184 -0.144690
C32   C     C_1   0.666723 0.841399 0.781732 0.217800
N4    N     N_1   0.764904 0.818487 0.804155 -0.155999
O11   O     O_3   0.612573 0.893003 0.273287 -0.758155
H12   H     H_    0.668641 0.833540 0.301265 0.352574
C33   C     C_1   0.698417 0.635654 0.123064 0.222776
N5    N     N_1   0.783295 0.699122 0.162968 -0.247919
O12   O     O_3   0.120848 0.496228 0.750694 -0.743790
H13   H     H_    0.113171 0.551517 0.828928 0.321736
O13   O     O_3   0.316233 0.303171 0.265585 -0.704283
H14   H     H_    0.244029 0.239169 0.288542 0.312971
O14   O     O_3   0.078140 0.270055 0.889741 -0.717888
H15   H     H_    0.011184 0.244886 0.958270 0.345649
C34   C     C_1   0.301374 0.272392 0.770176 0.381215
N6    N     N_1   0.298243 0.192907 0.692541 -0.220703
C35   C     C_1   0.883425 0.424484 0.736463 0.335399
N7    N     N_1   0.849759 0.341191 0.807378 -0.142775
O15   O     O_3   0.887954 0.639718 0.702284 -0.792019
H16   H     H_    0.921860 0.651921 0.793352 0.323614
C36   C     C_1   0.171636 0.726632 0.402637 0.200189
N8    N     N_1   0.234232 0.822037 0.408115 -0.183712
C37   C     C_1   0.917707 0.740790 0.437946 0.292482
N9    N     N_1   0.893636 0.839074 0.464971 -0.183848
C38   C     C_1   0.059215 0.271019 0.553739 0.285461
N10   N     N_1   0.059034 0.184416 0.622136 -0.113403

loop_
_geom_bond_atom_site_label_1
_geom_bond_atom_site_label_2
_ccdc_geom_bond_type
C16   C21   A    
C19   C20   A    
C1    C11   S    
C20   N2    A    
C7    C8    A    
C31   N3    T    
C29   C38   S    
C26   C27   S    
C33   N5    T    
C3    C28   S    
C5    C6    A    
C38   N10   T    
O4    Zn2   S    
C18   O14   S    
C6    H5    S    
C18   C19   A    
C26   O12   S    
C8    C32   S    
O14   H15   S    
C1    O2    A    
C8    C9    A    
O8    Zn2   S    
C29   H8    S    
C2    C27   S    
C17   H6    S    
C27   O15   S    
C9    C10   A    
C4    C29   S    
C15   C23   S    
O13   H14   S    
C26   H1    S    
C23   O5    A    
C13   C14   A    
C24   N2    A    
C7    C31   S    
C24   H7    S    
C23   O6    A    
O15   H16   S    
C5    O10   S    
C36   N8    T    
C37   N9    T    
C35   N7    T    
O6    Zn2   S    
C3    H4    S    
C32   N4    T    
O11   H12   S    
C2    C4    S    
C29   C30   S    
C22   C33   S    
C13   O9    S    
C4    H9    S    
C22   N1    A    
C17   C18   A    
C25   O7    A    
C4    H2    S    
O1    Zn1   S    
C28   H3    S    
C26   C30   S    
C22   C24   A    
C16   O13   S    
C28   C36   S    
N2    Zn1   S    
C34   N6    T    
O9    H10   S    
O3    Zn1   S    
O10   H11   S    
C12   C30   S    
C12   O4    A    
C6    C7    A    
N1    Zn2   S    
C14   O11   S    
O5    Zn1   S    
O12   H13   S    
C28   C30   S    
C2    C3    S    
C9    C15   A    
C5    C10   A    
C12   O3    A    
C11   C13   A    
O2    Zn2   S    
C16   C17   A    
C21   N1    A    
O7    Zn1   S    
C2    C25   S    
C25   O8    A    
C10   C11   A    
C1    O1    A    
C20   C21   A    
C14   C15   A    
C19   C34   S    
C3    C37   S    
C27   C35   S    
