data_mof_unit_6586.cif
_audit_creation_date              2012-12-11T17:33:50-0500
_audit_creation_method            fapswitch 2.2
_symmetry_space_group_name_H-M    P1
_symmetry_Int_Tables_number       1
_space_group_crystal_system       triclinic
_cell_length_a                    19.932506
_cell_length_b                    19.966215
_cell_length_c                    20.678669
_cell_angle_alpha                 107.018795
_cell_angle_beta                  107.654812
_cell_angle_gamma                 111.356677
_cell_volume                      6506.51622064

loop_
_atom_site_label
_atom_site_type_symbol
_atom_type_description
_atom_site_fract_x
_atom_site_fract_y
_atom_site_fract_z
_atom_type_partial_charge
C1    C     C_R   0.313858 0.269622 0.345038 -0.128869
C2    C     C_R   0.271591 0.430043 0.500492 -0.151956
C3    C     C_R   0.801475 0.421592 0.737545 -0.084602
C4    C     C_R   0.766950 0.471305 0.743278 -0.129256
C5    C     C_R   0.689440 0.444109 0.687464 -0.147804
C6    C     C_R   0.345596 0.216343 0.482392 0.121943
C7    C     C_R   0.312188 0.132068 0.445376 -0.173150
C8    C     C_R   0.232601 0.080360 0.427875 -0.122030
C9    C     C_R   0.185413 0.112127 0.446694 -0.079254
C10   C     C_R   0.217764 0.195649 0.482960 -0.127673
C11   C     C_R   0.297394 0.247494 0.500663 -0.149412
C12   C     C_R   0.554661 0.534538 0.718862 -0.138128
C13   C     C_R   0.694151 0.528627 0.458549 -0.149969
C14   C     C_R   0.431248 0.665683 0.474362 -0.132994
C15   C     C_R   0.484093 0.519939 0.726144 0.054947
C16   C     C_R   0.497428 0.740317 0.526272 0.092957
C17   C     C_R   0.229395 0.458464 0.461553 0.113360
C18   C     C_R   0.761929 0.723546 0.715898 -0.009024
C19   C     C_3   0.552834 0.065347 0.545391 -0.411312
C20   C     C_3   0.408542 0.005462 0.522736 -0.435064
C21   C     C_R   0.713418 0.472465 0.470663 0.103104
C22   C     C_3   0.408677 0.928194 0.522565 -0.398832
C23   C     C_1   0.495879 0.812937 0.553029 -0.035784
C24   C     C_3   0.494822 0.079552 0.576061 0.367232
C25   C     C_R   0.445790 0.510116 0.289067 -0.134965
C26   C     C_3   0.554306 0.989248 0.546163 -0.394584
C27   C     C_3   0.495164 0.948720 0.574680 0.411841
C28   C     C_3   0.522558 0.008516 0.657284 -0.464183
C29   C     C_3   0.520438 0.086444 0.658219 -0.110631
C30   C     C_1   0.495269 0.874862 0.568601 -0.126138
C31   C     C_1   0.493801 0.149942 0.571509 -0.130484
C32   C     C_R   0.516026 0.554663 0.286218 0.048655
C33   C     C_1   0.494316 0.204450 0.559063 -0.008419
C34   C     C_3   0.863026 0.388566 0.340583 -0.459952
C35   C     C_3   0.894143 0.369802 0.462595 -0.108185
C36   C     C_3   0.970103 0.366424 0.459915 -0.500866
C37   C     C_R   0.564551 0.338375 0.564376 0.000109
C38   C     C_1   0.147807 0.436809 0.441800 -0.038209
C39   C     C_3   0.874615 0.421394 0.423430 0.345036
C40   C     C_3   0.940016 0.384766 0.340572 -0.113762
C41   C     C_3   0.005651 0.420304 0.424587 0.348617
C42   C     C_3   0.025925 0.507119 0.473079 -0.394915
C43   C     C_R   0.496342 0.265699 0.537373 -0.004427
C44   C     C_3   0.948380 0.508370 0.469355 -0.442158
C45   C     C_1   0.081155 0.424277 0.429901 -0.112871
C46   C     C_1   0.806402 0.428514 0.428047 -0.106023
C47   C     C_1   0.759631 0.444875 0.443126 -0.036375
C48   C     C_R   0.478785 0.556810 0.796131 0.145995
C49   C     C_R   0.580186 0.576817 0.353427 -0.140280
C50   C     C_R   0.548467 0.621696 0.862044 -0.191336
C51   C     C_R   0.545299 0.649959 0.930448 -0.168729
C52   C     C_R   0.472011 0.613448 0.933893 0.224179
C53   C     C_R   0.401138 0.554888 0.866723 -0.186657
C54   C     C_R   0.419340 0.467041 0.653801 -0.141720
C55   C     C_R   0.404339 0.526139 0.798391 -0.180076
C56   C     C_R   0.460049 0.612992 0.128056 -0.169528
C57   C     C_R   0.454961 0.586431 0.182473 -0.194138
C58   C     C_R   0.532927 0.641446 0.122319 0.225251
C59   C     C_R   0.522318 0.587986 0.232106 0.148467
C60   C     C_R   0.596286 0.621611 0.229563 -0.185007
C61   C     C_R   0.429718 0.270764 0.499623 -0.001813
C62   C     C_R   0.601452 0.648624 0.175466 -0.188371
C63   C     C_R   0.256895 0.189153 0.201755 0.149617
C64   C     C_R   0.224606 0.187530 0.130499 -0.190841
C65   C     C_R   0.566410 0.734071 0.540141 -0.131303
C66   C     C_R   0.179431 0.114528 0.064243 -0.168262
C67   C     C_R   0.165690 0.041727 0.068367 0.222765
C68   C     C_R   0.203149 0.044343 0.138707 -0.190177
C69   C     C_R   0.248972 0.117322 0.204844 -0.178212
C70   C     C_R   0.944001 0.858810 0.907293 -0.172291
C71   C     C_R   0.865543 0.801361 0.850669 -0.203360
C72   C     C_R   0.005075 0.895239 0.887973 0.226167
C73   C     C_R   0.689903 0.455972 0.522795 -0.129805
C74   C     C_R   0.846679 0.779429 0.774088 0.140525
C75   C     C_R   0.908687 0.811164 0.754536 -0.169105
C76   C     C_R   0.276010 0.501663 0.435617 -0.144627
C77   C     C_R   0.987016 0.870208 0.811329 -0.197375
C78   C     C_R   0.318881 0.341988 0.280625 -0.124244
C79   C     C_R   0.294757 0.264020 0.272596 0.031641
C80   C     C_R   0.755876 0.780336 0.619837 0.076221
C81   C     C_R   0.794285 0.863892 0.666406 -0.165107
C82   C     C_R   0.825638 0.918628 0.639714 -0.112971
C83   C     C_R   0.818672 0.890502 0.566365 -0.086736
C84   C     C_R   0.780443 0.807607 0.519677 -0.123171
C85   C     C_R   0.749164 0.752768 0.546280 -0.151946
C86   C     C_R   0.597994 0.165052 0.719275 0.168090
C87   C     C_R   0.713865 0.650996 0.712040 -0.166760
C88   C     C_R   0.675928 0.176527 0.732275 -0.151784
C89   C     C_R   0.745322 0.249760 0.788094 -0.131340
C90   C     C_R   0.738100 0.312765 0.831059 -0.067151
C91   C     C_R   0.661423 0.302665 0.818365 -0.084762
C92   C     C_R   0.591838 0.229335 0.763105 -0.164607
C93   C     C_R   0.821893 0.286822 0.433883 0.169815
C94   C     C_R   0.793229 0.221414 0.363528 -0.150326
C95   C     C_R   0.727195 0.146308 0.339250 -0.120723
C96   C     C_R   0.689085 0.135118 0.384781 -0.088088
C97   C     C_R   0.716933 0.199036 0.454737 -0.104343
C98   C     C_R   0.720807 0.722673 0.647641 0.028993
C99   C     C_R   0.782670 0.274444 0.479176 -0.172740
C100  C     C_R   0.971833 0.421318 0.293456 0.173563
C101  C     C_R   0.984578 0.498067 0.301052 -0.152305
C102  C     C_R   0.015612 0.530206 0.258229 -0.127084
C103  C     C_R   0.034396 0.486489 0.207367 -0.096158
C104  C     C_R   0.021992 0.410387 0.199055 -0.106781
C105  C     C_R   0.990864 0.377896 0.241633 -0.166425
C106  C     C_R   0.645479 0.366726 0.625602 0.121207
C107  C     C_R   0.680613 0.316982 0.620693 -0.151849
C108  C     C_R   0.758319 0.344468 0.676203 -0.104221
H1    H     H_    0.301773 0.220267 0.358767 0.115561
H2    H     H_    0.365448 0.899711 0.542718 0.155584
H3    H     H_    0.470572 0.086157 0.672217 0.101691
H4    H     H_    0.583569 0.021952 0.695666 0.159098
H5    H     H_    0.615117 0.118352 0.579110 0.153570
H6    H     H_    0.617078 0.005379 0.583370 0.150446
H7    H     H_    0.480805 0.979538 0.678497 0.152671
H8    H     H_    0.920867 0.319535 0.312873 0.093772
H9    H     H_    0.384738 0.493174 0.251894 0.083257
H10   H     H_    0.912830 0.404388 0.524110 0.106971
H11   H     H_    0.955978 0.303770 0.427090 0.160133
H12   H     H_    0.627154 0.783043 0.577314 0.126633
H13   H     H_    0.016372 0.388161 0.518857 0.161447
H14   H     H_    0.938083 0.547163 0.442832 0.162422
H15   H     H_    0.956849 0.536673 0.528449 0.161357
H16   H     H_    0.057470 0.550046 0.454232 0.160350
H17   H     H_    0.850838 0.427567 0.315422 0.162370
H18   H     H_    0.068646 0.529168 0.533557 0.161596
H19   H     H_    0.397686 0.563235 0.184196 0.110566
H20   H     H_    0.406037 0.607707 0.088470 0.121113
H21   H     H_    0.344363 0.526528 0.868513 0.116872
H22   H     H_    0.349089 0.476987 0.748682 0.110836
H23   H     H_    0.255698 0.521105 0.393533 0.099755
H24   H     H_    0.649463 0.623945 0.267018 0.110565
H25   H     H_    0.600960 0.696956 0.981249 0.121058
H26   H     H_    0.657699 0.669993 0.171499 0.116939
H27   H     H_    0.818741 0.776568 0.866757 0.119661
H28   H     H_    0.642406 0.622513 0.375704 0.081079
H29   H     H_    0.955682 0.878123 0.966160 0.124293
H30   H     H_    0.192854 0.988923 0.142796 0.118378
H31   H     H_    0.275236 0.116270 0.258327 0.114819
H32   H     H_    0.896482 0.791849 0.695604 0.134411
H33   H     H_    0.150564 0.114679 0.010741 0.123689
H34   H     H_    0.733435 0.626714 0.749700 0.098072
H35   H     H_    0.033215 0.897864 0.795674 0.122847
H36   H     H_    0.230091 0.241614 0.125794 0.111821
H37   H     H_    0.698531 0.415376 0.544254 0.119174
H38   H     H_    0.313893 0.360639 0.236218 0.092466
H39   H     H_    0.355740 0.444002 0.637884 0.092128
H40   H     H_    0.799176 0.886546 0.723013 0.120751
H41   H     H_    0.855020 0.982837 0.675786 0.105384
H42   H     H_    0.842832 0.932915 0.545698 0.098632
H43   H     H_    0.775066 0.785796 0.462858 0.103003
H44   H     H_    0.720544 0.689148 0.509851 0.113979
H45   H     H_    0.247039 0.384395 0.517750 0.088643
H46   H     H_    0.368357 0.650325 0.450306 0.100797
H47   H     H_    0.536971 0.946618 0.487528 0.159397
H48   H     H_    0.387912 0.998631 0.463568 0.162330
H49   H     H_    0.387245 0.884102 0.463185 0.158495
H50   H     H_    0.683727 0.129219 0.699795 0.105409
H51   H     H_    0.804831 0.257868 0.797654 0.101865
H52   H     H_    0.791928 0.369601 0.873841 0.093748
H53   H     H_    0.655845 0.351742 0.851325 0.105322
H54   H     H_    0.532983 0.223084 0.753984 0.104015
H55   H     H_    0.808112 0.328015 0.303978 0.155267
H56   H     H_    0.616295 0.572919 0.763572 0.090114
H57   H     H_    0.822180 0.227390 0.327532 0.100784
H58   H     H_    0.705859 0.096535 0.285191 0.108368
H59   H     H_    0.638174 0.076817 0.366004 0.098707
H60   H     H_    0.687633 0.189916 0.490098 0.095963
H61   H     H_    0.802791 0.323197 0.533519 0.104067
H62   H     H_    0.970259 0.533320 0.339493 0.105532
H63   H     H_    0.025097 0.589158 0.264514 0.105479
H64   H     H_    0.058528 0.511573 0.174370 0.097320
H65   H     H_    0.036693 0.376554 0.159698 0.104766
H66   H     H_    0.982472 0.319038 0.234655 0.101499
H67   H     H_    0.532032 0.057538 0.485877 0.156122
H68   H     H_    0.648598 0.257589 0.573029 0.103317
H69   H     H_    0.785078 0.305955 0.671569 0.101259
H70   H     H_    0.861545 0.442734 0.780684 0.093730
H71   H     H_    0.800313 0.531037 0.790874 0.105370
H72   H     H_    0.663853 0.483218 0.692908 0.114595
H73   H     H_    0.606216 0.649037 0.861866 0.112710
H74   H     H_    0.347114 0.106236 0.428733 0.110806
H75   H     H_    0.207380 0.015636 0.399314 0.104541
H76   H     H_    0.123736 0.072048 0.432983 0.097041
H77   H     H_    0.181149 0.220293 0.497398 0.103252
H78   H     H_    0.364306 0.013775 0.541805 0.159713
H79   H     H_    0.321151 0.311564 0.528853 0.115212
H80   H     H_    0.705891 0.555344 0.421930 0.100223
N1    N     N_R   0.350580 0.347460 0.395120 -0.040450
N2    N     N_2   0.536772 0.650127 0.057739 -0.107564
N3    N     N_2   0.102688 0.965671 0.007321 -0.108231
N4    N     N_R   0.656670 0.543450 0.500220 -0.049081
N5    N     N_2   0.079876 0.965118 0.943925 -0.108689
N6    N     N_R   0.466810 0.505630 0.355080 -0.036695
N7    N     N_R   0.540440 0.385280 0.540260 -0.067082
N8    N     N_R   0.550410 0.547340 0.395070 -0.038287
N9    N     N_R   0.456840 0.343580 0.500270 -0.067599
N10   N     N_R   0.653920 0.498790 0.540240 -0.042471
N11   N     N_R   0.353330 0.392130 0.355100 -0.038599
N12   N     N_R   0.543160 0.656420 0.499730 -0.043442
N13   N     N_R   0.449590 0.452660 0.604930 -0.045333
N14   N     N_R   0.346080 0.501210 0.459760 -0.039932
N15   N     N_R   0.646670 0.607870 0.644900 -0.043719
N16   N     N_R   0.649420 0.652540 0.604880 -0.057165
N17   N     N_R   0.343330 0.456550 0.499780 -0.040989
N18   N     N_R   0.533190 0.494370 0.644920 -0.044154
N19   N     N_R   0.459560 0.614720 0.459740 -0.042217
N20   N     N_2   0.469276 0.622262 0.003407 -0.108462
Ni1   Ni    Ni4+2 0.400980 0.400960 0.500020 0.209970
Ni2   Ni    Ni4+2 0.599020 0.599040 0.499980 0.212055
Ni3   Ni    Ni4+2 0.407290 0.503390 0.408250 0.210172
Ni4   Ni    Ni4+2 0.592710 0.496610 0.591750 0.207561

loop_
_geom_bond_atom_site_label_1
_geom_bond_atom_site_label_2
_ccdc_geom_bond_type
C69   H31   S    
C48   C55   A    
N6    N8    A    
N15   N16   A    
C58   C62   A    
C101  C102  A    
C41   C42   S    
C76   N14   A    
C68   H30   S    
C95   C96   A    
N14   Ni3   S    
C60   H24   S    
N3    N5    D    
C81   C82   A    
C36   C41   S    
C42   H16   S    
C7    C8    A    
C66   H33   S    
C63   C79   S    
C28   H4    S    
C55   H22   S    
C26   C27   S    
C93   C94   A    
C13   N4    A    
C11   H79   S    
C37   N7    A    
C6    C61   S    
C98   N16   A    
C28   C29   S    
C3    H70   S    
C75   H32   S    
C71   H27   S    
C76   H23   S    
C67   N3    S    
C57   C59   A    
C106  C107  A    
C19   H5    S    
C21   C73   A    
C10   H77   S    
C56   C57   A    
C60   C62   A    
C87   N15   A    
C36   H11   S    
C19   C26   S    
C24   C29   S    
C38   C45   T    
C103  C104  A    
C72   C77   A    
C1    H1    S    
N6    Ni3   S    
C63   C69   A    
C68   C69   A    
C22   H2    S    
N14   N17   A    
C2    H45   S    
C58   N2    S    
C17   C76   A    
C107  C108  A    
C31   C33   T    
C70   C71   A    
N4    N10   A    
N10   Ni4   S    
C9    C10   A    
C93   C99   A    
N11   Ni3   S    
C91   C92   A    
C83   H42   S    
N8    Ni2   S    
N1    N11   A    
C25   C32   A    
C48   C50   A    
C66   C67   A    
C59   C60   A    
C18   C74   S    
C13   H80   S    
C14   N19   A    
C96   C97   A    
C27   C30   S    
N19   Ni3   S    
C26   H47   S    
C102  C103  A    
C42   C44   S    
C15   C48   S    
C94   H57   S    
N13   Ni1   S    
C104  C105  A    
C97   C99   A    
C89   H51   S    
C6    C7    A    
C5    C106  A    
C53   C55   A    
C74   C75   A    
C34   C39   S    
C33   C43   S    
C23   C30   T    
C20   C24   S    
C84   C85   A    
C34   H55   S    
C61   N9    A    
C72   N5    S    
C21   C47   S    
C42   H18   S    
C78   C79   A    
C8    C9    A    
C64   H36   S    
N12   Ni2   S    
C67   C68   A    
C73   H37   S    
C35   C36   S    
C64   C66   A    
C37   C43   A    
C35   C39   S    
C77   H35   S    
C5    H72   S    
C57   H19   S    
C80   C85   A    
C28   H7    S    
C12   H56   S    
C65   N12   A    
C35   C93   S    
C83   C84   A    
C12   C15   A    
N17   Ni1   S    
N13   N18   A    
C81   H40   S    
N4    Ni2   S    
C73   N10   A    
C50   C51   A    
C100  C105  A    
C96   H59   S    
C13   C21   A    
C101  H62   S    
C2    N17   A    
C75   C77   A    
C15   C54   A    
C29   C86   S    
C39   C44   S    
C39   C46   S    
C8    H75   S    
N2    N20   D    
C40   C41   S    
C49   N8    A    
C49   H28   S    
C20   C22   S    
C16   C23   S    
C88   H50   S    
C22   C27   S    
C103  H64   S    
C1    C79   A    
C14   C16   A    
N15   Ni4   S    
C50   H73   S    
C53   H21   S    
C78   N11   A    
C4    H71   S    
C3    C4    A    
C54   N13   A    
C95   H58   S    
C6    C11   A    
C52   C53   A    
C43   C61   A    
C92   H54   S    
C102  H63   S    
C46   C47   T    
C20   H48   S    
C7    H74   S    
C80   C98   S    
C52   N20   S    
C29   H3    S    
C91   H53   S    
C37   C106  S    
C80   C81   A    
C25   H9    S    
C40   C100  S    
C71   C74   A    
C70   C72   A    
C104  H65   S    
C99   H61   S    
C22   H49   S    
C3    C108  A    
N12   N19   A    
C97   H60   S    
C44   H15   S    
C18   C87   A    
C105  H66   S    
C62   H26   S    
C36   H13   S    
C85   H44   S    
C51   C52   A    
C9    H76   S    
C86   C92   A    
C51   H25   S    
C90   C91   A    
C40   H8    S    
C34   H17   S    
C4    C5    A    
C44   H14   S    
C100  C101  A    
C65   H12   S    
C56   C58   A    
C108  H69   S    
C19   C24   S    
C26   H6    S    
C86   C88   A    
C17   C38   S    
C56   H20   S    
C87   H34   S    
C90   H52   S    
C94   C95   A    
C19   H67   S    
C32   C49   A    
C24   C31   S    
C82   H41   S    
N9    Ni1   S    
C10   C11   A    
C78   H38   S    
C20   H78   S    
C63   C64   A    
C84   H43   S    
N18   Ni4   S    
N7    Ni4   S    
C88   C89   A    
C70   H29   S    
C82   C83   A    
C107  H68   S    
N16   Ni2   S    
C27   C28   S    
C41   C45   S    
C34   C40   S    
C35   H10   S    
N1    Ni1   S    
C16   C65   A    
C18   C98   A    
C32   C59   S    
N7    N9    A    
C89   C90   A    
C14   H46   S    
C25   N6    A    
C12   N18   A    
C54   H39   S    
C2    C17   A    
C1    N1    A    
