data_mof_unit_25947.cif
_audit_creation_date              2012-12-10T20:26:30-0500
_audit_creation_method            fapswitch 2.2
_symmetry_space_group_name_H-M    P1
_symmetry_Int_Tables_number       1
_space_group_crystal_system       triclinic
_cell_length_a                    10.716665
_cell_length_b                    10.676221
_cell_length_c                    9.860936
_cell_angle_alpha                 89.866151
_cell_angle_beta                  90.121925
_cell_angle_gamma                 89.899527
_cell_volume                      1128.2166649

loop_
_atom_site_label
_atom_site_type_symbol
_atom_type_description
_atom_site_fract_x
_atom_site_fract_y
_atom_site_fract_z
_atom_type_partial_charge
C1    C     C_R   0.504035 0.259987 0.500201 0.902096
C2    C     C_R   0.567266 0.585496 0.071924 -0.131538
C3    C     C_R   0.567284 0.585510 0.927895 -0.094789
C4    C     C_R   0.262511 0.496936 0.499712 0.945843
C5    C     C_R   0.441081 0.406861 0.928743 0.145436
C6    C     C_3   0.305501 0.376029 0.922779 -0.539134
C7    C     C_3   0.305892 0.375795 0.076909 0.195027
C8    C     C_R   0.503299 0.739988 0.499896 0.915040
C9    C     C_R   0.737120 0.507934 0.499966 0.789923
C10   C     C_2   0.933125 0.507524 0.388568 -0.291605
C11   C     C_2   0.866990 0.538753 0.498610 0.343137
C12   C     C_R   0.523554 0.128611 0.501323 -0.056791
C13   C     C_2   0.066724 0.516828 0.387595 -0.124386
C14   C     C_2   0.130731 0.485579 0.498503 -0.226653
C15   C     C_R   0.518888 0.063521 0.623603 0.027900
C16   C     C_3   0.875364 0.720994 0.624023 0.101230
C17   C     C_3   0.937756 0.810177 0.522555 -0.341357
C18   C     C_3   0.900888 0.946026 0.549222 -0.892538
C19   C     C_R   0.550852 0.064918 0.380651 -0.161171
C20   C     C_R   0.550046 0.935345 0.380460 -0.212399
C21   C     C_R   0.521222 0.871390 0.500739 -0.060040
C22   C     C_R   0.516037 0.936007 0.623097 -0.007259
C23   C     C_3   0.425379 0.930525 0.738595 0.270705
C24   C     C_3   0.428944 0.072754 0.738885 -0.461606
C25   C     C_R   0.441305 0.406701 0.071377 0.187541
Cl1   Cl    Cl    0.280711 0.224339 0.148624 -0.598393
Cl2   Cl    Cl    0.275297 0.870691 0.692363 -0.614100
H1    H     H_    0.889155 0.470879 0.297527 0.163358
H2    H     H_    0.564482 0.114195 0.285676 0.186000
H3    H     H_    0.563822 0.886417 0.285521 0.166400
H4    H     H_    0.466254 0.887339 0.831310 0.109842
H5    H     H_    0.339677 0.118370 0.708740 0.230136
H6    H     H_    0.898567 0.752526 0.728334 0.183930
H7    H     H_    0.771956 0.726959 0.614980 0.104427
H8    H     H_    0.040781 0.800817 0.530513 0.284681
H9    H     H_    0.909298 0.785183 0.417650 0.205137
H10   H     H_    0.798192 0.957598 0.540585 0.253232
H11   H     H_    0.946351 0.007945 0.473470 0.281587
H12   H     H_    0.473333 0.112003 0.831468 0.185066
H13   H     H_    0.931482 0.974894 0.652184 0.279867
H14   H     H_    0.619620 0.655993 0.126239 0.143083
H15   H     H_    0.619642 0.656019 0.873454 0.132231
H16   H     H_    0.248717 0.453350 0.878689 0.208460
H17   H     H_    0.288297 0.282805 0.876803 0.230910
H18   H     H_    0.248264 0.451425 0.122121 0.125645
H19   H     H_    0.112006 0.545144 0.294031 0.165811
H20   H     H_    0.086213 0.449803 0.589537 0.189632
N1    N     N_R   0.499170 0.499140 0.142800 -0.129098
N2    N     N_R   0.499170 0.499180 0.857150 -0.096686
O1    O     O_R   0.500020 0.316790 0.614690 -0.621997
O2    O     O_R   0.500000 0.316760 0.385350 -0.592218
O3    O     O_R   0.319080 0.500020 0.614640 -0.599841
O4    O     O_R   0.319070 0.499980 0.385300 -0.612462
O5    O     O_R   0.500000 0.683240 0.614650 -0.612628
O6    O     O_R   0.499980 0.683210 0.385310 -0.631309
O7    O     O_R   0.680930 0.500020 0.614700 -0.600910
O8    O     O_R   0.680920 0.499980 0.385360 -0.650417
O9    O     O_3   0.921480 0.597221 0.610013 -0.635513
Zn1   Zn    Zn3+2 0.500010 0.500020 0.653130 0.977101
Zn2   Zn    Zn3+2 0.499990 0.499980 0.346870 0.966426

loop_
_geom_bond_atom_site_label_1
_geom_bond_atom_site_label_2
_ccdc_geom_bond_type
C23   C24   S    
C12   C15   A    
C3    H15   S    
C14   H20   S    
C8    C21   S    
O3    Zn1   S    
C23   Cl2   S    
C4    O4    A    
C11   O9    S    
C9    C11   S    
C1    O1    A    
C19   C20   A    
N2    Zn1   S    
O7    Zn1   S    
O5    Zn1   S    
C16   H7    S    
C24   H5    S    
C2    C3    A    
C3    N2    A    
C18   H11   S    
C9    O7    A    
C6    H17   S    
O6    Zn2   S    
C1    O2    A    
C25   N1    A    
C5    N2    A    
C6    C7    S    
C7    Cl1   S    
C4    O3    A    
C5    C25   A    
O1    Zn1   S    
C7    H18   S    
C12   C19   A    
C21   C22   A    
C15   C24   S    
C17   H9    S    
O4    Zn2   S    
N1    Zn2   S    
C16   O9    S    
C9    O8    A    
C6    H16   S    
C22   C23   S    
C4    C14   S    
C5    C6    S    
C16   H6    S    
C10   C11   D    
C2    H14   S    
C10   H1    S    
C19   H2    S    
C24   H12   S    
C20   C21   A    
C8    O6    A    
C17   C18   S    
C8    O5    A    
C18   H13   S    
C13   H19   S    
O8    Zn2   S    
C20   H3    S    
O2    Zn2   S    
C17   H8    S    
C2    N1    A    
C13   C14   D    
C18   H10   S    
C15   C22   A    
C1    C12   S    
C23   H4    S    
C16   C17   S    
C10   C13   S    
C7    C25   S    
