data_mof_unit_55745.cif
_audit_creation_date              2012-12-11T15:20:40-0500
_audit_creation_method            fapswitch 2.2
_symmetry_space_group_name_H-M    P1
_symmetry_Int_Tables_number       1
_space_group_crystal_system       triclinic
_cell_length_a                    12.866757
_cell_length_b                    13.005906
_cell_length_c                    15.414339
_cell_angle_alpha                 116.011749
_cell_angle_beta                  63.895186
_cell_angle_gamma                 96.772942
_cell_volume                      2072.70633331

loop_
_atom_site_label
_atom_site_type_symbol
_atom_type_description
_atom_site_fract_x
_atom_site_fract_y
_atom_site_fract_z
_atom_type_partial_charge
Br1   Br    Br    0.793325 0.109363 0.844124 -0.635470
C1    C     C_R   0.017024 0.834538 0.037823 -0.118031
C2    C     C_R   0.300706 0.592982 0.790081 -0.127395
C3    C     C_R   0.244395 0.483372 0.108569 -0.135593
C4    C     C_R   0.679862 0.457608 0.221450 -0.112140
C5    C     C_R   0.005325 0.291820 0.690624 -0.192026
C6    C     C_R   0.339038 0.543651 0.075446 0.047514
C7    C     C_R   0.956584 0.191706 0.688909 -0.022721
C8    C     C_R   0.294393 0.567217 0.695272 0.042822
C9    C     C_R   0.080952 0.145242 0.977881 0.035964
C10   C     C_R   0.003257 0.011413 0.412743 -0.175982
C11   C     C_R   0.968906 0.104599 0.510423 -0.177498
C12   C     C_R   0.671133 0.528841 0.323321 0.031186
C13   C     C_R   0.972982 0.092348 0.594077 0.192745
C14   C     C_R   0.012226 0.988465 0.581199 -0.127316
C15   C     C_R   0.046033 0.894940 0.483563 -0.198898
C16   C     C_R   0.740081 0.579301 0.946738 -0.129824
C17   C     C_R   0.040192 0.906791 0.400365 0.149141
C18   C     C_R   0.568525 0.637593 0.520448 -0.158862
C19   C     C_R   0.473055 0.650076 0.614321 -0.165987
C20   C     C_R   0.374143 0.595519 0.609061 0.143814
C21   C     C_R   0.363505 0.548045 0.512730 -0.172673
C22   C     C_R   0.459319 0.532941 0.419202 -0.182569
C23   C     C_R   0.635389 0.563217 0.018823 0.023873
C24   C     C_R   0.564847 0.569514 0.421916 0.146183
C25   C     C_2   0.425572 0.584495 0.118573 0.104275
C26   C     C_2   0.521367 0.625641 0.065025 0.122358
C27   C     C_2   0.883545 0.968084 0.039092 -0.216762
C28   C     C_R   0.003486 0.706898 0.306609 -0.124731
C29   C     C_2   0.871752 0.059158 0.129835 -0.105330
C30   C     C_R   0.659121 0.477642 0.039769 -0.063470
C31   C     C_R   0.084859 0.805801 0.209469 -0.159213
C32   C     C_R   0.782158 0.549580 0.314953 -0.127234
C33   C     C_R   0.924212 0.751417 0.934778 -0.137803
C34   C     C_R   0.051271 0.807309 0.307253 0.052228
C35   C     C_R   0.942535 0.856703 0.003455 0.134089
C36   C     C_3   0.414089 0.665441 0.298037 -0.902230
C37   C     C_3   0.439294 0.819624 0.129214 -0.933536
C38   C     C_R   0.326209 0.575050 0.005915 -0.117603
C39   C     C_R   0.915806 0.194498 0.788486 0.274160
C40   C     C_R   0.197510 0.508785 0.696500 -0.119503
C41   C     C_R   0.095148 0.251492 0.048954 -0.121448
C42   C     C_R   0.997195 0.166914 0.952139 -0.085401
H1    H     H_    0.053293 0.897097 0.088464 0.089541
H2    H     H_    0.019836 0.980666 0.645382 0.134046
H3    H     H_    0.612302 0.412938 0.201158 0.097467
H4    H     H_    0.074675 0.813566 0.473295 0.119510
H5    H     H_    0.646752 0.673691 0.525705 0.116389
H6    H     H_    0.481296 0.693309 0.688665 0.115459
H7    H     H_    0.286187 0.510984 0.506169 0.106178
H8    H     H_    0.451194 0.485500 0.345233 0.126785
H9    H     H_    0.841686 0.974678 0.993856 0.168099
H10   H     H_    0.907927 0.057296 0.180858 0.117009
H11   H     H_    0.751647 0.627696 0.902530 0.085379
H12   H     H_    0.157423 0.487917 0.643006 0.083234
H13   H     H_    0.976889 0.677215 0.368062 0.088611
H14   H     H_    0.597182 0.431641 0.079586 0.107409
H15   H     H_    0.134864 0.866430 0.180668 0.096757
H16   H     H_    0.808759 0.595848 0.378155 0.093593
H17   H     H_    0.880867 0.739847 0.885683 0.095878
H18   H     H_    0.373710 0.633363 0.973244 0.127501
H19   H     H_    0.364170 0.503689 0.221895 0.149486
H20   H     H_    0.497928 0.667148 0.302676 0.261570
H21   H     H_    0.342542 0.664255 0.371925 0.241627
H22   H     H_    0.398064 0.745951 0.295486 0.260730
H23   H     H_    0.154517 0.267473 0.084872 0.102985
H24   H     H_    0.588056 0.735891 0.989725 0.170853
H25   H     H_    0.433836 0.881579 0.099361 0.251969
H26   H     H_    0.477139 0.860717 0.187567 0.260100
H27   H     H_    0.349659 0.798961 0.169864 0.257191
H28   H     H_    0.967486 0.102637 0.897039 0.140743
H29   H     H_    0.357850 0.648453 0.820792 0.090428
H30   H     H_    0.217870 0.459537 0.173711 0.084391
H31   H     H_    0.040130 0.320164 0.627698 0.114368
H32   H     H_    0.995804 0.019834 0.348761 0.115720
H33   H     H_    0.940006 0.185897 0.520730 0.118223
N1    N     N_R   0.037310 0.720000 0.995790 -0.044951
N2    N     N_R   0.824890 0.517960 0.936420 -0.040140
N3    N     N_R   0.003210 0.648190 0.211380 -0.038220
N4    N     N_R   0.774330 0.457010 0.995840 -0.038306
N5    N     N_R   0.053760 0.709140 0.151960 -0.034468
N6    N     N_R   0.853860 0.498840 0.211410 -0.043262
N7    N     N_R   0.974240 0.667310 0.936390 -0.042722
N8    N     N_R   0.225670 0.542990 0.004160 -0.042959
N9    N     N_2   0.418430 0.563750 0.204530 -0.124752
N10   N     N_2   0.512149 0.717158 0.039979 -0.124182
N11   N     N_R   0.946240 0.290860 0.848040 -0.067311
N12   N     N_R   0.146140 0.501160 0.788590 -0.038856
N13   N     N_R   0.025760 0.332690 0.063610 -0.047286
N14   N     N_R   0.962690 0.280000 0.004210 -0.038330
N15   N     N_R   0.209210 0.553840 0.847990 -0.041207
N16   N     N_R   0.175110 0.482040 0.063580 -0.039737
N17   N     N_R   0.996790 0.351810 0.788620 -0.052775
N18   N     N_R   0.790790 0.446160 0.152010 -0.037394
Ni1   Ni    Ni4+2 0.130310 0.630310 0.999970 0.209951
Ni2   Ni    Ni4+2 0.869690 0.369690 0.000030 0.264448
Ni3   Ni    Ni4+2 0.985640 0.509470 0.863740 0.211153
Ni4   Ni    Ni4+2 0.014360 0.490530 0.136260 0.208974

loop_
_geom_bond_atom_site_label_1
_geom_bond_atom_site_label_2
_ccdc_geom_bond_type
C37   H27   S    
C10   C17   A    
N6    N18   A    
C9    C41   A    
N3    Ni4   S    
C18   C19   A    
C23   C26   S    
C31   H15   S    
C4    N18   A    
N16   Ni4   S    
C30   N4    A    
C31   N5    A    
C25   C26   D    
C6    C25   S    
C37   N10   S    
C39   N11   A    
C36   N9    S    
C38   N8    A    
N5    Ni1   S    
N2    N4    A    
N1    N7    A    
C14   C15   A    
C2    N15   A    
C40   H12   S    
Br1   C39   S    
C1    H1    S    
C36   H22   S    
C7    C13   S    
N4    Ni2   S    
C17   C34   S    
C4    C12   A    
N12   Ni3   S    
C21   H7    S    
C37   H26   S    
C32   H16   S    
C20   C21   A    
C33   H17   S    
N6    Ni4   S    
C12   C24   S    
C3    C6    A    
C15   H4    S    
C36   H20   S    
C5    H31   S    
C38   H18   S    
H19   N9    S    
C16   C23   A    
C42   N14   A    
C31   C34   A    
N3    N5    A    
C18   H5    S    
C5    C7    A    
N1    Ni1   S    
N8    Ni1   S    
C26   N10   S    
C12   C32   A    
C19   H6    S    
C2    C8    A    
C22   H8    S    
C28   N3    A    
N12   N15   A    
C5    N17   A    
N11   Ni2   S    
N2    Ni3   S    
C29   H10   S    
N18   Ni2   S    
C3    H30   S    
C37   H25   S    
C11   H33   S    
C33   N7    A    
C14   H2    S    
N17   Ni3   S    
C36   H21   S    
C32   N6    A    
C1    C35   A    
C40   N12   A    
H24   N10   S    
C42   H28   S    
C9    C42   A    
C13   C14   A    
C11   C13   A    
C10   C11   A    
N14   Ni2   S    
C28   H13   S    
N8    N16   A    
C4    H3    S    
C28   C34   A    
C8    C40   A    
N13   Ni4   S    
C41   N13   A    
C30   H14   S    
C27   C29   D    
C2    H29   S    
C23   C30   A    
C1    N1    A    
C10   H32   S    
C27   H9    S    
C8    C20   S    
C25   N9    S    
N11   N17   A    
C16   N2    A    
C33   C35   A    
C22   C24   A    
C18   C24   A    
N15   Ni1   S    
C19   C20   A    
C27   C35   S    
C15   C17   A    
N7    Ni3   S    
C41   H23   S    
C6    C38   A    
C21   C22   A    
C7    C39   A    
N13   N14   A    
C16   H11   S    
C3    N16   A    
