data_mof_unit_51820.cif
_audit_creation_date              2012-12-10T17:03:40-0500
_audit_creation_method            fapswitch 2.2
_symmetry_space_group_name_H-M    P1
_symmetry_Int_Tables_number       1
_space_group_crystal_system       triclinic
_cell_length_a                    10.146491
_cell_length_b                    10.703877
_cell_length_c                    13.272665
_cell_angle_alpha                 91.374266
_cell_angle_beta                  71.688973
_cell_angle_gamma                 88.665424
_cell_volume                      1367.39574464

loop_
_atom_site_label
_atom_site_type_symbol
_atom_type_description
_atom_site_fract_x
_atom_site_fract_y
_atom_site_fract_z
_atom_type_partial_charge
C1    C     C_R   0.494391 0.736728 0.511100 1.002285
C2    C     C_R   0.481706 0.425145 0.954576 0.078519
C3    C     C_R   0.464858 0.502344 0.874967 0.021543
C4    C     C_R   0.567959 0.466030 0.013315 -0.016886
C5    C     C_R   0.675105 0.546531 0.964377 -0.130513
C6    C     C_R   0.657421 0.624747 0.886051 -0.021594
C7    C     C_R   0.539657 0.613274 0.854097 0.266679
C8    C     C_R   0.534101 0.451290 0.123220 0.195825
C9    C     C_R   0.749625 0.557816 0.119629 0.292587
C10   C     C_R   0.383050 0.462381 0.813000 -0.043318
C11   C     C_2   0.532432 0.073029 0.572698 -0.307941
C12   C     C_R   0.423691 0.496753 0.702436 0.875098
C13   C     C_2   0.513690 0.130791 0.489368 0.215026
C14   C     C_2   0.564758 0.940487 0.568433 0.498871
C15   C     C_2   0.474857 0.867236 0.541235 -0.363459
C16   C     C_2   0.077226 0.404515 0.484358 0.252937
C17   C     C_2   0.923223 0.406089 0.519994 0.434962
C18   C     C_R   0.502536 0.263081 0.497826 0.818243
C19   C     C_R   0.576503 0.500367 0.296096 0.982753
C20   C     C_R   0.780666 0.566444 0.008856 0.270362
C21   C     C_R   0.622170 0.502063 0.178539 -0.279747
C22   C     C_R   0.305449 0.354291 0.838926 -0.187904
C23   C     C_R   0.324093 0.276727 0.916326 0.322596
C24   C     C_R   0.417324 0.308625 0.969822 -0.095757
H1    H     H_    0.376278 0.908827 0.540191 0.172647
H2    H     H_    0.910051 0.561833 0.446938 0.205382
H3    H     H_    0.722132 0.704726 0.862158 0.226854
H4    H     H_    0.244080 0.321935 0.790359 0.185964
H5    H     H_    0.439875 0.241968 0.022751 0.207057
H6    H     H_    0.529769 0.126042 0.644371 0.190062
N1    N     N_2   0.148270 0.498670 0.498870 0.013193
N2    N     N_2   0.852610 0.498640 0.498840 -0.191699
O1    O     O_R   0.386950 0.680940 0.500020 -0.557611
O2    O     O_R   0.613110 0.680900 0.499980 -0.557210
O3    O     O_R   0.330780 0.500000 0.653640 -0.549480
O4    O     O_R   0.556930 0.499960 0.653610 -0.571590
O5    O     O_R   0.386890 0.319100 0.500020 -0.614868
O6    O     O_R   0.613050 0.319060 0.499980 -0.553517
O7    O     O_R   0.443070 0.500040 0.346390 -0.575844
O8    O     O_R   0.669220 0.500000 0.346360 -0.564821
Zn1   Zn    Zn3+2 0.349000 0.500030 0.500020 1.149037
Zn2   Zn    Zn3+2 0.651000 0.499970 0.499980 1.145129
S1    S     S_3+6 0.855156 0.640135 0.182991 0.138223
O9    O     O_2   0.946254 0.731223 0.110555 -0.145897
O10   O     O_2   0.944677 0.547347 0.217421 -0.250394
O11   O     O_3   0.754789 0.723281 0.289123 -0.508155
H7    H     H_    0.819178 0.749179 0.327810 0.423806
S2    S     S_3+6 0.547744 0.062635 0.359804 0.109762
O12   O     O_2   0.671772 0.974415 0.334205 -0.166013
O13   O     O_2   0.424297 0.992459 0.352478 -0.254756
O14   O     O_3   0.582155 0.174861 0.269616 -0.505773
H8    H     H_    0.491158 0.216796 0.278715 0.378046
S3    S     S_3+6 0.725602 0.896641 0.586992 0.130509
O15   O     O_2   0.751124 0.985747 0.667662 -0.245520
O16   O     O_2   0.729778 0.766679 0.625645 -0.217448
O17   O     O_3   0.851991 0.908784 0.470344 -0.466174
H9    H     H_    0.930544 0.946486 0.487984 0.417304
Br1   Br    Br    0.167446 0.250220 0.418539 -0.324434
S4    S     S_3+6 0.064227 0.629577 0.576527 0.165312
O18   O     O_2   0.045696 0.728657 0.503535 -0.286749
O19   O     O_2   0.925650 0.600731 0.653931 -0.236973
O20   O     O_3   0.158272 0.688047 0.649431 -0.443314
H10   H     H_    0.120386 0.774279 0.670470 0.388074
S5    S     S_3+6 0.845218 0.278396 0.595240 0.111011
O21   O     O_2   0.708449 0.313563 0.676419 -0.264609
O22   O     O_2   0.825393 0.179614 0.519580 -0.265360
O23   O     O_3   0.952170 0.221521 0.659108 -0.520672
H11   H     H_    0.979150 0.135357 0.629857 0.399191
S6    S     S_3+6 0.953122 0.575707 0.921214 0.129834
O24   O     O_2   0.978851 0.707205 0.884488 -0.187144
O25   O     O_2   0.058466 0.536736 0.973570 -0.218465
O26   O     O_3   0.972771 0.479185 0.815460 -0.464473
H12   H     H_    0.956840 0.394586 0.844803 0.371042
Br2   Br    Br    0.345124 0.400834 0.196098 -0.373704
Br3   Br    Br    0.233637 0.120644 0.940753 -0.298987
Br4   Br    Br    0.464273 0.758227 0.806518 -0.356947

loop_
_geom_bond_atom_site_label_1
_geom_bond_atom_site_label_2
_ccdc_geom_bond_type
C13   S2    S    
C2    C4    A    
C23   C24   A    
S5    O23   S    
H2    N2    S    
C7    Br4   S    
C1    C15   S    
C16   C17   S    
C12   O4    A    
S1    O10   D    
C9    C20   A    
O4    Zn2   S    
C6    H3    S    
O2    Zn2   S    
C4    C8    A    
O1    Zn1   S    
S5    O21   D    
S3    O17   S    
S2    O13   D    
C8    C21   A    
C18   O6    A    
C1    O1    A    
S4    O18   D    
O7    Zn1   S    
C3    C10   A    
C22   H4    S    
S3    O15   D    
C10   C22   A    
C16   N1    D    
C2    C24   A    
C11   C13   D    
C9    C21   A    
O20   H10   S    
C10   C12   S    
C13   C18   S    
N2    Zn2   S    
C5    C6    A    
C19   O7    A    
C8    Br2   S    
S2    O12   D    
C19   C21   S    
C18   O5    A    
C1    O2    A    
C2    C3    A    
C6    C7    A    
C3    C7    A    
S3    O16   D    
S1    O9    D    
O5    Zn1   S    
S6    O24   D    
O3    Zn1   S    
S1    O11   S    
C20   S6    S    
C9    S1    S    
C23   Br3   S    
C15   H1    S    
C19   O8    A    
O23   H11   S    
O6    Zn2   S    
C24   H5    S    
C14   S3    S    
O14   H8    S    
O17   H9    S    
S6    O25   D    
S4    O19   D    
N1    S4    S    
C11   C14   S    
C5    C20   A    
C17   N2    D    
O8    Zn2   S    
C22   C23   A    
O26   H12   S    
S4    O20   S    
C16   Br1   S    
C17   S5    S    
N1    Zn1   S    
O11   H7    S    
S2    O14   S    
C14   C15   D    
C11   H6    S    
S6    O26   S    
C4    C5    A    
C12   O3    A    
S5    O22   D    
