data_mof_unit_17126.cif
_audit_creation_date              2012-12-10T17:19:53-0500
_audit_creation_method            fapswitch 2.2
_symmetry_space_group_name_H-M    P1
_symmetry_Int_Tables_number       1
_space_group_crystal_system       triclinic
_cell_length_a                    9.588046
_cell_length_b                    10.859234
_cell_length_c                    15.388402
_cell_angle_alpha                 87.043462
_cell_angle_beta                  73.87126
_cell_angle_gamma                 89.33212
_cell_volume                      1537.10423824

loop_
_atom_site_label
_atom_site_type_symbol
_atom_type_description
_atom_site_fract_x
_atom_site_fract_y
_atom_site_fract_z
_atom_type_partial_charge
C1    C     C_R   0.004064 0.262421 0.495068 0.815174
C2    C     C_R   0.681077 0.548233 0.908625 0.076486
C3    C     C_R   0.782779 0.527113 0.959268 0.162175
C4    C     C_R   0.535347 0.581605 0.953324 0.032231
C5    C     C_R   0.486035 0.556864 0.048837 0.037143
C6    C     C_R   0.589735 0.533704 0.097581 -0.210377
C7    C     C_R   0.736152 0.523468 0.053334 -0.236780
C8    C     C_R   0.438429 0.643525 0.909052 0.075598
C9    C     C_R   0.290791 0.652079 0.956203 -0.273825
C10   C     C_R   0.238276 0.608791 0.046127 0.139081
C11   C     C_R   0.335260 0.560522 0.093328 0.087207
C12   C     C_R   0.917745 0.499757 0.672499 0.812059
C13   C     C_R   0.089663 0.618425 0.090726 -0.210538
C14   C     C_R   0.035968 0.578563 0.181427 -0.209877
C15   C     C_R   0.277762 0.515976 0.183618 -0.243978
C16   C     C_R   0.277801 0.110630 0.480252 -0.147489
C17   C     C_R   0.387665 0.046999 0.506680 -0.142273
C18   C     C_R   0.359244 0.931779 0.551226 -0.136392
C19   C     C_R   0.225803 0.875173 0.561064 -0.150191
C20   C     C_R   0.118646 0.933513 0.525686 0.097828
C21   C     C_R   0.136272 0.059538 0.498561 0.103317
C22   C     C_R   0.011598 0.127686 0.491096 -0.123243
C23   C     C_R   0.996908 0.736827 0.507034 0.778660
C24   C     C_R   0.884871 0.064832 0.490913 -0.206208
C25   C     C_R   0.879693 0.937584 0.498364 -0.226738
C26   C     C_R   0.996003 0.870537 0.514745 -0.115263
C27   C     C_R   0.696542 0.663885 0.379514 -0.167292
C28   C     C_R   0.650207 0.744520 0.320403 -0.228567
C29   C     C_R   0.506539 0.745235 0.320303 -0.198290
C30   C     C_R   0.408378 0.665251 0.379240 -0.131908
C31   C     C_R   0.450794 0.581002 0.440646 0.180031
C32   C     C_R   0.600397 0.580713 0.440723 0.206605
C33   C     C_R   0.550330 0.423653 0.556771 -0.115275
C34   C     C_R   0.082492 0.504341 0.327452 0.775407
C35   C     C_R   0.402276 0.423642 0.557188 0.025378
C36   C     C_R   0.872831 0.507141 0.771455 -0.061200
C37   C     C_R   0.130285 0.528205 0.228666 -0.046665
C38   C     C_R   0.929278 0.505510 0.915125 -0.214363
C39   C     C_R   0.974941 0.500133 0.821306 -0.183426
C40   C     C_R   0.726053 0.524485 0.816392 -0.244136
Cu1   Cu    Cu3+1 0.140660 0.499990 0.500010 0.927945
Cu2   Cu    Cu3+1 0.859340 0.500010 0.499990 0.924045
H1    H     H_    0.811997 0.506145 0.093121 0.150440
H2    H     H_    0.015428 0.659711 0.055947 0.137149
H3    H     H_    0.789578 0.113964 0.483407 0.162136
H4    H     H_    0.308403 0.197166 0.442497 0.159397
H5    H     H_    0.494076 0.088370 0.494164 0.126319
H6    H     H_    0.441988 0.884597 0.575816 0.132620
H7    H     H_    0.207390 0.786662 0.597840 0.157449
H8    H     H_    0.783771 0.891770 0.491527 0.168414
H9    H     H_    0.587061 0.361401 0.603077 0.143679
H10   H     H_    0.808918 0.670586 0.374116 0.200889
H11   H     H_    0.726688 0.806879 0.274281 0.154214
H12   H     H_    0.345906 0.470552 0.220524 0.149748
H13   H     H_    0.470540 0.808271 0.274137 0.154891
H14   H     H_    0.301065 0.674178 0.373338 0.202186
H15   H     H_    0.921923 0.590771 0.215116 0.150820
H16   H     H_    0.215458 0.695535 0.923036 0.141233
H17   H     H_    0.008225 0.491313 0.953094 0.147887
H18   H     H_    0.088990 0.485904 0.788366 0.164183
H19   H     H_    0.646802 0.512030 0.780113 0.156150
H20   H     H_    0.561433 0.528326 0.170599 0.153755
N1    N     N_R   0.648320 0.501210 0.499140 -0.199802
N2    N     N_R   0.352470 0.501290 0.499110 -0.224796
O1    O     O_R   0.118810 0.319640 0.500010 -0.581953
O2    O     O_R   0.881240 0.319660 0.500000 -0.577788
O3    O     O_R   0.055570 0.499980 0.629840 -0.577707
O4    O     O_R   0.818000 0.500010 0.629830 -0.583713
O5    O     O_R   0.118760 0.680340 0.500000 -0.608814
O6    O     O_R   0.881190 0.680360 0.499990 -0.601347
O7    O     O_R   0.182000 0.499990 0.370170 -0.603753
O8    O     O_R   0.944430 0.500020 0.370160 -0.593533
C41   C     C_1   0.304432 0.340677 0.620770 0.282500
N3    N     N_1   0.226374 0.273638 0.672155 -0.299022
C42   C     C_3   0.486426 0.718594 0.818727 -0.397937
C43   C     C_3   0.599785 0.817695 0.818352 -0.327980
C44   C     C_3   0.646945 0.888955 0.726755 -0.844736
H21   H     H_    0.695141 0.825005 0.672362 0.260178
H22   H     H_    0.552670 0.936769 0.711663 0.250346
H23   H     H_    0.729837 0.959000 0.727827 0.251854
H24   H     H_    0.552622 0.883176 0.871939 0.222077
H25   H     H_    0.697745 0.776000 0.832482 0.228590
H26   H     H_    0.522955 0.660303 0.760105 0.190140
H27   H     H_    0.391909 0.768171 0.805055 0.191563

loop_
_geom_bond_atom_site_label_1
_geom_bond_atom_site_label_2
_ccdc_geom_bond_type
C16   C21   A    
C34   C37   S    
Cu1   Cu2   S    
C23   O5    A    
C19   C20   A    
C4    C8    A    
Cu1   O3    S    
C44   H21   S    
C12   O4    A    
C5    C6    A    
C24   H3    S    
C28   C29   A    
C5    C11   A    
C3    C7    A    
C30   C31   A    
C42   H27   S    
C16   C17   A    
Cu2   O6    S    
C9    H16   S    
C41   N3    T    
C23   C26   S    
C25   H8    S    
C15   C37   A    
C11   C15   A    
C3    C38   A    
C8    C9    A    
C1    O1    A    
C35   N2    A    
C7    H1    S    
C12   C36   S    
C9    C10   A    
Cu1   O7    S    
C1    C22   S    
C21   C22   A    
Cu2   O4    S    
C23   O6    A    
C17   C18   A    
C44   H22   S    
C12   O3    A    
C15   H12   S    
C36   C40   A    
C43   C44   S    
C43   H25   S    
C18   C19   A    
Cu1   O1    S    
C29   H13   S    
C25   C26   A    
C30   H14   S    
C8    C42   S    
C40   H19   S    
C2    C4    A    
C42   C43   S    
C29   C30   A    
C19   H7    S    
C31   C32   A    
C33   N1    A    
Cu2   O8    S    
C1    O2    A    
C24   C25   A    
C22   C24   A    
C16   H4    S    
C34   O8    A    
C27   H10   S    
Cu1   O5    S    
C44   H23   S    
C14   H15   S    
C35   C41   S    
C27   C32   A    
C31   N2    A    
C36   C39   A    
C17   H5    S    
C32   N1    A    
C4    C5    A    
C10   C13   A    
C18   H6    S    
C43   H24   S    
C28   H11   S    
C6    C7    A    
C33   H9    S    
C6    H20   S    
C2    C3    A    
C14   C37   A    
C42   H26   S    
C38   C39   A    
C20   C26   A    
C39   H18   S    
Cu2   N1    S    
C33   C35   A    
C10   C11   A    
C38   H17   S    
C2    C40   A    
C20   C21   A    
C27   C28   A    
Cu2   O2    S    
Cu1   N2    S    
C13   C14   A    
C34   O7    A    
C13   H2    S    
