data_mof_unit_27278.cif
_audit_creation_date              2012-12-10T18:21:15-0500
_audit_creation_method            fapswitch 2.2
_symmetry_space_group_name_H-M    P1
_symmetry_Int_Tables_number       1
_space_group_crystal_system       triclinic
_cell_length_a                    14.995828
_cell_length_b                    14.101419
_cell_length_c                    10.768681
_cell_angle_alpha                 89.544519
_cell_angle_beta                  86.95884
_cell_angle_gamma                 89.467007
_cell_volume                      2273.80294393

loop_
_atom_site_label
_atom_site_type_symbol
_atom_type_description
_atom_site_fract_x
_atom_site_fract_y
_atom_site_fract_z
_atom_type_partial_charge
C1    C     C_R   0.327115 0.500624 0.491735 0.978291
C2    C     C_R   0.046939 0.338086 0.559838 -0.177991
C3    C     C_R   0.093126 0.417908 0.513770 0.112672
C4    C     C_R   0.499262 0.500391 0.256925 0.769319
C5    C     C_R   0.046924 0.497591 0.469473 0.042456
C6    C     C_R   0.093456 0.578089 0.421884 0.098889
C7    C     C_R   0.044742 0.656830 0.379306 -0.142584
C8    C     C_R   0.952187 0.656156 0.385013 -0.211394
C9    C     C_R   0.184822 0.420150 0.515726 -0.241835
C10   C     C_R   0.231586 0.501335 0.477013 -0.137282
C11   C     C_R   0.187102 0.579118 0.422664 -0.033668
C12   C     C_3   0.581682 0.491858 0.909871 -0.462311
C13   C     C_R   0.561819 0.799404 0.426440 0.049966
C14   C     C_R   0.568433 0.200685 0.439060 0.047146
C15   C     C_R   0.435444 0.798547 0.569117 -0.041337
C16   C     C_R   0.432892 0.202068 0.564206 -0.059474
C17   C     C_R   0.432632 0.899173 0.569617 0.021976
C18   C     C_R   0.431648 0.101524 0.567572 0.016902
C19   C     C_R   0.673245 0.499626 0.499301 0.871110
C20   C     C_R   0.500653 0.949619 0.503952 0.064390
C21   C     C_R   0.500779 0.050575 0.504062 0.082220
C22   C     C_R   0.568105 0.899307 0.436292 0.034250
C23   C     C_R   0.814360 0.577661 0.442970 -0.243135
C24   C     C_R   0.570349 0.100343 0.440501 -0.010252
C25   C     C_R   0.364152 0.950612 0.634240 -0.145557
C26   C     C_R   0.363454 0.050661 0.632794 -0.164007
C27   C     C_R   0.641277 0.048480 0.382311 -0.170765
C28   C     C_R   0.640419 0.950079 0.381013 -0.114200
C29   C     C_R   0.485977 0.499813 0.740535 1.018270
C30   C     C_3   0.434413 0.586329 0.074670 -0.326107
C31   C     C_3   0.447453 0.406760 0.076346 -0.298778
C32   C     C_3   0.441615 0.594341 0.931706 0.313363
C33   C     C_3   0.434257 0.409552 0.934291 0.269014
C34   C     C_R   0.769035 0.498915 0.492744 -0.066784
C35   C     C_3   0.592945 0.506980 0.051723 -0.110689
C36   C     C_3   0.496147 0.500769 0.118849 -0.172027
C37   C     C_3   0.481479 0.499511 0.876372 -0.248792
C38   C     C_2   0.442756 0.684086 0.133198 0.577646
C39   C     C_2   0.487863 0.311682 0.112931 0.525207
C40   C     C_2   0.237442 0.658766 0.362281 0.334004
C41   C     C_2   0.614493 0.749988 0.326518 0.368072
C42   C     C_2   0.641996 0.251337 0.373006 0.434654
C43   C     C_2   0.637405 0.601198 0.074774 0.482448
C44   C     C_2   0.657854 0.434725 0.103427 0.500005
C45   C     C_R   0.815101 0.419037 0.533421 -0.239555
C46   C     C_R   0.907530 0.417398 0.524437 0.122267
C47   C     C_R   0.953762 0.497194 0.475019 0.074570
C48   C     C_R   0.906638 0.577290 0.433654 0.125706
C49   C     C_R   0.954292 0.337884 0.565325 -0.184774
H1    H     H_    0.082459 0.276615 0.593704 0.158782
H2    H     H_    0.698194 0.914479 0.338127 0.182983
H3    H     H_    0.365080 0.565693 0.103368 0.209403
H4    H     H_    0.380926 0.406883 0.127098 0.168819
H5    H     H_    0.492294 0.648514 0.904065 0.207553
H6    H     H_    0.468563 0.347513 0.889442 0.165181
H7    H     H_    0.624120 0.541541 0.852256 0.216325
H8    H     H_    0.607037 0.420739 0.880058 0.238844
H9    H     H_    0.777985 0.639087 0.410853 0.142848
H10   H     H_    0.779134 0.358920 0.573736 0.154020
H11   H     H_    0.919268 0.276234 0.602782 0.158373
H12   H     H_    0.219688 0.359013 0.552005 0.184014
H13   H     H_    0.409177 0.698333 0.222824 0.093986
H14   H     H_    0.462022 0.275519 0.196467 0.102895
H15   H     H_    0.278395 0.704384 0.415877 0.094727
H16   H     H_    0.634459 0.678049 0.336742 0.100382
H17   H     H_    0.696994 0.277104 0.423723 0.061649
H18   H     H_    0.293367 0.789454 0.851910 0.372338
H19   H     H_    0.233151 0.435963 0.760083 0.394065
H20   H     H_    0.669049 0.611008 0.161340 0.023908
H21   H     H_    0.664211 0.429919 0.203137 0.060921
H22   H     H_    0.077211 0.720547 0.344316 0.187266
H23   H     H_    0.916194 0.717973 0.353106 0.160983
H24   H     H_    0.384381 0.758893 0.620658 0.198783
H25   H     H_    0.380313 0.242211 0.613153 0.178489
H26   H     H_    0.310663 0.913605 0.685037 0.152407
H27   H     H_    0.309581 0.088215 0.682804 0.167307
H28   H     H_    0.698478 0.083127 0.337169 0.176378
N1    N     N_R   0.500070 0.750030 0.500050 -0.159391
N2    N     N_R   0.500070 0.249970 0.500050 -0.147198
O1    O     O_R   0.367860 0.580280 0.500020 -0.628598
O2    O     O_2   0.547510 0.273378 0.049402 -0.498194
O3    O     O_2   0.231892 0.674593 0.251328 -0.540982
O4    O     O_2   0.632981 0.789090 0.227017 -0.517201
O5    O     O_2   0.647045 0.254155 0.259856 -0.531644
O6    O     O_2   0.320771 0.609381 0.746702 -0.307134
O7    O     O_2   0.259746 0.626499 0.959989 -0.213706
O8    O     O_3   0.353719 0.762945 0.863903 -0.549801
O9    O     O_2   0.301843 0.284605 0.916631 -0.302026
O10   O     O_2   0.256680 0.440940 0.992516 -0.251021
O11   O     O_3   0.297857 0.420883 0.756658 -0.551244
O12   O     O_R   0.367860 0.419720 0.500020 -0.609725
O13   O     O_2   0.643828 0.664250 0.996435 -0.490949
O14   O     O_2   0.707852 0.386296 0.036192 -0.494100
O15   O     O_R   0.500000 0.580270 0.314790 -0.678993
O16   O     O_R   0.500000 0.419730 0.314790 -0.628999
O17   O     O_R   0.632160 0.580270 0.499960 -0.650887
O18   O     O_R   0.632160 0.419730 0.499960 -0.650798
O19   O     O_R   0.500030 0.580270 0.685200 -0.589926
O20   O     O_R   0.500030 0.419730 0.685200 -0.617846
O21   O     O_2   0.482308 0.749268 0.079973 -0.461728
S1    S     S_3+6 0.339610 0.644914 0.873255 0.051198
S2    S     S_3+6 0.319034 0.389042 0.902263 0.030239
Zn1   Zn    Zn3+2 0.500020 0.607200 0.499990 0.968734
Zn2   Zn    Zn3+2 0.500020 0.392800 0.499990 0.976782

loop_
_geom_bond_atom_site_label_1
_geom_bond_atom_site_label_2
_ccdc_geom_bond_type
C33   H6    S    
C23   H9    S    
C4    C36   S    
O10   S2    D    
C18   C21   A    
C35   C36   S    
C18   C26   A    
C24   C27   A    
O12   Zn2   S    
C13   C41   S    
C19   O18   A    
C7    C8    A    
C45   C46   A    
C5    C47   A    
C46   C49   A    
C49   H11   S    
C29   O19   A    
C9    H12   S    
C7    H22   S    
C5    C6    A    
C28   H2    S    
C15   N1    A    
O19   Zn1   S    
C41   O4    D    
C17   C20   A    
C30   C38   S    
C14   C24   A    
C12   C37   S    
O11   S2    S    
C44   O14   D    
C2    H1    S    
O8    S1    S    
C26   H27   S    
C31   C33   S    
C44   H21   S    
C35   C43   S    
C9    C10   A    
C14   C42   S    
O20   Zn2   S    
C43   H20   S    
C22   C28   A    
C32   H5    S    
C8    H23   S    
C29   O20   A    
O1    Zn1   S    
C33   S2    S    
C40   O3    D    
C42   O5    D    
C39   O2    D    
C38   O21   D    
C6    C11   A    
C41   H16   S    
C27   H28   S    
C25   C26   A    
C32   C37   S    
C33   C37   S    
C25   H26   S    
C8    C48   A    
C3    C9    A    
C2    C49   A    
C4    O16   A    
H19   O11   S    
C47   C48   A    
C23   C34   A    
C34   C45   A    
C14   N2    A    
C31   H4    S    
C12   C35   S    
C35   C44   S    
C12   H7    S    
C4    O15   A    
C12   H8    S    
C15   H24   S    
C20   C22   A    
O15   Zn1   S    
C16   H25   S    
N2    Zn2   S    
C21   C24   A    
O6    S1    D    
O16   Zn2   S    
C15   C17   A    
C30   H3    S    
C46   C47   A    
C45   H10   S    
C23   C48   A    
N1    Zn1   S    
C32   S1    S    
C1    C10   S    
C3    C5    A    
C19   C34   S    
O9    S2    D    
C6    C7    A    
C39   H14   S    
H18   O8    S    
C43   O13   D    
C40   H15   S    
C30   C36   S    
C16   N2    A    
C17   C25   A    
C2    C3    A    
C30   C32   S    
C31   C39   S    
C13   C22   A    
C11   C40   S    
O18   Zn2   S    
C10   C11   A    
C13   N1    A    
C20   C21   A    
C16   C18   A    
C1    O12   A    
O17   Zn1   S    
C29   C37   S    
C27   C28   A    
C42   H17   S    
C1    O1    A    
C31   C36   S    
O7    S1    D    
C19   O17   A    
C38   H13   S    
