data_mof_unit_58744.cif
_audit_creation_date              2012-12-10T18:11:49-0500
_audit_creation_method            fapswitch 2.2
_symmetry_space_group_name_H-M    P1
_symmetry_Int_Tables_number       1
_space_group_crystal_system       triclinic
_cell_length_a                    15.859747
_cell_length_b                    10.746143
_cell_length_c                    9.423337
_cell_angle_alpha                 90.374708
_cell_angle_beta                  90.527327
_cell_angle_gamma                 90.35186
_cell_volume                      1605.89653129

loop_
_atom_site_label
_atom_site_type_symbol
_atom_type_description
_atom_site_fract_x
_atom_site_fract_y
_atom_site_fract_z
_atom_type_partial_charge
C1    C     C_R   0.500537 0.259934 0.499354 0.757282
C2    C     C_3   0.083080 0.498358 0.494887 0.120796
C3    C     C_3   0.972611 0.617090 0.489679 -0.176724
C4    C     C_3   0.917063 0.499450 0.500155 0.129327
C5    C     C_3   0.026576 0.550522 0.375723 -0.146919
C6    C     C_3   0.969311 0.432984 0.385854 -0.294183
C7    C     C_1   0.174725 0.499314 0.495136 0.006093
C8    C     C_1   0.825418 0.499769 0.502079 -0.009774
C9    C     C_3   0.581685 0.076139 0.578088 -0.432709
C10   C     C_3   0.584034 0.931797 0.578116 -0.116569
C11   C     C_3   0.422367 0.071627 0.573688 -0.376318
C12   C     C_R   0.339868 0.499931 0.499300 0.819595
C13   C     C_3   0.503800 0.069942 0.344642 -0.384852
C14   C     C_3   0.501960 0.122267 0.498542 0.147536
C15   C     C_3   0.503185 0.878614 0.501445 0.085025
C16   C     C_3   0.422585 0.928243 0.574190 -0.395848
C17   C     C_3   0.503309 0.927523 0.346172 -0.396763
C18   C     C_3   0.469008 0.619506 0.085297 -0.167226
C19   C     C_3   0.463426 0.617675 0.918224 -0.204817
C20   C     C_3   0.587926 0.485541 0.084015 -0.305727
C21   C     C_3   0.447985 0.397842 0.080616 0.495191
C22   C     C_3   0.587873 0.492944 0.916892 -0.203750
C23   C     C_R   0.501764 0.740275 0.500455 0.772830
C24   C     C_3   0.452973 0.395799 0.913145 -0.208344
C25   C     C_R   0.660169 0.500039 0.500607 0.843589
C26   C     C_3   0.974337 0.448245 0.616955 0.440480
C27   C     C_3   0.026972 0.381596 0.504418 -0.019941
C28   C     C_1   0.250242 0.499721 0.497176 -0.180723
C29   C     C_1   0.749863 0.499935 0.501937 -0.179422
C30   C     C_3   0.030594 0.565672 0.609081 -0.277567
Cu1   Cu    Cu3+1 0.500040 0.499860 0.642410 0.918492
Cu2   Cu    Cu3+1 0.499960 0.500140 0.357590 0.919894
H1    H     H_    0.420244 0.106617 0.685069 0.162084
H2    H     H_    0.418474 0.894361 0.685169 0.151742
H3    H     H_    0.448229 0.102102 0.283143 0.161430
H4    H     H_    0.561157 0.103760 0.289162 0.164179
H5    H     H_    0.559731 0.892885 0.288962 0.163446
H6    H     H_    0.446509 0.892822 0.287378 0.170325
H7    H     H_    0.364569 0.105157 0.518338 0.169926
H8    H     H_    0.365537 0.892717 0.516923 0.164969
H9    H     H_    0.510961 0.697965 0.118511 0.133053
H10   H     H_    0.406062 0.640295 0.130320 0.178779
H11   H     H_    0.396452 0.625542 0.883450 0.151477
H12   H     H_    0.496565 0.701333 0.878279 0.155563
H13   H     H_    0.630494 0.559666 0.126778 0.182029
H14   H     H_    0.626487 0.574377 0.883870 0.200711
H15   H     H_    0.473216 0.307233 0.118995 0.033484
H16   H     H_    0.388602 0.394251 0.865476 0.177806
H17   H     H_    0.482797 0.307086 0.879616 0.094778
H18   H     H_    0.614890 0.395065 0.118158 0.142832
H19   H     H_    0.942246 0.379264 0.295235 0.156464
H20   H     H_    0.619209 0.408808 0.873245 0.154133
H21   H     H_    0.049517 0.592628 0.275873 0.140672
H22   H     H_    0.948781 0.713801 0.482884 0.149522
H23   H     H_    0.056817 0.620537 0.699604 0.136183
H24   H     H_    0.582505 0.114594 0.688224 0.158750
H25   H     H_    0.639228 0.112738 0.525467 0.149287
H26   H     H_    0.639960 0.901765 0.516072 0.146854
N1    N     N_3   0.501840 0.500250 0.143650 -0.146291
N2    N     N_3   0.501160 0.503300 0.856280 -0.139930
O1    O     O_R   0.500050 0.317570 0.620260 -0.596913
O2    O     O_R   0.499980 0.317810 0.379740 -0.611979
O3    O     O_R   0.379110 0.499870 0.620240 -0.588805
O4    O     O_R   0.379040 0.500110 0.379720 -0.544326
O5    O     O_R   0.500020 0.682190 0.620260 -0.579809
O6    O     O_R   0.499950 0.682430 0.379740 -0.603766
O7    O     O_R   0.620960 0.499890 0.620280 -0.565753
O8    O     O_R   0.620890 0.500130 0.379760 -0.595567
C31   C     C_2   0.054664 0.248708 0.510682 0.314677
H27   H     H_    0.007817 0.175265 0.519040 0.080982
O9    O     O_2   0.129317 0.222372 0.506331 -0.566358
C32   C     C_2   0.595514 0.885504 0.728157 0.356549
H28   H     H_    0.550525 0.910317 0.809492 0.051006
O10   O     O_2   0.655922 0.821069 0.759560 -0.565875
O11   O     O_3   0.942245 0.392681 0.740819 -0.616791
C33   C     C_3   0.008168 0.378162 0.840956 0.048657
H29   H     H_    0.027096 0.470477 0.885444 0.143929
H30   H     H_    0.064146 0.332992 0.792441 0.153781
C34   C     C_3   0.977490 0.296551 0.962343 -0.324209
H31   H     H_    0.924684 0.343493 0.017490 0.217448
H32   H     H_    0.954009 0.206286 0.918751 0.228039
C35   C     C_3   0.048471 0.271622 0.068716 -0.933704
H33   H     H_    0.100836 0.222408 0.015382 0.267379
H34   H     H_    0.024662 0.212164 0.155732 0.257713
H35   H     H_    0.072661 0.360372 0.115042 0.262322
O12   O     O_3   0.361885 0.415161 0.117596 -0.614709
C36   C     C_3   0.323395 0.305835 0.170906 0.083538
H36   H     H_    0.262089 0.333489 0.217333 0.188236
H37   H     H_    0.360466 0.265893 0.259566 0.148284
C37   C     C_3   0.305584 0.208458 0.054324 -0.447261
H38   H     H_    0.264277 0.249727 0.971396 0.232186
H39   H     H_    0.365253 0.178727 0.004031 0.193395
C38   C     C_3   0.262547 0.093366 0.115251 -0.892577
H40   H     H_    0.305171 0.046477 0.191965 0.247982
H41   H     H_    0.246838 0.026980 0.028038 0.254242
H42   H     H_    0.203517 0.119257 0.170257 0.275850

loop_
_geom_bond_atom_site_label_1
_geom_bond_atom_site_label_2
_ccdc_geom_bond_type
C36   H36   S    
C38   H40   S    
Cu1   O1    S    
C2    C7    S    
C25   O7    A    
C33   C34   S    
C4    C8    S    
C1    O2    A    
Cu1   O7    S    
C26   C27   S    
C12   C28   S    
C8    C29   T    
C23   O6    A    
C5    H21   S    
C10   H26   S    
C33   H30   S    
C21   N1    S    
C10   C15   S    
C18   H10   S    
C22   N2    S    
C5    C6    S    
C12   O4    A    
C11   C14   S    
C15   C16   S    
Cu1   O5    S    
C18   C19   S    
C31   O9    D    
C20   H18   S    
C16   H2    S    
Cu1   Cu2   S    
C2    C27   S    
C6    H19   S    
C9    C10   S    
C20   H13   S    
C27   C31   S    
Cu2   O8    S    
C15   C23   S    
C38   H41   S    
C13   C14   S    
C25   O8    A    
C19   H11   S    
C25   C29   S    
C24   H16   S    
Cu1   O3    S    
C11   H1    S    
C33   H29   S    
Cu2   O4    S    
C13   H4    S    
C32   O10   D    
C18   H9    S    
C34   H32   S    
C9    C14   S    
O12   C36   S    
C7    C28   T    
Cu1   N2    S    
C3    C30   S    
O11   C33   S    
C11   C16   S    
C37   H39   S    
C6    C27   S    
C24   N2    S    
C26   O11   S    
C9    H24   S    
C17   H5    S    
C20   N1    S    
C11   H7    S    
C16   H8    S    
C4    C6    S    
C22   H14   S    
C20   C22   S    
C26   C30   S    
C38   H42   S    
C35   H34   S    
C36   H37   S    
C36   C37   S    
C2    C5    S    
C3    C4    S    
C19   H12   S    
C37   C38   S    
Cu2   O6    S    
C24   H17   S    
C15   C17   S    
C21   O12   S    
C32   H28   S    
C3    C5    S    
C1    O1    A    
C34   C35   S    
C4    C26   S    
C13   H3    S    
C19   N2    S    
C35   H35   S    
C30   H23   S    
C13   C17   S    
C2    C30   S    
C23   O5    A    
Cu2   O2    S    
C37   H38   S    
C3    H22   S    
C22   H20   S    
C9    H25   S    
C17   H6    S    
C31   H27   S    
C34   H31   S    
C18   N1    S    
C35   H33   S    
C21   C24   S    
C1    C14   S    
Cu2   N1    S    
C12   O3    A    
C21   H15   S    
C10   C32   S    
