data_mof_unit_9976.cif
_audit_creation_date              2012-12-10T18:06:00-0500
_audit_creation_method            fapswitch 2.2
_symmetry_space_group_name_H-M    P1
_symmetry_Int_Tables_number       1
_space_group_crystal_system       triclinic
_cell_length_a                    12.608274
_cell_length_b                    13.124256
_cell_length_c                    14.972086
_cell_angle_alpha                 90.731456
_cell_angle_beta                  102.138207
_cell_angle_gamma                 82.405598
_cell_volume                      2400.57131287

loop_
_atom_site_label
_atom_site_type_symbol
_atom_type_description
_atom_site_fract_x
_atom_site_fract_y
_atom_site_fract_z
_atom_type_partial_charge
C1    C     C_R   0.438957 0.691073 0.485934 0.850108
C2    C     C_R   0.403074 0.537609 0.797531 -0.246040
C3    C     C_R   0.500420 0.504964 0.768989 -0.083407
C4    C     C_R   0.500116 0.501216 0.672918 0.885276
C5    C     C_R   0.598257 0.476709 0.831849 -0.253850
C6    C     C_R   0.703403 0.064108 0.435512 -0.156216
C7    C     C_R   0.596534 0.200109 0.500588 -0.043059
C8    C     C_R   0.299902 0.838338 0.497874 -0.195160
C9    C     C_R   0.271183 0.943341 0.505215 -0.151220
C10   C     C_R   0.344986 0.010441 0.495947 -0.167033
C11   C     C_R   0.447543 0.973138 0.474630 0.088832
C12   C     C_R   0.598769 0.474543 0.110307 0.133040
C13   C     C_R   0.467875 0.869043 0.452598 0.019362
C14   C     C_R   0.530347 0.035689 0.474308 0.011030
C15   C     C_R   0.623724 0.999104 0.438043 0.061791
C16   C     C_R   0.560940 0.308791 0.509011 0.862963
C17   C     C_R   0.635252 0.898950 0.404560 0.429093
C18   C     C_R   0.556116 0.835607 0.410250 -0.332650
C19   C     C_R   0.523445 0.133474 0.511216 -0.223324
C20   C     C_R   0.688689 0.165098 0.465085 -0.227614
C21   C     C_R   0.399757 0.800561 0.474590 -0.077011
C22   C     C_R   0.092583 0.336846 0.380935 -0.315951
C23   C     C_R   0.305150 0.569101 0.014202 -0.257261
C24   C     C_R   0.804492 0.630103 0.609468 0.169554
C25   C     C_R   0.913038 0.639280 0.645830 -0.211537
C26   C     C_R   0.995456 0.579587 0.614004 0.061859
C27   C     C_R   0.967603 0.516230 0.537225 -0.042089
C28   C     C_R   0.499894 0.499471 0.327202 0.872912
C29   C     C_R   0.856322 0.498547 0.510131 0.183120
C30   C     C_R   0.044610 0.468260 0.487734 -0.001453
C31   C     C_R   0.015097 0.389607 0.425297 0.205947
C32   C     C_R   0.908168 0.366308 0.406341 -0.303442
C33   C     C_R   0.829347 0.422366 0.445992 -0.194942
C34   C     C_R   0.304185 0.573113 0.920810 0.100952
C35   C     C_R   0.148385 0.499146 0.493701 -0.077587
C36   C     C_R   0.197502 0.364454 0.397312 0.013423
C37   C     C_R   0.597810 0.472278 0.202578 -0.254852
C38   C     C_R   0.499679 0.500116 0.231405 -0.063388
C39   C     C_R   0.402109 0.531220 0.169143 -0.241617
C40   C     C_R   0.401928 0.535399 0.076715 0.091369
C41   C     C_R   0.500297 0.506274 0.046896 0.057406
C42   C     C_3   0.793794 0.788595 0.417456 0.092316
C43   C     C_3   0.896752 0.764262 0.379246 -0.809629
C44   C     C_R   0.401630 0.540292 0.890255 0.099822
C45   C     C_R   0.500206 0.508246 0.953841 0.021997
C46   C     C_R   0.598877 0.477473 0.924419 0.132407
C47   C     C_R   0.696314 0.446846 0.987811 -0.213374
C48   C     C_R   0.696295 0.445518 0.080579 -0.214910
H1    H     H_    0.672990 0.447904 0.251847 0.151130
H2    H     H_    0.072347 0.274949 0.334484 0.146111
H3    H     H_    0.326970 0.554058 0.192886 0.158033
H4    H     H_    0.172311 0.566763 0.529100 0.127118
H5    H     H_    0.933573 0.692118 0.701114 0.168474
H6    H     H_    0.747925 0.403981 0.425521 0.205813
H7    H     H_    0.230463 0.593003 0.038215 0.145019
H8    H     H_    0.329100 0.561130 0.747017 0.168411
H9    H     H_    0.673305 0.451959 0.808531 0.160374
H10   H     H_    0.772219 0.423452 0.965575 0.148517
H11   H     H_    0.772169 0.421309 0.128966 0.147934
H12   H     H_    0.774961 0.038403 0.407803 0.177994
H13   H     H_    0.746183 0.216571 0.456320 0.152057
H14   H     H_    0.756111 0.716626 0.417504 0.163266
H15   H     H_    0.818439 0.815159 0.488985 0.133852
H16   H     H_    0.936806 0.834585 0.378291 0.249457
H17   H     H_    0.954906 0.704661 0.422649 0.206690
H18   H     H_    0.875725 0.735043 0.308643 0.263316
H19   H     H_    0.670178 0.666129 0.666164 0.244899
H20   H     H_    0.685423 0.752331 0.585435 0.199660
H21   H     H_    0.149170 0.502667 0.666738 0.208729
H22   H     H_    0.141472 0.635224 0.653705 0.166537
H23   H     H_    0.458956 0.161535 0.546115 0.147307
H24   H     H_    0.215001 0.682538 0.833145 0.178752
H25   H     H_    0.138996 0.623157 0.890071 0.190095
H26   H     H_    0.245588 0.786619 0.513100 0.146536
H27   H     H_    0.318485 0.091088 0.503443 0.131224
H28   H     H_    0.193474 0.972567 0.522023 0.141253
H29   H     H_    0.563672 0.760271 0.380197 0.187271
H30   H     H_    0.259333 0.322748 0.365531 0.139722
H31   H     H_    0.884293 0.307064 0.357964 0.147766
N1    N     N_R   0.222190 0.444670 0.452360 -0.101400
N2    N     N_R   0.776970 0.554790 0.547140 -0.144691
N3    N     N_3   0.725010 0.702686 0.639520 -0.471236
N4    N     N_3   0.103094 0.574319 0.670227 -0.453351
N5    N     N_3   0.204963 0.610762 0.857263 -0.448507
O1    O     O_R   0.366740 0.627160 0.477250 -0.617843
O2    O     O_R   0.544830 0.662520 0.507680 -0.637555
O3    O     O_R   0.410940 0.482340 0.616930 -0.617982
O4    O     O_R   0.589030 0.517700 0.647360 -0.629892
O5    O     O_R   0.455170 0.337480 0.492320 -0.615893
O6    O     O_R   0.633260 0.372840 0.522750 -0.629322
O7    O     O_R   0.410970 0.482300 0.352640 -0.616604
O8    O     O_R   0.589060 0.517660 0.383070 -0.645858
O9    O     O_3   0.720937 0.865167 0.362171 -0.610476
Zn1   Zn    Zn3+2 0.381090 0.476390 0.479680 0.938114
Zn2   Zn    Zn3+2 0.618910 0.523610 0.520320 0.913214

loop_
_geom_bond_atom_site_label_1
_geom_bond_atom_site_label_2
_ccdc_geom_bond_type
C39   H3    S    
C1    C21   S    
C26   N4    S    
C27   C29   A    
C42   O9    S    
C19   H23   S    
C12   C48   A    
O6    Zn2   S    
C4    O3    A    
C45   C46   A    
C16   O6    A    
C26   C27   A    
C37   C38   A    
C13   C18   A    
C25   H5    S    
C43   H18   S    
C30   C31   A    
N2    Zn2   S    
C11   C14   A    
C23   C40   A    
O3    Zn1   S    
C29   C33   A    
C35   N1    A    
C20   H13   S    
C10   H27   S    
O5    Zn1   S    
C24   N3    S    
C47   H10   S    
C6    C15   A    
C47   C48   A    
C2    C44   A    
C8    C9    A    
C9    H28   S    
C9    C10   A    
C42   H14   S    
H25   N5    S    
C22   H2    S    
O4    Zn2   S    
C16   O5    A    
C27   C30   A    
C34   N5    S    
C43   H16   S    
C8    C21   A    
C1    O1    A    
C22   C31   A    
C6    H12   S    
C34   C44   A    
C24   C25   A    
C36   N1    A    
C39   C40   A    
C25   C26   A    
O8    Zn2   S    
C24   N2    A    
C29   N2    A    
C12   C41   A    
H21   N4    S    
C37   H1    S    
O1    Zn1   S    
C31   C32   A    
C28   C38   S    
C43   H17   S    
C23   C34   A    
C8    H26   S    
C17   C18   A    
C13   C21   A    
C28   O8    A    
H22   N4    S    
H24   N5    S    
C30   C35   A    
C7    C16   S    
C7    C19   A    
C17   O9    S    
C42   C43   S    
N1    Zn1   S    
C3    C4    S    
C6    C20   A    
C44   C45   A    
C48   H11   S    
C1    O2    A    
C15   C17   A    
C46   C47   A    
C40   C41   A    
C14   C19   A    
C3    C5    A    
C23   H7    S    
C4    O4    A    
C22   C36   A    
C5    C46   A    
C5    H9    S    
H20   N3    S    
C32   C33   A    
C2    C3    A    
C36   H30   S    
O7    Zn1   S    
C11   C13   A    
C38   C39   A    
C33   H6    S    
C18   H29   S    
C28   O7    A    
C10   C11   A    
H19   N3    S    
C7    C20   A    
C12   C37   A    
C35   H4    S    
C41   C45   A    
C14   C15   A    
C2    H8    S    
O2    Zn2   S    
C42   H15   S    
C32   H31   S    
