data_mof_unit_64741.cif
_audit_creation_date              2012-10-26T19:16:39-0400
_audit_creation_method            fapswitch 2.2
_symmetry_space_group_name_H-M    P1
_symmetry_Int_Tables_number       1
_space_group_crystal_system       triclinic
_cell_length_a                    13.903145
_cell_length_b                    14.769087
_cell_length_c                    16.001991
_cell_angle_alpha                 90.019205
_cell_angle_beta                  89.978996
_cell_angle_gamma                 84.862458
_cell_volume                      3272.59616802

loop_
_atom_site_label
_atom_site_type_symbol
_atom_type_description
_atom_site_fract_x
_atom_site_fract_y
_atom_site_fract_z
_atom_type_partial_charge
C1    C     C_R   0.499969 0.500036 0.659155 0.546721
C2    C     C_R   0.440974 0.957067 0.444576 -0.102224
C3    C     C_1   0.500029 0.197284 0.499982 0.139514
C4    C     C_1   0.499971 0.802716 0.500018 0.139514
C5    C     C_R   0.683476 0.485457 0.499973 0.547976
C6    C     C_R   0.316524 0.514543 0.500027 0.547976
C7    C     C_1   0.213505 0.523449 0.500041 -0.001334
C8    C     C_1   0.786495 0.476551 0.499958 -0.001335
C9    C     C_2   0.023291 0.537539 0.500066 -0.111738
C10   C     C_2   0.976709 0.462461 0.499934 -0.111738
C11   C     C_1   0.873222 0.469487 0.499946 -0.035413
C12   C     C_R   0.500031 0.499964 0.340844 0.546721
C13   C     C_1   0.126778 0.530513 0.500054 -0.035413
C14   C     C_R   0.497955 0.417754 0.043321 0.397236
C15   C     C_R   0.502045 0.582246 0.956678 0.397236
C16   C     C_R   0.500005 0.499671 0.087241 -0.016798
C17   C     C_R   0.499995 0.500329 0.912759 -0.016798
C18   C     C_R   0.502047 0.581793 0.043906 -0.130661
C19   C     C_R   0.497953 0.418207 0.956094 -0.130661
C20   C     C_1   0.500020 0.499817 0.176719 0.022309
C21   C     C_1   0.499980 0.500183 0.823280 0.022309
C22   C     C_1   0.499971 0.500087 0.748254 0.013061
C23   C     C_1   0.500029 0.499913 0.251746 0.013061
C24   C     C_R   0.440991 0.052848 0.444565 -0.098406
C25   C     C_R   0.559009 0.947152 0.555435 -0.098406
C26   C     C_R   0.500018 0.097135 0.499989 0.003632
C27   C     C_R   0.499982 0.902865 0.500011 0.003632
C28   C     C_R   0.559026 0.042933 0.555424 -0.102224
Cu1   Cu    Cu3+1 0.499970 0.410780 0.500000 1.019758
Cu2   Cu    Cu3+1 0.500030 0.589220 0.500000 1.019758
F1    F     F_    0.495965 0.337747 0.084774 -0.602937
F2    F     F_    0.504035 0.662253 0.915226 -0.602937
H1    H     H_    0.015986 0.395447 0.499816 0.143639
H2    H     H_    0.984014 0.604553 0.500184 0.143639
H3    H     H_    0.496365 0.354695 0.922405 0.153507
H4    H     H_    0.503635 0.645305 0.077595 0.153507
H5    H     H_    0.394670 0.925290 0.401095 0.121149
H6    H     H_    0.605330 0.074710 0.598905 0.121149
H7    H     H_    0.394698 0.092403 0.401078 0.126839
H8    H     H_    0.605302 0.907597 0.598922 0.126839
N1    N     N_1   0.499970 0.723290 0.500020 -0.184979
N2    N     N_1   0.500030 0.276710 0.499980 -0.184979
O1    O     O_R   0.499950 0.424680 0.619690 -0.497476
O2    O     O_R   0.500050 0.575320 0.380310 -0.497476
O3    O     O_R   0.500000 0.575360 0.619690 -0.474907
O4    O     O_R   0.500000 0.424640 0.380310 -0.474907
O5    O     O_R   0.637820 0.414010 0.499980 -0.488887
O6    O     O_R   0.362180 0.585990 0.500020 -0.488888
O7    O     O_R   0.637870 0.564690 0.499980 -0.489580
O8    O     O_R   0.362130 0.435310 0.500020 -0.489580

loop_
_geom_bond_atom_site_label_1
_geom_bond_atom_site_label_2
_ccdc_geom_bond_type
C15   C18   A    
Cu2   N1    S    
C2    C27   A    
Cu1   N2    S    
C25   C27   A    
C9    C10   D    
C14   F1    S    
Cu2   O3    S    
C26   C28   A    
C2    H5    S    
C20   C23   T    
C28   H6    S    
Cu1   O4    S    
C16   C20   S    
C1    O3    A    
C4    C27   S    
C1    C22   S    
C3    N2    T    
C19   H3    S    
C21   C22   T    
Cu1   O1    S    
C25   C28   A    
C5    O5    A    
C12   C23   S    
C5    O7    A    
Cu1   Cu2   S    
C6    O6    A    
Cu1   O5    S    
C8    C11   T    
Cu2   O6    S    
C17   C19   A    
Cu2   O7    S    
C24   C26   A    
C6    C7    S    
Cu2   O2    S    
Cu1   O8    S    
C25   H8    S    
C2    C24   A    
C9    H2    S    
C14   C16   A    
C5    C8    S    
C4    N1    T    
C7    C13   T    
C24   H7    S    
C16   C18   A    
C10   H1    S    
C10   C11   S    
C15   C17   A    
C9    C13   S    
C12   O2    A    
C6    O8    A    
C18   H4    S    
C14   C19   A    
C1    O1    A    
C3    C26   S    
C17   C21   S    
C12   O4    A    
C15   F2    S    
