data_mof_unit_40433.cif
_audit_creation_date              2012-12-10T18:58:37-0500
_audit_creation_method            fapswitch 2.2
_symmetry_space_group_name_H-M    P1
_symmetry_Int_Tables_number       1
_space_group_crystal_system       triclinic
_cell_length_a                    10.573087
_cell_length_b                    9.8898
_cell_length_c                    17.395275
_cell_angle_alpha                 89.903906
_cell_angle_beta                  90.782181
_cell_angle_gamma                 89.990039
_cell_volume                      1818.77729541

loop_
_atom_site_label
_atom_site_type_symbol
_atom_type_description
_atom_site_fract_x
_atom_site_fract_y
_atom_site_fract_z
_atom_type_partial_charge
C1    C     C_R   0.260645 0.500120 0.499885 0.977216
C2    C     C_R   0.739315 0.500112 0.500116 0.975088
C3    C     C_1   0.599815 0.496043 0.966593 -0.030146
C4    C     C_1   0.601218 0.495650 0.034888 -0.059361
C5    C     C_R   0.063899 0.505003 0.429260 -0.000390
C6    C     C_R   0.935925 0.500239 0.570789 -0.001182
C7    C     C_R   0.932617 0.503753 0.429297 0.002794
C8    C     C_R   0.067203 0.498911 0.570721 0.005202
C9    C     C_R   0.503975 0.499929 0.353198 0.907600
C10   C     C_R   0.501615 0.499635 0.646918 0.909674
C11   C     C_R   0.871644 0.500815 0.500059 -0.064648
C12   C     C_R   0.128233 0.500799 0.499953 -0.065545
C13   C     C_R   0.554811 0.620097 0.848855 0.230209
C14   C     C_R   0.580094 0.372601 0.155521 0.222826
C15   C     C_R   0.570694 0.620761 0.153425 0.219778
C16   C     C_R   0.581396 0.374150 0.845136 0.198377
C17   C     C_R   0.518579 0.618698 0.771605 -0.302239
C18   C     C_R   0.547920 0.375505 0.233289 -0.233358
C19   C     C_R   0.541602 0.620789 0.231007 -0.235193
C20   C     C_R   0.550412 0.375870 0.767183 -0.216007
C21   C     C_R   0.519971 0.497780 0.730069 -0.108692
C22   C     C_R   0.527754 0.498876 0.270823 -0.133854
C23   C     C_R   0.590529 0.072204 0.540615 0.164291
C24   C     C_R   0.412749 0.927340 0.456955 0.171492
C25   C     C_R   0.410193 0.072452 0.458802 0.164034
C26   C     C_R   0.588068 0.927067 0.542491 0.170439
C27   C     C_R   0.585289 0.497280 0.885529 0.034070
C28   C     C_R   0.589285 0.496454 0.115917 0.000653
H1    H     H_    0.492328 0.712664 0.743718 0.168800
H2    H     H_    0.538093 0.282011 0.264938 0.174336
H3    H     H_    0.531211 0.716676 0.260036 0.178963
H4    H     H_    0.551923 0.281545 0.735636 0.166181
N1    N     N_R   0.500000 0.857200 0.500000 -0.137748
N2    N     N_R   0.500000 0.142800 0.500000 -0.135512
O1    O     O_R   0.316770 0.614620 0.500000 -0.616845
O2    O     O_R   0.683230 0.385380 0.500000 -0.592910
O3    O     O_R   0.683230 0.614620 0.500000 -0.617864
O4    O     O_R   0.316770 0.385380 0.500000 -0.591167
O5    O     O_R   0.500010 0.614710 0.389120 -0.595934
O6    O     O_R   0.499990 0.385290 0.610880 -0.618831
O7    O     O_R   0.499990 0.614710 0.610880 -0.594847
O8    O     O_R   0.500010 0.385290 0.389120 -0.617389
Zn1   Zn    Zn3+2 0.500000 0.653120 0.500000 0.975969
Zn2   Zn    Zn3+2 0.500000 0.346880 0.500000 0.972567
N3    N     N_2   0.557738 0.744603 0.889946 -0.303129
H5    H     H_    0.495188 0.816290 0.869039 0.221340
C29   C     C_3   0.683478 0.799317 0.901520 -0.811844
H6    H     H_    0.678865 0.889323 0.939361 0.238744
H7    H     H_    0.724098 0.829852 0.845519 0.243752
H8    H     H_    0.746642 0.723858 0.929742 0.245510
N4    N     N_2   0.601561 0.247962 0.115755 -0.307893
H9    H     H_    0.554364 0.237458 0.063868 0.230927
C30   C     C_3   0.619154 0.123460 0.158468 -0.811673
H10   H     H_    0.654046 0.043744 0.119238 0.254270
H11   H     H_    0.527937 0.089645 0.182956 0.237813
H12   H     H_    0.691179 0.137289 0.204889 0.247812
N5    N     N_2   0.580559 0.746628 0.113952 -0.312096
H13   H     H_    0.644486 0.747717 0.069752 0.242253
C31   C     C_3   0.460264 0.806491 0.092635 -0.789361
H14   H     H_    0.476208 0.904587 0.063198 0.239447
H15   H     H_    0.402883 0.825333 0.144577 0.242003
H16   H     H_    0.407531 0.738701 0.052630 0.252296
N6    N     N_2   0.608059 0.248110 0.881861 -0.308599
H17   H     H_    0.666636 0.253475 0.929631 0.230206
C32   C     C_3   0.498067 0.164062 0.893824 -0.824787
H18   H     H_    0.526859 0.068748 0.922805 0.239167
H19   H     H_    0.452161 0.138038 0.837970 0.247869
H20   H     H_    0.429201 0.217233 0.930864 0.240034
N7    N     N_2   0.685550 0.146077 0.581004 -0.241519
H21   H     H_    0.682176 0.137955 0.639944 0.215687
C33   C     C_3   0.811973 0.138396 0.550115 -0.746227
H22   H     H_    0.858795 0.042296 0.566398 0.207245
H23   H     H_    0.870170 0.221555 0.574358 0.239279
H24   H     H_    0.809578 0.148805 0.486467 0.245258
N8    N     N_2   0.322787 0.852602 0.412990 -0.238406
H25   H     H_    0.235000 0.840755 0.437035 0.226620
C34   C     C_3   0.324803 0.865868 0.330162 -0.804434
H26   H     H_    0.243958 0.928777 0.309967 0.218173
H27   H     H_    0.314632 0.764225 0.303948 0.250580
H28   H     H_    0.414748 0.911792 0.310449 0.225779
N9    N     N_2   0.317264 0.146598 0.416620 -0.240748
H29   H     H_    0.323557 0.138301 0.357796 0.216147
C35   C     C_3   0.189267 0.139110 0.445046 -0.748677
H30   H     H_    0.142480 0.044238 0.426616 0.207150
H31   H     H_    0.133177 0.224101 0.420792 0.239831
H32   H     H_    0.188477 0.146740 0.508795 0.244997
N10   N     N_2   0.680928 0.852013 0.584175 -0.240412
H33   H     H_    0.766216 0.838955 0.557254 0.227890
C36   C     C_3   0.687211 0.866752 0.666840 -0.797997
H34   H     H_    0.767973 0.932544 0.683575 0.218973
H35   H     H_    0.703906 0.766057 0.693125 0.255347
H36   H     H_    0.598078 0.909606 0.689671 0.228969
N11   N     N_3   0.133120 0.510017 0.358795 -0.473062
H37   H     H_    0.107797 0.598021 0.329012 0.186459
H38   H     H_    0.108202 0.426405 0.325211 0.180890
N12   N     N_3   0.866639 0.500626 0.641306 -0.469578
H39   H     H_    0.892079 0.586476 0.672859 0.185966
H40   H     H_    0.891278 0.414745 0.673226 0.182998
N13   N     N_3   0.860053 0.505523 0.358845 -0.472335
H41   H     H_    0.884075 0.420758 0.326351 0.185632
H42   H     H_    0.883104 0.592546 0.327893 0.188236
N14   N     N_3   0.139689 0.496003 0.641168 -0.477228
H43   H     H_    0.116614 0.580978 0.673742 0.184366
H44   H     H_    0.115416 0.409221 0.671989 0.183193

loop_
_geom_bond_atom_site_label_1
_geom_bond_atom_site_label_2
_ccdc_geom_bond_type
N10   H33   S    
N6    C32   S    
N11   H37   S    
C17   H1    S    
C23   N7    S    
C30   H11   S    
C19   H3    S    
N9    H29   S    
N5    H13   S    
C29   H7    S    
C30   H10   S    
C7    C11   A    
C9    O8    A    
C7    N13   S    
C9    C22   S    
N5    C31   S    
C9    O5    A    
C10   O6    A    
C23   C26   A    
N7    C33   S    
C14   C18   A    
C4    C28   S    
C35   H30   S    
C26   N10   S    
C32   H19   S    
N12   H40   S    
C18   H2    S    
C16   N6    S    
C36   H35   S    
O1    Zn1   S    
O7    Zn1   S    
C16   C20   A    
C25   N2    A    
C32   H20   S    
C16   C27   A    
C34   H27   S    
C31   H14   S    
N11   H38   S    
C10   O7    A    
C25   N9    S    
C15   N5    S    
N7    H21   S    
C1    C12   S    
O8    Zn2   S    
C2    C11   S    
N9    C35   S    
C29   H8    S    
N3    C29   S    
C10   C21   S    
C31   H15   S    
N4    H9    S    
N1    Zn1   S    
C29   H6    S    
C19   C22   A    
N2    Zn2   S    
C24   C25   A    
C5    C12   A    
C6    C11   A    
C33   H23   S    
C6    C8    A    
C34   H26   S    
C17   C21   A    
N4    C30   S    
O3    Zn1   S    
C15   C19   A    
N8    H25   S    
O4    Zn2   S    
C26   N1    A    
C5    N11   S    
C14   N4    S    
C8    C12   A    
C23   N2    A    
N12   H39   S    
C36   H36   S    
N14   H44   S    
N8    C34   S    
C1    O4    A    
C35   H31   S    
C6    N12   S    
N10   C36   S    
O2    Zn2   S    
C3    C4    T    
C1    O1    A    
C5    C7    A    
C20   H4    S    
C30   H12   S    
C2    O2    A    
C31   H16   S    
N13   H42   S    
C18   C22   A    
C33   H24   S    
O5    Zn1   S    
C24   N8    S    
C24   N1    A    
N13   H41   S    
C13   C17   A    
C3    C27   S    
C33   H22   S    
C13   N3    S    
C34   H28   S    
C2    O3    A    
C15   C28   A    
N14   H43   S    
N6    H17   S    
N3    H5    S    
O6    Zn2   S    
C35   H32   S    
C20   C21   A    
C32   H18   S    
C13   C27   A    
C14   C28   A    
C36   H34   S    
C8    N14   S    
