data_mof_unit_49896.cif
_audit_creation_date              2013-03-05T16:36:14-0500
_audit_creation_method            fapswitch 2.2
_symmetry_space_group_name_H-M    P1
_symmetry_Int_Tables_number       1
_space_group_crystal_system       monoclinic
_cell_length_a                    27.788549
_cell_length_b                    9.119689
_cell_length_c                    7.778221
_cell_angle_alpha                 89.997539
_cell_angle_beta                  90.0
_cell_angle_gamma                 90.0
_cell_volume                      1971.17951251

loop_
_atom_site_label
_atom_site_type_symbol
_atom_site_description
_atom_site_fract_x
_atom_site_fract_y
_atom_site_fract_z
_atom_type_partial_charge
O1    O     O_R   0.500000 0.288390 0.642760 -0.574912
O2    O     O_R   0.500000 0.711610 0.357240 -0.574912
O3    O     O_R   0.500000 0.711610 0.642760 -0.574941
O4    O     O_R   0.500000 0.288390 0.357240 -0.574941
C1    C     C_R   0.500000 0.219951 0.500002 0.851323
C2    C     C_R   0.500000 0.780049 0.499998 0.851323
O5    O     O_R   0.430260 0.500000 0.642770 -0.585511
O6    O     O_R   0.569740 0.500000 0.357230 -0.585517
O7    O     O_R   0.569740 0.500000 0.642770 -0.585518
O8    O     O_R   0.430260 0.500000 0.357230 -0.585511
C3    C     C_R   0.407134 0.500000 0.500000 0.796932
C4    C     C_R   0.592866 0.500000 0.500000 0.796938
Cu1   Cu    Cu3+1 0.500000 0.500000 0.669080 1.009195
Cu2   Cu    Cu3+1 0.500000 0.500000 0.330920 1.009195
C5    C     C_R   0.177510 0.371750 0.469405 0.584690
C6    C     C_R   0.822483 0.628240 0.469337 0.584732
C7    C     C_R   0.177510 0.628250 0.530595 0.584691
C8    C     C_R   0.822483 0.371760 0.530663 0.584732
O9    O     O_2   0.202377 0.247110 0.440123 -0.512673
O10   O     O_2   0.797613 0.752858 0.439950 -0.512599
O11   O     O_2   0.202377 0.752890 0.559877 -0.512674
O12   O     O_2   0.797613 0.247143 0.560050 -0.512599
N1    N     N_R   0.201598 0.500000 0.500000 -0.472735
N2    N     N_R   0.798398 0.500000 0.500000 -0.472794
C9    C     C_R   0.278378 0.511198 0.655263 -0.096197
C10   C     C_R   0.721626 0.510237 0.344625 -0.096304
C11   C     C_R   0.278378 0.488802 0.344737 -0.096196
C12   C     C_R   0.721626 0.489763 0.655375 -0.096304
C13   C     C_R   0.328566 0.510876 0.655493 -0.204085
C14   C     C_R   0.671438 0.509922 0.344398 -0.203955
C15   C     C_R   0.328566 0.489124 0.344507 -0.204085
C16   C     C_R   0.671438 0.490078 0.655602 -0.203955
C17   C     C_R   0.253169 0.500000 0.500000 0.343653
C18   C     C_R   0.746830 0.500000 0.500000 0.343982
C19   C     C_R   0.101546 0.500000 0.500000 -0.063786
C20   C     C_R   0.898447 0.500000 0.500000 -0.063771
C21   C     C_R   0.127007 0.369138 0.469760 -0.093797
C22   C     C_R   0.872985 0.630859 0.469712 -0.093834
C23   C     C_R   0.127007 0.630863 0.530240 -0.093797
C24   C     C_R   0.872985 0.369142 0.530288 -0.093834
C25   C     C_R   0.101539 0.239928 0.436185 -0.232555
C26   C     C_R   0.898454 0.760064 0.436106 -0.232554
C27   C     C_R   0.101539 0.760072 0.563815 -0.232555
C28   C     C_R   0.898454 0.239936 0.563894 -0.232555
C29   C     C_R   0.354127 0.500000 0.500000 -0.038693
C30   C     C_R   0.645875 0.500000 0.500000 -0.038698
H1    H     H_    0.347297 0.480489 0.222826 0.160551
H2    H     H_    0.652708 0.482219 0.777375 0.160508
H3    H     H_    0.347297 0.519511 0.777174 0.160551
H4    H     H_    0.652708 0.517781 0.222625 0.160508
H5    H     H_    0.259019 0.480334 0.224308 0.139615
H6    H     H_    0.740987 0.482047 0.775883 0.139405
H7    H     H_    0.259019 0.519666 0.775692 0.139615
H8    H     H_    0.740987 0.517953 0.224117 0.139405
H9    H     H_    0.120250 0.139738 0.402466 0.214170
H10   H     H_    0.879742 0.860250 0.402359 0.214172
H11   H     H_    0.120250 0.860262 0.597534 0.214170
H12   H     H_    0.879742 0.139751 0.597641 0.214172
C31   C     C_R   0.974712 0.365628 0.513149 -0.048106
C32   C     C_R   0.025280 0.634374 0.513118 -0.048113
C33   C     C_R   0.974712 0.634373 0.486851 -0.048106
C34   C     C_R   0.025280 0.365627 0.486882 -0.048113
C35   C     C_R   0.949403 0.500000 0.500000 -0.077306
C36   C     C_R   0.050589 0.500000 0.500000 -0.077319
C37   C     C_R   0.948548 0.238208 0.558248 0.720009
C38   C     C_R   0.051445 0.761797 0.558186 0.720023
C39   C     C_R   0.948548 0.761793 0.441752 0.720009
C40   C     C_R   0.051445 0.238204 0.441814 0.720024
C41   C     C_1   0.500000 0.065311 0.500003 -0.165084
C42   C     C_1   0.500000 0.934689 0.499997 -0.165084
N3    N     N_1   0.500000 0.500000 0.076820 -0.049844
N4    N     N_1   0.500000 0.500000 0.923180 -0.049844
F1    F     F_    0.970895 0.116240 0.617099 -0.538017
F2    F     F_    0.029097 0.883763 0.617029 -0.537994
F3    F     F_    0.970895 0.883761 0.382901 -0.538018
F4    F     F_    0.029097 0.116237 0.382971 -0.537994

loop_
_geom_bond_atom_site_label_1
_geom_bond_atom_site_label_2
_geom_bond_distance
_ccdc_geom_bond_type
Cu2   N3    1.976445 S    
C19   C23   1.407207 A    
O3    C2    1.273800 A    
C39   F3    1.353653 S    
C13   H3    1.083025 S    
C11   C17   1.399870 A    
O5    C3    1.283034 A    
C7    N1    1.368447 A    
C8    N2    1.368403 A    
C19   C21   1.407208 A    
C9    H7    1.082967 S    
C22   C26   1.399148 A    
C38   F2    1.353649 S    
C37   F1    1.353653 S    
C7    C23   1.403605 A    
C33   C35   1.416606 A    
O7    Cu1   1.948746 S    
C25   H9    1.083520 S    
C34   C36   1.416603 A    
C26   H10   1.083521 S    
C10   C18   1.399946 A    
C5    C21   1.403605 A    
C28   H12   1.083520 S    
N1    C17   1.433100 S    
C1    C41   1.410263 S    
C19   C36   1.416007 A    
C20   C35   1.416004 A    
C24   C28   1.399148 A    
O3    Cu1   1.940637 S    
C6    O10   1.349599 S    
C5    N1    1.368448 A    
C14   H4    1.083131 S    
C32   C38   1.414899 A    
C6    N2    1.368403 A    
C15   H1    1.083025 S    
Cu1   Cu2   2.630284 S    
O4    Cu2   1.940638 S    
C16   H2    1.083131 S    
C28   C37   1.392821 A    
O2    C2    1.273816 A    
C10   H8    1.083069 S    
C11   H5    1.082967 S    
C25   C40   1.392819 A    
C9    C13   1.394650 A    
C11   C15   1.394650 A    
C12   C16   1.394653 A    
C4    C30   1.473027 S    
O8    Cu2   1.948748 S    
C23   C27   1.399153 A    
C7    O11   1.349601 S    
C13   C29   1.406127 A    
C32   C33   1.419987 A    
C5    O9    1.349601 S    
C33   C39   1.414908 A    
C20   C24   1.407221 A    
O6    C4    1.283044 A    
C10   C14   1.394653 A    
C26   C39   1.392821 A    
O1    C1    1.273816 A    
C3    C29   1.472985 S    
O1    Cu1   1.940656 S    
C2    C42   1.410263 S    
C31   C34   1.419984 A    
O6    Cu2   1.948746 S    
C8    O12   1.349599 S    
C16   C30   1.406280 A    
C14   C30   1.406281 A    
O4    C1    1.273800 A    
Cu1   N4    1.976445 S    
C40   F4    1.353648 S    
C31   C35   1.416607 A    
C34   C40   1.414899 A    
C32   C36   1.416603 A    
C20   C22   1.407221 A    
N3    N4    1.195047 T    
C31   C37   1.414910 A    
C12   H6    1.083069 S    
C27   C38   1.392819 A    
C21   C25   1.399153 A    
C41   C42   1.191237 T    
O2    Cu2   1.940655 S    
O7    C4    1.283043 A    
N2    C18   1.432997 S    
O8    C3    1.283034 A    
C27   H11   1.083519 S    
C12   C18   1.399945 A    
O5    Cu1   1.948748 S    
C8    C24   1.403600 A    
C15   C29   1.406127 A    
C9    C17   1.399869 A    
C6    C22   1.403600 A    
