data_mof_unit_28052.cif
_audit_creation_date              2013-03-05T15:40:09-0500
_audit_creation_method            fapswitch 2.2
_symmetry_space_group_name_H-M    P1
_symmetry_Int_Tables_number       1
_space_group_crystal_system       triclinic
_cell_length_a                    28.106693
_cell_length_b                    18.625311
_cell_length_c                    16.808907
_cell_angle_alpha                 89.801519
_cell_angle_beta                  63.323499
_cell_angle_gamma                 89.506214
_cell_volume                      7862.45481963

loop_
_atom_site_label
_atom_site_type_symbol
_atom_site_description
_atom_site_fract_x
_atom_site_fract_y
_atom_site_fract_z
_atom_type_partial_charge
O1    O     O_R   0.255040 0.869590 0.478480 -0.550541
O2    O     O_R   0.744960 0.130410 0.521520 -0.550148
O3    O     O_R   0.744960 0.869590 0.521520 -0.551517
O4    O     O_R   0.255040 0.130410 0.478480 -0.551353
O5    O     O_R   0.755040 0.369590 0.478480 -0.558360
O6    O     O_R   0.244960 0.630410 0.521520 -0.552302
O7    O     O_R   0.244960 0.369590 0.521520 -0.547131
O8    O     O_R   0.755040 0.630410 0.478480 -0.545660
O9    O     O_R   0.182050 0.796550 0.624440 -0.563067
O10   O     O_R   0.817950 0.203450 0.375560 -0.574726
O11   O     O_R   0.817950 0.796550 0.375560 -0.539966
O12   O     O_R   0.182050 0.203450 0.624440 -0.562406
O13   O     O_R   0.682050 0.296550 0.624440 -0.559061
O14   O     O_R   0.317950 0.703450 0.375560 -0.556825
O15   O     O_R   0.317950 0.296550 0.375560 -0.562330
O16   O     O_R   0.682050 0.703450 0.624440 -0.561825
Cu1   Cu    Cu3+1 0.209920 0.785290 0.495070 0.975911
Cu2   Cu    Cu3+1 0.790080 0.214710 0.504930 0.964409
Cu3   Cu    Cu3+1 0.790080 0.785290 0.504930 0.953997
Cu4   Cu    Cu3+1 0.209920 0.214710 0.495070 0.966934
Cu5   Cu    Cu3+1 0.709920 0.285290 0.495070 0.968775
Cu6   Cu    Cu3+1 0.290080 0.714710 0.504930 0.962176
Cu7   Cu    Cu3+1 0.290080 0.285290 0.504930 0.967349
Cu8   Cu    Cu3+1 0.709920 0.714710 0.495070 0.951985
C1    C     C_R   0.295438 0.729899 0.328972 0.833593
C2    C     C_R   0.706349 0.273869 0.670179 0.854957
C3    C     C_R   0.703634 0.730937 0.670630 0.850961
C4    C     C_R   0.292502 0.276309 0.331001 0.854178
C5    C     C_R   0.795332 0.229595 0.328688 0.849376
C6    C     C_R   0.207747 0.777262 0.668368 0.860482
C7    C     C_R   0.204158 0.230549 0.671138 0.837633
C8    C     C_R   0.793098 0.774798 0.330650 0.850145
O17   O     O_R   0.250530 0.763330 0.367210 -0.550595
O18   O     O_R   0.749470 0.236670 0.632790 -0.537172
O19   O     O_R   0.749470 0.763330 0.632790 -0.579431
O20   O     O_R   0.250530 0.236670 0.367210 -0.552408
O21   O     O_R   0.750530 0.263330 0.367210 -0.534465
O22   O     O_R   0.249470 0.736670 0.632790 -0.559073
O23   O     O_R   0.249470 0.263330 0.632790 -0.544345
O24   O     O_R   0.750530 0.736670 0.367210 -0.574735
O25   O     O_R   0.177260 0.690030 0.513710 -0.558130
O26   O     O_R   0.822740 0.309970 0.486290 -0.546429
O27   O     O_R   0.822740 0.690030 0.486290 -0.547720
O28   O     O_R   0.177260 0.309970 0.513710 -0.569697
O29   O     O_R   0.677260 0.190030 0.513710 -0.575836
O30   O     O_R   0.322740 0.809970 0.486290 -0.574923
O31   O     O_R   0.322740 0.190030 0.486290 -0.604393
O32   O     O_R   0.677260 0.809970 0.513710 -0.553773
C9    C     C_R   0.198164 0.631075 0.522302 0.843416
C10   C     C_R   0.800100 0.369373 0.485082 0.842727
C11   C     C_R   0.804300 0.632253 0.469977 0.864557
C12   C     C_R   0.195610 0.367506 0.531477 0.831704
C13   C     C_R   0.700704 0.131254 0.512874 0.875511
C14   C     C_R   0.299075 0.869078 0.487355 0.851805
C15   C     C_R   0.303707 0.131956 0.470246 0.867108
C16   C     C_R   0.696126 0.868429 0.527895 0.823777
H1    H     H_    0.479847 0.820419 0.710134 0.156892
H2    H     H_    0.520498 0.176498 0.288225 0.178070
H3    H     H_    0.395539 0.821833 0.702261 0.195626
H4    H     H_    0.593401 0.193272 0.320310 0.237266
H5    H     H_    0.978819 0.310663 0.706468 0.173241
H6    H     H_    0.024321 0.690553 0.309777 0.165125
H7    H     H_    0.894627 0.320189 0.698984 0.171376
H8    H     H_    0.095686 0.703240 0.354333 0.191884
C17   C     C_R   0.069093 0.614397 0.447384 -0.038105
C18   C     C_R   0.920975 0.399703 0.595062 0.006145
C19   C     C_R   0.981154 0.610498 0.410898 -0.025902
C20   C     C_R   0.017164 0.392728 0.606579 0.003457
C21   C     C_R   0.570787 0.111120 0.422908 -0.016275
C22   C     C_R   0.419821 0.901841 0.597102 -0.004995
C23   C     C_R   0.477031 0.107831 0.402067 0.005725
C24   C     C_R   0.516674 0.900378 0.606859 -0.002965
C25   C     C_R   0.066557 0.661329 0.383972 -0.270913
C26   C     C_R   0.926051 0.355437 0.658802 -0.232190
C27   C     C_R   0.024760 0.655474 0.360823 -0.194859
C28   C     C_R   0.974204 0.350528 0.663373 -0.219833
C29   C     C_R   0.564993 0.153101 0.357992 -0.223191
C30   C     C_R   0.425921 0.859305 0.661533 -0.208170
C31   C     C_R   0.520946 0.146745 0.342779 -0.228726
C32   C     C_R   0.474302 0.858132 0.665789 -0.238399
C33   C     C_R   0.989031 0.555969 0.460752 0.008804
C34   C     C_R   0.007083 0.448478 0.560429 0.003538
C35   C     C_R   0.034902 0.556205 0.474768 0.051423
C36   C     C_R   0.959049 0.451328 0.552957 0.006773
C37   C     C_R   0.485311 0.058182 0.458096 0.007143
C38   C     C_R   0.505738 0.954911 0.560327 0.007444
C39   C     C_R   0.533532 0.058393 0.465837 0.012811
C40   C     C_R   0.456966 0.955356 0.554649 0.006813
C41   C     C_R   0.447091 0.006078 0.502204 -0.045491
C42   C     C_R   0.544493 0.005961 0.515260 -0.045276
C43   C     C_R   0.950499 0.503359 0.500337 -0.048814
C44   C     C_R   0.045009 0.500773 0.521207 -0.039915
C45   C     C_R   0.367984 0.940419 0.517407 -0.100688
C46   C     C_R   0.627428 0.065550 0.490902 -0.096155
C47   C     C_R   0.610128 0.939262 0.547564 -0.076559
C48   C     C_R   0.386719 0.063001 0.451969 -0.083403
C49   C     C_R   0.871310 0.439739 0.512226 -0.091950
C50   C     C_R   0.121619 0.563781 0.515173 -0.062869
C51   C     C_R   0.109111 0.434757 0.556227 -0.088296
C52   C     C_R   0.889774 0.566045 0.454104 -0.075772
C53   C     C_R   0.326315 0.936287 0.489055 -0.208106
C54   C     C_R   0.672257 0.065406 0.511449 -0.197351
C55   C     C_R   0.663718 0.935868 0.539157 -0.195587
C56   C     C_R   0.335249 0.064513 0.456365 -0.175548
C57   C     C_R   0.829408 0.436456 0.484142 -0.203736
C58   C     C_R   0.167308 0.564485 0.531731 -0.206610
C59   C     C_R   0.161929 0.433619 0.549966 -0.204707
C60   C     C_R   0.837970 0.566305 0.455775 -0.198739
C61   C     C_R   0.310515 0.999164 0.459427 0.374287
C62   C     C_R   0.689590 0.000906 0.534628 0.366057
C63   C     C_R   0.814525 0.500077 0.454611 0.369512
C64   C     C_R   0.185941 0.499542 0.551326 0.382487
C65   C     C_R   0.400139 0.003380 0.491442 -0.063984
C66   C     C_R   0.594180 0.003808 0.518503 -0.064829
C67   C     C_R   0.903690 0.502979 0.488344 -0.059293
C68   C     C_R   0.092530 0.499359 0.530220 -0.053468
C69   C     C_R   0.570389 0.883951 0.585642 0.405148
C70   C     C_R   0.425851 0.116385 0.405780 0.416570
C71   C     C_R   0.381014 0.886468 0.567708 0.366494
C72   C     C_R   0.612455 0.122866 0.446255 0.379149
C73   C     C_R   0.070326 0.377760 0.590277 0.382489
C74   C     C_R   0.928799 0.623809 0.420521 0.414896
C75   C     C_R   0.883939 0.385053 0.562510 0.368899
C76   C     C_R   0.099979 0.626506 0.493154 0.426636
H9    H     H_    0.141488 0.744782 0.089012 0.173671
H10   H     H_    0.804907 0.124652 0.944451 0.164525
H11   H     H_    0.777316 0.881343 0.016176 0.170021
H12   H     H_    0.195468 0.129426 0.051136 0.177590
H13   H     H_    0.640178 0.265968 0.106140 0.162123
H14   H     H_    0.332909 0.684385 0.925061 0.179317
H15   H     H_    0.351944 0.285340 0.904928 0.179472
H16   H     H_    0.720379 0.637792 0.983025 0.181187
C77   C     C_R   0.209794 0.736772 0.957973 -0.046652
C78   C     C_R   0.760150 0.191778 0.061471 -0.046306
C79   C     C_R   0.782268 0.769622 0.039460 -0.015039
C80   C     C_R   0.243801 0.190075 0.930454 -0.051074
C81   C     C_R   0.694485 0.219825 0.977445 -0.051350
C82   C     C_R   0.266409 0.700382 0.055866 -0.046678
C83   C     C_R   0.300351 0.230458 0.028288 -0.052250
C84   C     C_R   0.715725 0.750598 0.953624 -0.016539
C85   C     C_R   0.261328 0.704810 0.915488 0.564422
C86   C     C_R   0.706679 0.213194 0.111835 0.581844
C87   C     C_R   0.766050 0.700521 0.029636 0.571966
C88   C     C_R   0.294839 0.222647 0.887098 0.556647
C89   C     C_R   0.732704 0.163050 0.946480 0.564866
C90   C     C_R   0.210354 0.708296 0.099889 0.570561
C91   C     C_R   0.261698 0.175052 0.059615 0.565664
C92   C     C_R   0.735451 0.819894 0.958963 0.546907
C93   C     C_R   0.290895 0.696289 0.962654 -0.385259
C94   C     C_R   0.677345 0.238149 0.067744 -0.379093
C95   C     C_R   0.732564 0.691788 0.988589 -0.390931
C96   C     C_R   0.318516 0.250154 0.938270 -0.366795
C97   C     C_R   0.770546 0.158500 0.979765 -0.380584
C98   C     C_R   0.183354 0.732462 0.051871 -0.375198
C99   C     C_R   0.229938 0.162538 0.016394 -0.367826
C100  C     C_R   0.766491 0.828052 0.004843 -0.417630
C101  C     C_R   0.135529 0.810859 0.946266 -0.354556
C102  C     C_R   0.844298 0.147329 0.067364 -0.372301
C103  C     C_R   0.858477 0.825014 0.053686 -0.379974
C104  C     C_R   0.161401 0.138763 0.923071 -0.373618
C105  C     C_R   0.631211 0.306522 0.951976 -0.345583
C106  C     C_R   0.344250 0.647391 0.069593 -0.382815
C107  C     C_R   0.367893 0.308609 0.051125 -0.355266
C108  C     C_R   0.641412 0.680025 0.944595 -0.371955
H17   H     H_    0.113567 0.814717 0.017722 0.187219
H18   H     H_    0.854335 0.116965 0.007518 0.191459
H19   H     H_    0.875968 0.836615 0.983030 0.195965
H20   H     H_    0.154617 0.103044 0.977590 0.187758
H21   H     H_    0.607873 0.312120 0.023018 0.182812
H22   H     H_    0.352256 0.614962 0.011616 0.193419
H23   H     H_    0.392868 0.310466 0.980254 0.185077
H24   H     H_    0.630612 0.659770 0.010937 0.196340
C109  C     C_R   0.116618 0.850044 0.894031 -0.167039
C110  C     C_R   0.878672 0.142542 0.107284 -0.165328
C111  C     C_R   0.880068 0.855324 0.106649 -0.155143
C112  C     C_R   0.123650 0.138773 0.889298 -0.161222
C113  C     C_R   0.616855 0.349027 0.896263 -0.161421
C114  C     C_R   0.378898 0.642672 0.108375 -0.158449
C115  C     C_R   0.382655 0.350984 0.105652 -0.157637
C116  C     C_R   0.615973 0.652011 0.895491 -0.168903
C117  C     C_R   0.142146 0.842307 0.801019 0.346858
C118  C     C_R   0.865541 0.176634 0.188766 0.324908
C119  C     C_R   0.854929 0.843901 0.198893 0.353856
C120  C     C_R   0.134111 0.177325 0.811471 0.357861
C121  C     C_R   0.644936 0.342053 0.803695 0.342348
C122  C     C_R   0.366176 0.677626 0.189287 0.328883
C123  C     C_R   0.353997 0.345672 0.198444 0.322825
C124  C     C_R   0.633368 0.673714 0.806788 0.321331
C125  C     C_R   0.186389 0.797214 0.762443 -0.311351
C126  C     C_R   0.816816 0.212940 0.232068 -0.298095
C127  C     C_R   0.813215 0.794299 0.236011 -0.301778
C128  C     C_R   0.182446 0.213573 0.767307 -0.311211
C129  C     C_R   0.684392 0.289322 0.766823 -0.280956
C130  C     C_R   0.317218 0.713922 0.232779 -0.302368
C131  C     C_R   0.313436 0.295113 0.235667 -0.296958
C132  C     C_R   0.676661 0.720435 0.767831 -0.249551
C133  C     C_R   0.214036 0.781800 0.811910 0.467948
C134  C     C_R   0.787054 0.227801 0.184127 0.441095
C135  C     C_R   0.788778 0.768915 0.183726 0.410425
C136  C     C_R   0.212270 0.228048 0.814115 0.408189
C137  C     C_R   0.704291 0.254888 0.821434 0.372576
C138  C     C_R   0.287211 0.728769 0.185505 0.411606
C139  C     C_R   0.291131 0.266801 0.182118 0.406190
C140  C     C_R   0.691624 0.760701 0.823101 0.439469
C141  C     C_R   0.184999 0.773888 0.905297 0.020045
C142  C     C_R   0.797740 0.189240 0.104339 0.015521
C143  C     C_R   0.811766 0.784408 0.092036 0.047171
C144  C     C_R   0.206085 0.184719 0.887950 0.014751
C145  C     C_R   0.675619 0.259282 0.916568 0.011241
C146  C     C_R   0.299317 0.692156 0.104936 0.030102
C147  C     C_R   0.320676 0.267401 0.087653 0.018760
C148  C     C_R   0.680590 0.734321 0.908888 0.020800
O33   O     O_R   0.051640 0.926880 0.885090 -0.536336
O34   O     O_R   0.948360 0.073120 0.114910 -0.539715
O35   O     O_R   0.948360 0.926880 0.114910 -0.537341
O36   O     O_R   0.051640 0.073120 0.885090 -0.543863
O37   O     O_R   0.551640 0.426880 0.885090 -0.531965
O38   O     O_R   0.448360 0.573120 0.114910 -0.540406
O39   O     O_R   0.448360 0.426880 0.114910 -0.541789
O40   O     O_R   0.551640 0.573120 0.885090 -0.544275
Cu9   Cu    Cu3+1 0.495240 0.500000 0.924150 0.944287
Cu10  Cu    Cu3+1 0.504760 0.500000 0.075850 0.952588
Cu11  Cu    Cu3+1 0.995240 0.000000 0.924150 0.949610
Cu12  Cu    Cu3+1 0.004760 0.000000 0.075850 0.957902
C149  C     C_R   0.925693 0.904292 0.067239 0.837652
C150  C     C_R   0.075494 0.093964 0.931559 0.840453
C151  C     C_R   0.072737 0.901944 0.933999 0.833800
C152  C     C_R   0.925565 0.095543 0.067278 0.830770
C153  C     C_R   0.426668 0.402744 0.066566 0.835095
C154  C     C_R   0.573549 0.597266 0.933372 0.834502
C155  C     C_R   0.573330 0.402419 0.933832 0.835729
C156  C     C_R   0.425567 0.595483 0.067534 0.835888
O41   O     O_R   0.940620 0.926560 0.986760 -0.608356
O42   O     O_R   0.059380 0.073440 0.013240 -0.607795
O43   O     O_R   0.059380 0.926560 0.013240 -0.603895
O44   O     O_R   0.940620 0.073440 0.986760 -0.612867
O45   O     O_R   0.440620 0.426560 0.986760 -0.604338
O46   O     O_R   0.559380 0.573440 0.013240 -0.603456
O47   O     O_R   0.559380 0.426560 0.013240 -0.606253
O48   O     O_R   0.440620 0.573440 0.986760 -0.618197
O49   O     O_3   0.268520 0.997603 0.437505 -0.544622
C157  C     C_3   0.289386 0.997488 0.343867 -0.246525
H25   H     H_    0.310517 0.048379 0.314466 0.152313
H26   H     H_    0.255833 0.993060 0.326523 0.183509
H27   H     H_    0.316332 0.950575 0.313801 0.121465
O50   O     O_3   0.735353 0.001056 0.546467 -0.554817
C158  C     C_3   0.721415 0.003516 0.638351 -0.245455
H28   H     H_    0.683335 0.032753 0.679135 0.121549
H29   H     H_    0.753301 0.031877 0.647099 0.195221
H30   H     H_    0.719816 0.948341 0.663793 0.191263
O51   O     O_3   0.773631 0.498495 0.430067 -0.552050
C159  C     C_3   0.796157 0.498589 0.336269 -0.241929
H31   H     H_    0.763467 0.496615 0.316576 0.190164
H32   H     H_    0.821965 0.450461 0.307535 0.121616
H33   H     H_    0.818961 0.548557 0.307601 0.151305
O52   O     O_3   0.230126 0.500134 0.567332 -0.546440
C160  C     C_3   0.212392 0.502301 0.660207 -0.258606
H34   H     H_    0.247622 0.506970 0.673017 0.170329
H35   H     H_    0.191239 0.452105 0.692447 0.140203
H36   H     H_    0.186462 0.549996 0.690911 0.139014
O53   O     O_3   0.583054 0.813463 0.596759 -0.581658
C161  C     C_3   0.566859 0.765593 0.546967 0.059971
H37   H     H_    0.564785 0.791722 0.488631 0.121788
H38   H     H_    0.527084 0.743507 0.590872 0.142089
C162  C     C_3   0.604352 0.701380 0.511171 -0.712311
H39   H     H_    0.615420 0.680042 0.562125 0.275628
H40   H     H_    0.584485 0.658168 0.492042 0.152386
H41   H     H_    0.640592 0.716690 0.450667 0.255885
O54   O     O_3   0.416860 0.166116 0.351249 -0.591713
C163  C     C_3   0.428094 0.238513 0.364956 0.082351
H42   H     H_    0.454977 0.245280 0.396481 0.100941
H43   H     H_    0.391583 0.266907 0.410803 0.212708
C164  C     C_3   0.449786 0.279243 0.276867 -0.728328
H44   H     H_    0.423078 0.271547 0.245196 0.274159
H45   H     H_    0.452113 0.337470 0.288813 0.221728
H46   H     H_    0.490039 0.259862 0.229763 0.203234
O55   O     O_3   0.355771 0.820522 0.592626 -0.536464
C165  C     C_3   0.392896 0.762874 0.551277 0.123345
H47   H     H_    0.434443 0.773542 0.539242 0.091273
H48   H     H_    0.396166 0.750417 0.484598 0.155247
C166  C     C_3   0.374607 0.695486 0.608181 -0.711220
H49   H     H_    0.335248 0.678456 0.615265 0.274598
H50   H     H_    0.403656 0.651218 0.576132 0.154343
H51   H     H_    0.371923 0.705494 0.675060 0.268286
O56   O     O_3   0.640603 0.186309 0.414627 -0.529238
C167  C     C_3   0.607187 0.247320 0.456947 0.131956
H52   H     H_    0.605327 0.257996 0.523150 0.159900
H53   H     H_    0.564919 0.241642 0.470469 0.094698
C168  C     C_3   0.628527 0.313968 0.399554 -0.721861
H54   H     H_    0.634031 0.303877 0.330924 0.272486
H55   H     H_    0.599962 0.359256 0.428452 0.155283
H56   H     H_    0.666957 0.329857 0.397230 0.274360
O57   O     O_3   0.082009 0.309312 0.610154 -0.576644
C169  C     C_3   0.075479 0.258648 0.552010 0.102587
H57   H     H_    0.105402 0.267589 0.481897 0.149223
H58   H     H_    0.035849 0.261769 0.552818 0.109244
C170  C     C_3   0.081248 0.181932 0.578244 -0.725400
H59   H     H_    0.056957 0.173886 0.650663 0.257303
H60   H     H_    0.067464 0.143956 0.542281 0.158622
H61   H     H_    0.123284 0.168865 0.559608 0.274956
O58   O     O_3   0.916593 0.692183 0.398981 -0.555086
C171  C     C_3   0.933677 0.748299 0.438881 0.078602
H62   H     H_    0.969664 0.774100 0.386974 0.139472
H63   H     H_    0.942450 0.729314 0.494032 0.118773
C172  C     C_3   0.893511 0.809121 0.477693 -0.686921
H64   H     H_    0.858856 0.791361 0.539185 0.251878
H65   H     H_    0.912149 0.853779 0.497048 0.141387
H66   H     H_    0.881891 0.830401 0.427442 0.279243
O59   O     O_3   0.866924 0.314517 0.572488 -0.572983
C173  C     C_3   0.910146 0.269748 0.514254 0.088217
H67   H     H_    0.940143 0.262610 0.539640 0.125700
H68   H     H_    0.930741 0.292935 0.445886 0.127586
C174  C     C_3   0.890878 0.194751 0.506808 -0.722177
H69   H     H_    0.882005 0.192027 0.449043 0.255669
H70   H     H_    0.922607 0.154413 0.495623 0.156024
H71   H     H_    0.854672 0.180085 0.567913 0.267217
O60   O     O_3   0.082889 0.679930 0.558894 -0.549250
C175  C     C_3   0.070100 0.746157 0.531534 0.081646
H72   H     H_    0.032599 0.741783 0.524978 0.139258
H73   H     H_    0.103448 0.764840 0.468254 0.145459
C176  C     C_3   0.060147 0.802597 0.602580 -0.737630
H74   H     H_    0.096693 0.810993 0.610600 0.289125
H75   H     H_    0.048580 0.854307 0.582799 0.173158
H76   H     H_    0.027555 0.785201 0.667225 0.244307
O61   O     O_3   0.284372 0.682354 0.827898 -0.542217
C177  C     C_3   0.262311 0.615678 0.823616 -0.351105
H77   H     H_    0.218954 0.620699 0.843422 0.150311
H78   H     H_    0.269602 0.574744 0.865418 0.157156
H79   H     H_    0.282026 0.596361 0.753794 0.187736
O62   O     O_3   0.680345 0.194311 0.200416 -0.547265
C178  C     C_3   0.677248 0.118088 0.205821 -0.312442
H80   H     H_    0.645281 0.098943 0.189556 0.160058
H81   H     H_    0.668140 0.101015 0.273927 0.206024
H82   H     H_    0.715069 0.089443 0.163229 0.143584
O63   O     O_3   0.779816 0.641590 0.065187 -0.542069
C179  C     C_3   0.826886 0.611307 0.998502 -0.343824
H83   H     H_    0.860393 0.650060 0.975541 0.164758
H84   H     H_    0.820795 0.592027 0.941135 0.155637
H85   H     H_    0.838268 0.564174 0.026925 0.186280
O64   O     O_3   0.322732 0.229095 0.795556 -0.525750
C180  C     C_3   0.339466 0.160252 0.758072 -0.282381
H86   H     H_    0.305105 0.126335 0.766777 0.147454
H87   H     H_    0.363786 0.132794 0.786425 0.138927
H88   H     H_    0.364920 0.166330 0.685446 0.188259
O65   O     O_3   0.735544 0.113468 0.883187 -0.558026
C181  C     C_3   0.685682 0.080411 0.910189 -0.307406
H89   H     H_    0.653138 0.119295 0.921274 0.161090
H90   H     H_    0.675398 0.047163 0.970743 0.165496
H91   H     H_    0.688446 0.045040 0.855684 0.165266
O66   O     O_3   0.181448 0.692902 0.189379 -0.544534
C182  C     C_3   0.178445 0.617499 0.199813 -0.337615
H92   H     H_    0.217860 0.590150 0.164808 0.145293
H93   H     H_    0.150144 0.595253 0.176824 0.164996
H94   H     H_    0.163561 0.604503 0.271308 0.188302
O67   O     O_3   0.253038 0.133047 0.132828 -0.523091
C183  C     C_3   0.297485 0.087445 0.111060 -0.323438
H95   H     H_    0.334044 0.118299 0.097414 0.160100
H96   H     H_    0.304229 0.052287 0.053434 0.142198
H97   H     H_    0.289537 0.052224 0.168884 0.172353
O68   O     O_3   0.720438 0.880466 0.927647 -0.591267
C184  C     C_3   0.765136 0.923956 0.876607 -0.267641
H98   H     H_    0.802221 0.892140 0.837906 0.153838
H99   H     H_    0.771442 0.963688 0.920009 0.165556
H100  H     H_    0.757347 0.954735 0.827181 0.196457
O69   O     O_3   0.126810 0.883296 0.747206 -0.539599
C185  C     C_3   0.158945 0.945444 0.719893 0.095223
H101  H     H_    0.201748 0.931033 0.679782 0.113226
H102  H     H_    0.154520 0.977952 0.778403 0.114317
C186  C     C_3   0.141932 0.991811 0.662330 -0.666518
H103  H     H_    0.166958 0.040665 0.640696 0.213814
H104  H     H_    0.146788 0.961292 0.602455 0.240923
H105  H     H_    0.099590 0.008360 0.700784 0.245979
O70   O     O_3   0.899718 0.172122 0.227593 -0.540761
C187  C     C_3   0.933041 0.232876 0.201656 0.102584
H106  H     H_    0.909757 0.282119 0.234199 0.117525
H107  H     H_    0.952488 0.240285 0.127925 0.112434
C188  C     C_3   0.976827 0.222875 0.230423 -0.781095
H108  H     H_    0.001371 0.174858 0.197265 0.256160
H109  H     H_    0.002815 0.270829 0.211543 0.185581
H110  H     H_    0.959200 0.215673 0.303625 0.234259
O71   O     O_3   0.869556 0.884024 0.253607 -0.539506
C189  C     C_3   0.836878 0.946274 0.280958 0.079825
H111  H     H_    0.794129 0.931862 0.319863 0.116046
H112  H     H_    0.841690 0.979480 0.222550 0.119206
C190  C     C_3   0.852700 0.991721 0.340126 -0.637630
H113  H     H_    0.895000 0.007976 0.302924 0.245486
H114  H     H_    0.827296 0.040758 0.361599 0.220641
H115  H     H_    0.847368 0.960679 0.400063 0.241136
O72   O     O_3   0.095371 0.183600 0.782341 -0.544935
C191  C     C_3   0.067130 0.249095 0.814832 0.090966
H116  H     H_    0.081910 0.289395 0.760508 0.193962
H117  H     H_    0.071343 0.272637 0.872486 0.086699
C192  C     C_3   0.007907 0.237418 0.845545 -0.775167
H118  H     H_    0.991901 0.200977 0.903980 0.244472
H119  H     H_    0.986324 0.289582 0.865168 0.184247
H120  H     H_    0.000768 0.213544 0.791622 0.243078
O73   O     O_3   0.634203 0.387819 0.748410 -0.539808
C193  C     C_3   0.669420 0.446611 0.725708 0.066804
H121  H     H_    0.711828 0.428426 0.694595 0.103805
H122  H     H_    0.661323 0.479506 0.785739 0.130413
C194  C     C_3   0.661309 0.493892 0.658781 -0.627665
H123  H     H_    0.619372 0.513071 0.687441 0.260659
H124  H     H_    0.688103 0.540961 0.641699 0.213313
H125  H     H_    0.670568 0.463004 0.597095 0.250256
O74   O     O_3   0.400041 0.672266 0.228608 -0.541092
C195  C     C_3   0.432854 0.733454 0.204987 0.111538
H126  H     H_    0.408659 0.783259 0.231633 0.113239
H127  H     H_    0.456205 0.737932 0.131257 0.114963
C196  C     C_3   0.471883 0.726958 0.244556 -0.774507
H128  H     H_    0.497286 0.678363 0.217933 0.249281
H129  H     H_    0.497742 0.775015 0.226911 0.188134
H130  H     H_    0.449856 0.722869 0.318187 0.231856
O75   O     O_3   0.364586 0.391543 0.253202 -0.548376
C197  C     C_3   0.329124 0.450775 0.274983 0.067827
H131  H     H_    0.286921 0.433122 0.311145 0.108476
H132  H     H_    0.334753 0.480790 0.213920 0.121666
C198  C     C_3   0.339948 0.501775 0.335309 -0.642310
H133  H     H_    0.381533 0.521404 0.300833 0.257769
H134  H     H_    0.312255 0.548462 0.352600 0.205276
H135  H     H_    0.333871 0.473749 0.397554 0.253263
O76   O     O_3   0.608288 0.648460 0.757793 -0.555839
C199  C     C_3   0.565571 0.695397 0.769946 0.128130
H136  H     H_    0.581173 0.742052 0.724804 0.199273
H137  H     H_    0.543567 0.715596 0.839703 0.100214
C200  C     C_3   0.525533 0.656421 0.747691 -0.765033
H138  H     H_    0.503241 0.616175 0.799593 0.258698
H139  H     H_    0.496349 0.695524 0.744812 0.178058
H140  H     H_    0.545932 0.628337 0.682854 0.233010
O77   O     O_3   0.267430 0.800040 0.774309 -0.504236
C201  C     C_3   0.272483 0.873355 0.792998 0.107666
H141  H     H_    0.235419 0.906319 0.813780 0.084770
H142  H     H_    0.302077 0.898857 0.731399 0.173129
C202  C     C_3   0.292375 0.879760 0.863474 -0.829607
H143  H     H_    0.326103 0.842168 0.848976 0.255800
H144  H     H_    0.305971 0.935448 0.864248 0.199645
H145  H     H_    0.259861 0.867809 0.930424 0.238412
O78   O     O_3   0.748141 0.280681 0.215045 -0.516410
C203  C     C_3   0.771040 0.345633 0.171672 0.046694
H146  H     H_    0.789910 0.339525 0.097819 0.128002
H147  H     H_    0.801412 0.364297 0.192293 0.118931
C204  C     C_3   0.727835 0.402944 0.197037 -0.781311
H148  H     H_    0.709534 0.413065 0.269786 0.240966
H149  H     H_    0.745363 0.453742 0.161579 0.214759
H150  H     H_    0.696577 0.385203 0.178315 0.247523
O79   O     O_3   0.741451 0.731286 0.221963 -0.521944
C205  C     C_3   0.698173 0.780350 0.249218 0.073939
H151  H     H_    0.705077 0.824456 0.200281 0.120196
H152  H     H_    0.690366 0.804956 0.314140 0.144839
C206  C     C_3   0.648659 0.740345 0.260071 -0.774743
H153  H     H_    0.640840 0.694610 0.306679 0.246774
H154  H     H_    0.613714 0.777255 0.286783 0.185950
H155  H     H_    0.654341 0.719444 0.194557 0.251275
O80   O     O_3   0.244927 0.287295 0.790040 -0.504217
C207  C     C_3   0.214827 0.347277 0.838017 0.089280
H156  H     H_    0.193300 0.336210 0.910935 0.122069
H157  H     H_    0.185543 0.363212 0.813312 0.107475
C208  C     C_3   0.252140 0.409699 0.824496 -0.786033
H158  H     H_    0.275969 0.420668 0.752365 0.251134
H159  H     H_    0.228554 0.458329 0.857617 0.172973
H160  H     H_    0.279588 0.396644 0.853798 0.252624
O81   O     O_3   0.751426 0.216375 0.780275 -0.518471
C209  C     C_3   0.793479 0.255989 0.782528 0.139128
H161  H     H_    0.782403 0.281255 0.848546 0.100560
H162  H     H_    0.804963 0.299941 0.732917 0.164884
C210  C     C_3   0.840982 0.205606 0.762051 -0.778808
H163  H     H_    0.867389 0.203506 0.689752 0.232278
H164  H     H_    0.864370 0.224525 0.796336 0.180486
H165  H     H_    0.828227 0.149998 0.784288 0.282972
O82   O     O_3   0.244920 0.776614 0.219923 -0.514671
C211  C     C_3   0.263122 0.845071 0.183222 0.069210
H166  H     H_    0.282288 0.843654 0.109014 0.127072
H167  H     H_    0.291966 0.866013 0.205991 0.113114
C212  C     C_3   0.215780 0.896305 0.214344 -0.764413
H168  H     H_    0.196420 0.900482 0.288113 0.245638
H169  H     H_    0.229223 0.950339 0.185364 0.198340
H170  H     H_    0.186367 0.876389 0.192516 0.252677
O83   O     O_3   0.238986 0.243754 0.222594 -0.506720
C213  C     C_3   0.205062 0.303147 0.233218 0.087142
H171  H     H_    0.217182 0.333221 0.169614 0.117400
H172  H     H_    0.205011 0.340208 0.285119 0.117052
C214  C     C_3   0.148670 0.276389 0.262750 -0.768885
H173  H     H_    0.135639 0.244321 0.324673 0.239556
H174  H     H_    0.121059 0.322720 0.275494 0.180842
H175  H     H_    0.147192 0.242180 0.209910 0.249985
O84   O     O_3   0.708265 0.830098 0.796991 -0.558866
C215  C     C_3   0.662832 0.876753 0.831615 0.131382
H176  H     H_    0.677459 0.932373 0.822885 0.152965
H177  H     H_    0.637779 0.869265 0.904536 0.168412
C216  C     C_3   0.627733 0.871508 0.783805 -0.950650
H178  H     H_    0.652002 0.862675 0.711574 0.255588
H179  H     H_    0.599050 0.827184 0.812611 0.220531
H180  H     H_    0.604434 0.921983 0.793581 0.221122

loop_
_geom_bond_atom_site_label_1
_geom_bond_atom_site_label_2
_geom_bond_distance
_ccdc_geom_bond_type
C134  C142  1.430382 A    
Cu2   Cu5   2.667295 S    
C59   C64   1.411357 A    
Cu11  Cu12  2.680725 S    
O82   C211  1.410827 S    
C212  H170  1.110966 S    
C84   C148  1.518585 S    
O75   C197  1.414503 S    
C138  C146  1.415452 A    
C38   C40   1.416188 A    
C131  C139  1.413130 A    
Cu6   O22   1.970915 S    
C83   C96   1.410843 A    
C164  H46   1.108065 S    
C129  C137  1.420397 A    
C6    O22   1.289411 A    
C200  H138  1.108294 S    
C6    C125  1.465211 S    
O68   C184  1.419648 S    
C188  H110  1.109087 S    
Cu11  O41   1.977593 S    
C197  C198  1.520435 S    
Cu4   O28   1.950973 S    
C173  H67   1.109644 S    
C102  C110  1.404206 A    
C206  H154  1.110585 S    
C157  H26   1.108834 S    
O3    Cu3   1.949990 S    
C177  H77   1.112921 S    
C36   C43   1.400039 A    
C132  C140  1.401246 A    
C91   C99   1.402168 A    
C175  C176  1.520881 S    
C51   C73   1.448590 A    
C70   O54   1.400022 S    
C49   C57   1.454028 A    
C87   C95   1.405282 A    
C136  C144  1.422524 A    
C197  H132  1.114802 S    
C25   C27   1.398684 A    
C52   C67   1.432994 A    
O25   C9    1.278971 A    
C29   C31   1.378050 A    
O37   Cu9   1.957849 S    
C184  H100  1.106631 S    
C41   C65   1.411514 A    
C157  H27   1.113750 S    
O62   C178  1.423176 S    
C88   O64   1.383439 S    
C101  C141  1.417295 A    
O64   C180  1.411173 S    
C38   C42   1.391543 A    
C45   C53   1.451794 A    
C51   C68   1.423257 A    
C137  O81   1.382881 S    
C204  H150  1.110891 S    
C191  H117  1.119061 S    
C106  C146  1.398087 A    
C3    O19   1.305089 A    
O58   C171  1.440646 S    
C7    C128  1.483067 S    
C183  H97   1.108205 S    
O36   C150  1.298916 A    
C8    C127  1.474495 S    
Cu9   O45   1.977593 S    
C166  H51   1.108706 S    
C20   C73   1.418150 A    
O79   C205  1.417010 S    
C114  C156  1.462911 S    
O67   C183  1.410438 S    
C90   C98   1.404124 A    
C13   C54   1.475899 S    
C202  H145  1.108811 S    
C140  C148  1.418831 A    
C177  H79   1.108809 S    
O13   Cu5   1.963967 S    
C44   C68   1.410221 A    
H2    C31   1.074657 S    
C34   C36   1.411497 A    
C48   C56   1.415053 A    
O72   C191  1.419528 S    
C208  H160  1.110852 S    
C163  H43   1.100012 S    
H6    C27   1.081075 S    
C153  O45   1.294828 A    
C89   O65   1.385755 S    
C111  C119  1.401864 A    
C158  H30   1.105198 S    
C125  C133  1.397239 A    
C140  O84   1.379930 S    
C112  C120  1.401836 A    
C205  H152  1.111654 S    
C167  C168  1.521963 S    
C16   C55   1.506774 S    
C179  H83   1.113670 S    
C174  H71   1.108835 S    
O2    C13   1.315521 A    
H11   C100  1.082876 S    
C71   O55   1.390005 S    
C103  C143  1.401805 A    
C9    C58   1.486366 S    
H7    C26   1.067033 S    
C112  C150  1.478236 S    
C192  H118  1.109822 S    
C50   C58   1.431065 A    
C60   C63   1.407812 A    
C212  H168  1.110766 S    
Cu3   O19   1.971908 S    
O69   C185  1.417192 S    
C167  H53   1.110755 S    
O10   Cu2   1.963967 S    
C200  H140  1.108071 S    
C103  H19   1.083831 S    
C209  H162  1.108090 S    
C128  C136  1.411365 A    
C215  H176  1.102647 S    
C201  H142  1.104376 S    
C204  H149  1.110650 S    
O63   C179  1.408834 S    
C114  C122  1.402459 A    
O5    Cu5   1.965971 S    
C40   C41   1.398598 A    
C46   C54   1.448287 A    
C176  H74   1.106792 S    
C3    C132  1.473289 S    
C118  C126  1.398196 A    
C196  H128  1.110868 S    
O74   C195  1.411819 S    
C1    C130  1.479563 S    
C159  H31   1.108548 S    
C190  H114  1.110812 S    
O6    Cu6   1.965969 S    
O76   C199  1.417906 S    
C73   O57   1.390344 S    
C14   C53   1.479999 S    
C21   C29   1.407131 A    
C182  H92   1.113568 S    
C122  O74   1.384024 S    
C110  C118  1.401211 A    
C23   C31   1.395681 A    
C194  H123  1.110472 S    
O15   C4    1.304736 A    
C182  H94   1.107302 S    
C113  C121  1.399218 A    
O77   C201  1.424731 S    
C47   C69   1.446308 A    
C50   C76   1.434806 A    
O84   C215  1.428805 S    
C85   O61   1.380370 S    
C55   C62   1.402422 A    
C216  H180  1.110615 S    
Cu12  O43   1.964291 S    
C108  C148  1.420221 A    
O7    C12   1.321323 A    
C181  H89   1.110144 S    
Cu2   O26   1.963349 S    
O53   C161  1.434179 S    
C30   C32   1.393402 A    
C174  H70   1.110854 S    
C78   C97   1.413571 A    
C18   C26   1.406099 A    
Cu10  O47   1.964291 S    
C215  C216  1.530579 S    
O14   Cu6   1.963967 S    
O49   C157  1.411545 S    
C118  O70   1.384523 S    
C187  H106  1.113711 S    
C175  H73   1.113046 S    
C185  H101  1.114145 S    
C46   C72   1.466371 A    
C172  H65   1.111082 S    
C10   C57   1.498629 S    
H8    C25   1.081636 S    
C207  H156  1.115949 S    
C115  C153  1.475710 S    
C4    C131  1.479806 S    
C205  C206  1.521247 S    
C105  H21   1.078638 S    
O28   C12   1.285932 A    
O16   C3    1.289953 A    
C42   C66   1.422052 A    
O29   C13   1.269713 A    
O55   C165  1.435055 S    
C170  H60   1.110755 S    
H1    C32   1.082616 S    
C139  C147  1.423750 A    
O66   C182  1.413244 S    
C179  H85   1.109372 S    
Cu2   O18   1.970915 S    
C86   O62   1.378335 S    
H3    C30   1.080285 S    
C137  C145  1.433850 A    
O40   Cu9   1.973626 S    
C198  H134  1.110586 S    
C47   C55   1.449163 A    
C168  H54   1.109420 S    
Cu5   O29   1.963349 S    
C180  H87   1.113882 S    
C82   C93   1.402152 A    
C192  H120  1.107764 S    
C171  H63   1.116553 S    
C52   C60   1.443625 A    
Cu7   O31   1.950974 S    
C77   C98   1.413084 A    
Cu8   O32   1.950973 S    
C109  C151  1.465220 S    
C101  H17   1.078404 S    
C80   C99   1.412272 A    
C211  H166  1.115088 S    
C15   C56   1.488427 S    
C82   C146  1.496992 S    
C87   O63   1.381052 S    
C79   C100  1.392329 A    
C119  O71   1.386665 S    
C187  C188  1.520796 S    
O4    Cu4   1.949992 S    
O57   C169  1.431684 S    
C104  C144  1.416958 A    
C162  H40   1.110717 S    
H5    C28   1.082513 S    
C181  H90   1.112459 S    
Cu4   Cu7   2.686928 S    
C121  O73   1.386707 S    
C176  H76   1.110744 S    
C207  C208  1.519344 S    
C183  H96   1.113715 S    
C214  H173  1.109708 S    
C196  H130  1.110423 S    
C216  H179  1.106407 S    
C185  C186  1.520898 S    
O38   C156  1.291983 A    
O9    C6    1.291703 A    
O26   C10   1.276238 A    
C159  H33   1.113109 S    
O11   C8    1.304749 A    
C19   C33   1.392677 A    
O12   C7    1.305028 A    
C107  C115  1.409699 A    
C199  H136  1.107418 S    
C193  H122  1.114019 S    
C81   C94   1.412996 A    
C108  H24   1.083096 S    
C49   C67   1.436649 A    
C194  H125  1.110430 S    
H9    C98   1.078773 S    
C139  O83   1.381530 S    
C181  H91   1.103997 S    
C79   C143  1.485834 S    
C208  H158  1.109885 S    
O50   C158  1.413458 S    
C195  H126  1.114486 S    
C122  C130  1.403237 A    
C211  C212  1.520309 S    
C21   C39   1.384189 A    
C33   C35   1.410879 A    
C161  H37   1.117691 S    
C20   C28   1.401159 A    
O1    Cu1   1.965971 S    
C150  O42   1.295099 A    
C160  H36   1.113978 S    
C20   C34   1.395333 A    
C186  H105  1.110638 S    
C120  O72   1.383892 S    
C49   C75   1.461169 A    
O73   C193  1.414587 S    
O39   Cu10  1.973625 S    
C209  C210  1.532897 S    
C82   C90   1.414741 A    
O7    Cu7   1.949990 S    
C164  H45   1.111405 S    
C213  H171  1.115769 S    
O13   C2    1.303932 A    
C178  H82   1.112084 S    
C188  H109  1.110467 S    
Cu11  O44   1.964289 S    
C19   C27   1.413829 A    
C199  C200  1.525531 S    
C206  H153  1.109821 S    
C165  H47   1.111617 S    
C177  H78   1.113483 S    
C45   C71   1.457571 A    
C64   O52   1.383875 S    
C136  O80   1.380137 S    
O78   C203  1.412531 S    
C1    O17   1.286387 A    
C186  H104  1.110825 S    
C189  H111  1.114532 S    
C185  H102  1.114600 S    
C200  H139  1.109368 S    
C133  C141  1.414927 A    
O35   Cu12  1.973625 S    
C161  C162  1.522134 S    
O51   C159  1.410804 S    
C104  H20   1.076949 S    
C184  H99   1.110568 S    
O11   Cu3   1.963800 S    
C133  O77   1.386609 S    
C81   C89   1.423119 A    
C76   O60   1.401670 S    
C169  H57   1.111333 S    
C78   C142  1.523204 S    
C115  C123  1.401269 A    
C47   C66   1.438060 A    
C53   C61   1.415024 A    
C130  C138  1.419670 A    
C48   C65   1.424071 A    
C168  H56   1.106055 S    
C34   C44   1.379142 A    
Cu12  O42   1.977594 S    
C203  H146  1.115356 S    
C116  C124  1.403638 A    
C117  C125  1.390670 A    
C12   C59   1.492460 S    
C202  H144  1.110569 S    
C165  C166  1.521765 S    
C120  C128  1.399751 A    
C107  H23   1.078126 S    
C134  O78   1.382371 S    
C108  C116  1.415646 A    
C69   O53   1.391118 S    
C57   C63   1.413993 A    
C109  C117  1.404437 A    
O54   C163  1.430333 S    
C208  H159  1.109752 S    
C163  C164  1.526176 S    
H15   C96   1.077788 S    
Cu1   O17   1.970914 S    
O39   C153  1.298562 A    
Cu3   O27   1.950974 S    
C173  H68   1.116138 S    
C158  H29   1.109450 S    
C102  C142  1.401261 A    
C169  C170  1.522569 S    
C179  H84   1.113462 S    
C80   C144  1.525279 S    
C37   C41   1.394015 A    
C209  H161  1.113855 S    
C189  C190  1.520798 S    
O81   C209  1.413607 S    
C105  C145  1.415627 A    
C81   C145  1.530893 S    
O35   C149  1.300102 A    
C203  C204  1.520446 S    
C178  H80   1.111713 S    
O56   C167  1.437609 S    
O33   C151  1.293641 A    
C78   C86   1.408579 A    
C124  O76   1.387803 S    
C106  H22   1.081664 S    
C61   O49   1.386003 S    
C206  H155  1.110726 S    
C83   C91   1.422813 A    
O30   C14   1.277329 A    
C157  H25   1.112801 S    
C75   O59   1.385665 S    
C45   C65   1.429321 A    
C215  H177  1.114988 S    
C84   C95   1.416184 A    
C110  C152  1.464242 S    
C26   C28   1.391829 A    
Cu6   O30   1.963349 S    
O4    C15   1.312134 A    
C197  H131  1.114704 S    
O5    C10   1.319996 A    
C54   C62   1.410471 A    
C166  H50   1.110479 S    
C126  C134  1.423200 A    
C159  H32   1.113634 S    
C190  H113  1.110649 S    
C212  H169  1.109403 S    
Cu8   O24   1.971906 S    
C24   C38   1.393861 A    
C182  H93   1.112001 S    
C191  H116  1.108969 S    
C51   C59   1.440341 A    
C21   C72   1.411064 A    
C77   C85   1.421852 A    
Cu1   Cu6   2.667295 S    
C111  C149  1.472534 S    
O40   C154  1.302365 A    
C149  O41   1.291334 A    
C86   C94   1.408787 A    
Cu3   Cu8   2.686928 S    
O36   Cu11  1.973626 S    
C80   C88   1.424851 A    
O33   Cu11  1.957849 S    
O10   C5    1.305267 A    
O27   C11   1.281060 A    
C174  H69   1.107038 S    
C56   C61   1.396213 A    
C43   C67   1.417720 A    
O14   C1    1.301201 A    
O61   C177  1.409186 S    
C187  H107  1.116071 S    
C17   C35   1.388308 A    
C138  O82   1.381864 S    
C33   C43   1.393756 A    
H10   C97   1.076970 S    
Cu5   O21   1.970914 S    
C4    O20   1.293980 A    
C24   C32   1.403623 A    
C172  H64   1.107121 S    
C39   C42   1.399192 A    
C5    O21   1.287165 A    
H16   C95   1.082954 S    
C163  H42   1.108696 S    
C168  H55   1.110427 S    
C207  H157  1.113476 S    
C92   C100  1.409322 A    
C2    C129  1.484125 S    
C77   C141  1.512951 S    
C88   C96   1.402891 A    
C101  C109  1.412109 A    
C173  C174  1.528136 S    
C205  H151  1.115300 S    
C92   O68   1.383840 S    
C22   C30   1.410098 A    
C74   O58   1.404060 S    
C170  H59   1.106634 S    
C22   C40   1.391670 A    
C84   C92   1.427946 A    
C191  C192  1.522665 S    
C198  H133  1.110560 S    
C46   C66   1.427056 A    
C85   C93   1.390245 A    
C58   C64   1.409624 A    
O59   C173  1.431685 S    
C35   C44   1.394427 A    
C192  H119  1.110461 S    
C171  C172  1.518270 S    
C116  C154  1.483803 S    
O83   C213  1.412479 S    
C48   C70   1.431035 A    
C127  C135  1.420619 A    
C160  H34   1.107920 S    
C167  H52   1.108924 S    
C211  H167  1.113994 S    
C17   C76   1.414413 A    
C63   O51   1.385133 S    
C17   C25   1.402153 A    
C155  O47   1.291787 A    
C201  H141  1.117101 S    
H12   C99   1.076934 S    
C210  H164  1.110820 S    
C23   C37   1.408299 A    
C2    O18   1.283951 A    
C11   C60   1.496800 S    
C176  H75   1.110545 S    
C195  C196  1.520725 S    
C24   C69   1.417571 A    
C196  H129  1.110509 S    
O34   C152  1.295991 A    
C162  H39   1.105896 S    
C52   C74   1.462685 A    
C190  H115  1.110687 S    
C89   C97   1.408510 A    
C62   O50   1.387060 S    
O15   Cu7   1.963800 S    
O16   Cu8   1.963800 S    
C103  C111  1.404984 A    
C135  O79   1.385297 S    
C199  H137  1.116596 S    
C104  C112  1.410283 A    
C193  C194  1.520846 S    
O12   Cu4   1.963800 S    
O80   C207  1.411210 S    
C5    C126  1.489354 S    
C194  H124  1.110682 S    
O38   Cu10  1.957845 S    
Cu1   O25   1.963349 S    
C37   C39   1.418550 A    
C72   O56   1.392469 S    
H4    C29   1.073047 S    
C106  C114  1.396137 A    
Cu9   O48   1.964289 S    
C107  C147  1.417726 A    
Cu4   O20   1.971906 S    
C161  H38   1.108454 S    
C213  C214  1.520647 S    
C83   C147  1.522780 S    
C166  H49   1.107291 S    
C214  H175  1.110890 S    
Cu10  O46   1.977594 S    
C160  H35   1.112656 S    
O1    C14   1.311394 A    
C175  H72   1.111584 S    
Cu9   Cu10  2.680725 S    
C123  O75   1.386188 S    
O3    C16   1.328264 A    
C50   C68   1.414662 A    
C201  C202  1.525435 S    
C22   C71   1.416356 A    
C172  H66   1.104710 S    
O52   C160  1.410175 S    
H14   C93   1.081391 S    
C135  C143  1.407856 A    
C210  H163  1.104187 S    
C213  H172  1.113812 S    
C178  H81   1.101339 S    
O8    C11   1.327264 A    
C188  H108  1.110831 S    
O34   Cu12  1.957845 S    
O9    Cu1   1.963967 S    
C170  H61   1.102959 S    
C165  H48   1.107881 S    
C154  O46   1.294858 A    
C19   C74   1.425913 A    
C198  H135  1.110686 S    
O31   C15   1.292439 A    
C186  H103  1.110871 S    
C216  H178  1.105571 S    
C180  H88   1.109579 S    
O32   C16   1.284074 A    
C91   O67   1.383262 S    
C171  H62   1.108302 S    
C189  H112  1.114761 S    
C23   C70   1.419163 A    
C123  C131  1.397093 A    
C18   C75   1.405275 A    
C121  C129  1.395290 A    
O2    Cu2   1.965969 S    
C119  C127  1.405421 A    
C113  C155  1.474438 S    
C158  H28   1.116133 S    
C151  O43   1.295184 A    
C184  H98   1.115338 S    
C210  H165  1.106488 S    
H13   C94   1.078852 S    
O70   C187  1.412783 S    
O37   C155  1.300609 A    
C169  H58   1.108870 S    
C204  H148  1.109316 S    
O71   C189  1.416114 S    
Cu7   O23   1.971908 S    
C79   C87   1.403798 A    
C183  H95   1.111917 S    
C214  H174  1.110518 S    
C7    O23   1.297623 A    
C195  H127  1.115117 S    
C8    O24   1.290293 A    
O6    C9    1.309376 A    
O60   C175  1.413895 S    
C90   O66   1.381541 S    
C162  H41   1.107234 S    
C203  H147  1.114148 S    
C152  O44   1.291084 A    
C18   C36   1.379696 A    
C102  H18   1.075974 S    
O8    Cu8   1.949992 S    
C124  C132  1.401994 A    
C202  H143  1.109325 S    
C117  O69   1.387961 S    
C156  O48   1.294622 A    
C180  H86   1.111836 S    
C193  H121  1.115133 S    
O65   C181  1.411019 S    
C105  C113  1.412488 A    
C164  H44   1.108471 S    
