data_mof_unit_30355.cif
_audit_creation_date              2013-03-05T16:33:13-0500
_audit_creation_method            fapswitch 2.2
_symmetry_space_group_name_H-M    P1
_symmetry_Int_Tables_number       1
_space_group_crystal_system       triclinic
_cell_length_a                    27.783998
_cell_length_b                    10.807876
_cell_length_c                    9.551654
_cell_angle_alpha                 89.984706
_cell_angle_beta                  90.54639
_cell_angle_gamma                 91.265109
_cell_volume                      2867.39847058

loop_
_atom_site_label
_atom_site_type_symbol
_atom_site_description
_atom_site_fract_x
_atom_site_fract_y
_atom_site_fract_z
_atom_type_partial_charge
O1    O     O_R   0.500000 0.319640 0.618810 -0.583825
O2    O     O_R   0.500010 0.319680 0.381230 -0.570111
C1    C     C_R   0.500839 0.262393 0.499849 0.794106
O3    O     O_R   0.430260 0.500000 0.618780 -0.594466
O4    O     O_R   0.430270 0.500040 0.381190 -0.493481
C2    C     C_R   0.407646 0.501003 0.499465 0.815055
Cu1   Cu    Cu3+1 0.500000 0.499980 0.640670 0.948647
Cu2   Cu    Cu3+1 0.500000 0.500020 0.359330 0.980889
O5    O     O_R   0.499990 0.680320 0.618770 -0.572350
O6    O     O_R   0.500000 0.680360 0.381190 -0.593393
O7    O     O_R   0.569730 0.499960 0.618810 -0.553584
O8    O     O_R   0.569740 0.500000 0.381220 -0.597970
C3    C     C_R   0.500646 0.737658 0.499811 0.770552
C4    C     C_R   0.592359 0.500778 0.500339 0.827556
C5    C     C_R   0.177718 0.393287 0.485080 0.543123
O9    O     O_2   0.202237 0.286906 0.482099 -0.543644
N1    N     N_R   0.202156 0.504872 0.487942 -0.451098
C6    C     C_R   0.177959 0.613996 0.486699 0.540362
C7    C     C_R   0.280271 0.571342 0.389497 -0.185564
C8    C     C_R   0.330553 0.576577 0.394867 0.430209
C9    C     C_R   0.328666 0.446254 0.602950 -0.290211
C10   C     C_R   0.278555 0.447081 0.600719 -0.099161
C11   C     C_R   0.253987 0.507513 0.492550 0.275948
C12   C     C_R   0.101712 0.499834 0.480131 -0.049774
C13   C     C_R   0.127157 0.388760 0.484021 -0.022917
C14   C     C_R   0.101700 0.275747 0.485386 -0.148516
C15   C     C_R   0.127470 0.613452 0.479755 -0.017695
C16   C     C_R   0.355007 0.507932 0.498522 -0.141791
H1    H     H_    0.346872 0.395686 0.685080 0.167393
H2    H     H_    0.258745 0.399282 0.682308 0.164445
H3    H     H_    0.120390 0.188817 0.485799 0.186265
C17   C     C_R   0.645037 0.499505 0.499555 -0.123099
C18   C     C_R   0.973948 0.381547 0.495533 -0.019998
C19   C     C_R   0.974618 0.606200 0.451278 0.065263
C20   C     C_R   0.948940 0.492875 0.473658 0.067236
C21   C     C_R   0.946992 0.272934 0.526871 -0.302837
C22   C     C_R   0.896615 0.271125 0.528963 0.496901
C23   C     C_R   0.871622 0.381869 0.507872 -0.128319
C24   C     C_R   0.897795 0.491558 0.475735 -0.110947
C25   C     C_R   0.872764 0.600613 0.446067 0.017028
C26   C     C_R   0.822349 0.598829 0.448908 0.537257
N2    N     N_R   0.797560 0.493447 0.486255 -0.457486
C27   C     C_R   0.820989 0.386830 0.517985 0.558360
C28   C     C_R   0.718194 0.416535 0.404271 -0.110610
C29   C     C_R   0.668112 0.418660 0.408462 -0.300064
C30   C     C_R   0.672662 0.581357 0.584123 0.389175
C31   C     C_R   0.722955 0.575733 0.582766 -0.181852
C32   C     C_R   0.745883 0.494629 0.491855 0.289277
O10   O     O_2   0.795246 0.287085 0.561674 -0.501835
C33   C     C_R   0.025025 0.382540 0.487115 0.071338
C34   C     C_R   0.050581 0.497348 0.476885 0.069735
C35   C     C_R   0.025550 0.609765 0.463595 0.040236
C36   C     C_R   0.051651 0.272442 0.487502 -0.206733
H4    H     H_    0.647292 0.356820 0.340869 0.163801
H5    H     H_    0.735552 0.354331 0.332690 0.148880
H6    H     H_    0.964071 0.187825 0.555125 0.148009
H7    H     H_    0.034791 0.181683 0.485532 0.134721
O11   O     O_2   0.202637 0.722852 0.493631 -0.556530
C37   C     C_R   0.102386 0.724008 0.474169 -0.143953
H8    H     H_    0.261585 0.618962 0.306069 0.170395
H9    H     H_    0.121291 0.812765 0.475895 0.186253
C38   C     C_R   0.948326 0.712368 0.416287 -0.209680
C39   C     C_R   0.898424 0.709029 0.412861 -0.159881
O12   O     O_2   0.798218 0.701723 0.414485 -0.573356
C40   C     C_R   0.052438 0.722447 0.465497 -0.210246
H10   H     H_    0.965364 0.799106 0.387351 0.131587
H11   H     H_    0.880000 0.792616 0.385074 0.164889
H12   H     H_    0.744216 0.636769 0.650085 0.163108
H13   H     H_    0.035793 0.811590 0.464966 0.135745
C41   C     C_R   0.504884 0.063712 0.624607 0.144237
C42   C     C_R   0.505483 0.129541 0.499252 -0.091500
C43   C     C_R   0.512630 0.065144 0.373477 -0.249012
H14   H     H_    0.516408 0.113603 0.274814 0.159517
C44   C     C_R   0.512224 0.936116 0.373390 -0.243399
H15   H     H_    0.515689 0.888037 0.274640 0.165712
C45   C     C_R   0.504774 0.870993 0.499132 -0.092106
C46   C     C_R   0.504245 0.936639 0.624525 0.129187
C47   C     C_3   0.470082 0.928843 0.743984 -0.473133
C48   C     C_3   0.471002 0.069426 0.744277 -0.495303
H16   H     H_    0.434505 0.887412 0.713610 0.198382
H17   H     H_    0.486925 0.888403 0.839101 0.198428
H18   H     H_    0.436011 0.110452 0.714338 0.198695
H19   H     H_    0.488828 0.109774 0.838727 0.193738
C49   C     C_R   0.528662 0.581666 0.074409 0.163738
N3    N     N_R   0.500300 0.500930 0.147930 -0.219073
C50   C     C_R   0.468063 0.427054 0.074492 0.543701
C51   C     C_R   0.467987 0.428693 0.924223 -0.181859
H20   H     H_    0.442341 0.372119 0.865683 0.147779
N4    N     N_R   0.500310 0.500890 0.852020 -0.202109
C52   C     C_R   0.528569 0.581962 0.927344 0.213493
C53   C     C_3   0.582110 0.593530 0.923573 -0.417647
C54   C     C_3   0.582163 0.592466 0.082202 -0.500671
H21   H     H_    0.599350 0.511123 0.877955 0.231093
H22   H     H_    0.594269 0.683973 0.880264 0.220550
H23   H     H_    0.599103 0.508742 0.126681 0.220909
H24   H     H_    0.594662 0.681712 0.129305 0.196230
O13   O     O_3   0.650788 0.668155 0.666796 -0.624509
C55   C     C_3   0.650779 0.781972 0.593855 0.049451
H25   H     H_    0.627659 0.773910 0.498078 0.134136
H26   H     H_    0.687993 0.811187 0.563352 0.168554
C56   C     C_3   0.630675 0.881957 0.688433 -0.341218
H27   H     H_    0.593155 0.856263 0.717126 0.215752
H28   H     H_    0.652637 0.888580 0.786134 0.227748
C57   C     C_3   0.631182 0.007880 0.615914 -0.887387
H29   H     H_    0.668710 0.037857 0.592005 0.269687
H30   H     H_    0.615135 0.077663 0.685723 0.254652
H31   H     H_    0.609870 0.003246 0.517050 0.260918
O14   O     O_3   0.433235 0.361830 0.149214 -0.566306
C58   C     C_3   0.427861 0.236988 0.106154 0.026708
H32   H     H_    0.432441 0.178250 0.200524 0.172761
H33   H     H_    0.455272 0.206416 0.030151 0.096125
C59   C     C_3   0.376900 0.214248 0.048108 -0.333303
H34   H     H_    0.350370 0.241424 0.128277 0.243913
H35   H     H_    0.371170 0.272010 0.953471 0.205379
C60   C     C_3   0.367970 0.078470 0.010336 -0.909883
H36   H     H_    0.392198 0.050449 0.925161 0.263640
H37   H     H_    0.330135 0.064410 0.974302 0.266885
H38   H     H_    0.374338 0.018619 0.102628 0.260917
O15   O     O_3   0.871903 0.162017 0.561043 -0.560616
C61   C     C_3   0.874867 0.076320 0.449287 0.074424
H39   H     H_    0.863321 0.984587 0.490794 0.181790
H40   H     H_    0.912346 0.065846 0.411377 0.106063
C62   C     C_3   0.841001 0.109567 0.327419 -0.349129
H41   H     H_    0.803644 0.117149 0.366407 0.259222
H42   H     H_    0.852345 0.200069 0.281834 0.204377
C63   C     C_3   0.841402 0.011885 0.212197 -0.885939
H43   H     H_    0.878634 0.998843 0.174369 0.254322
H44   H     H_    0.818652 0.042131 0.122876 0.267356
H45   H     H_    0.826541 0.922478 0.251723 0.281239
O16   O     O_3   0.354954 0.645205 0.294348 -0.593779
C64   C     C_3   0.375569 0.754102 0.355079 0.079686
H46   H     H_    0.406786 0.782925 0.289931 0.175639
H47   H     H_    0.390035 0.740036 0.463003 0.103884
C65   C     C_3   0.339503 0.859283 0.355679 -0.367988
H48   H     H_    0.326529 0.876260 0.247150 0.232513
H49   H     H_    0.308006 0.832738 0.420808 0.247305
C66   C     C_3   0.362518 0.978058 0.415050 -0.892189
H50   H     H_    0.372763 0.964690 0.526635 0.255158
H51   H     H_    0.336458 0.054296 0.408142 0.276021
H52   H     H_    0.395189 0.004981 0.355232 0.249676

loop_
_geom_bond_atom_site_label_1
_geom_bond_atom_site_label_2
_geom_bond_distance
_ccdc_geom_bond_type
C51   H20   1.080567 S    
C56   H27   1.109748 S    
C17   C29   1.402616 A    
C20   C24   1.421100 A    
C7    C8    1.397379 A    
C47   H17   1.111820 S    
C12   C15   1.407602 A    
C54   H24   1.111698 S    
C64   C65   1.531941 S    
C65   C66   1.528266 S    
C57   H30   1.110412 S    
O13   C55   1.413565 S    
C62   H41   1.110769 S    
C46   C47   1.492329 S    
C61   H39   1.109602 S    
Cu1   O7    1.950581 S    
C66   H51   1.110365 S    
N1    C11   1.439953 S    
C25   C39   1.396088 A    
C44   C45   1.406622 A    
C21   C22   1.399718 A    
Cu2   N3    2.019338 S    
C58   H33   1.112662 S    
C23   C24   1.412238 A    
O7    C4    1.299689 A    
C47   H16   1.112127 S    
C62   H42   1.111050 S    
C60   H36   1.107387 S    
Cu1   N4    2.018705 S    
C19   C38   1.412135 A    
C18   C21   1.412018 A    
O14   C58   1.415006 S    
C48   H18   1.112305 S    
Cu1   O5    1.960234 S    
C19   C20   1.420933 A    
C26   N2    1.366986 A    
O5    C3    1.294202 A    
C59   H34   1.111935 S    
C6    O11   1.349896 S    
C2    C16   1.466038 S    
C60   H37   1.110251 S    
C41   C42   1.392665 A    
C61   C62   1.537298 S    
C12   C34   1.420336 A    
C14   H3    1.083469 S    
C56   H28   1.111572 S    
C9    C10   1.392486 A    
C41   C46   1.373110 A    
C49   C52   1.404693 A    
O3    Cu1   1.946928 S    
C59   H35   1.110646 S    
C57   H29   1.110817 S    
C61   H40   1.113860 S    
N1    C6    1.370383 A    
C45   C46   1.392608 A    
C66   H52   1.110524 S    
C39   H11   1.079962 S    
C37   H9    1.083495 S    
C33   C36   1.414925 A    
C44   H15   1.083128 S    
C38   H10   1.077996 S    
C34   C35   1.418292 A    
Cu1   Cu2   2.687261 S    
C12   C13   1.406855 A    
C43   C44   1.394320 A    
C58   C59   1.530447 S    
C4    C17   1.464059 S    
C53   C54   1.515191 S    
C36   H7    1.077747 S    
C50   C51   1.435405 A    
C27   O10   1.348806 S    
C62   C63   1.525556 S    
C65   H49   1.110997 S    
C8    C16   1.414681 A    
C63   H45   1.109915 S    
C18   C33   1.421974 A    
N3    C50   1.374227 A    
C9    H1    1.083686 S    
C54   H23   1.111581 S    
O1    C1    1.294605 A    
C1    C42   1.444485 S    
C22   C23   1.410410 A    
C21   H6    1.077407 S    
C53   H21   1.111556 S    
C31   C32   1.401381 A    
C22   O15   1.387066 S    
C3    C45   1.443124 S    
Cu2   O8    1.946923 S    
C60   H38   1.108436 S    
C38   C39   1.386238 A    
C33   C34   1.419755 A    
N2    C32   1.437635 S    
C49   N3    1.362124 A    
O3    C2    1.296277 A    
C25   C26   1.400964 A    
C30   O13   1.381182 S    
O8    C4    1.294484 A    
C29   H4    1.083600 S    
C56   C57   1.526774 S    
C55   H26   1.115745 S    
C51   N4    1.368048 A    
N2    C27   1.368423 A    
C64   H46   1.111207 S    
C14   C36   1.390563 A    
C31   H12   1.083211 S    
C24   C25   1.409051 A    
C28   C29   1.393140 A    
C7    C11   1.403292 A    
C5    N1    1.371032 A    
C30   C31   1.400177 A    
C63   H44   1.110390 S    
C10   H2    1.082836 S    
C41   C48   1.489846 S    
O1    Cu1   1.960300 S    
C17   C30   1.408115 A    
C9    C16   1.402458 A    
C50   O14   1.387630 S    
C6    C15   1.403596 A    
C8    O16   1.386156 S    
C43   H14   1.082874 S    
C64   H47   1.114464 S    
O6    C3    1.291147 A    
O4    Cu2   1.950583 S    
O15   C61   1.417630 S    
C65   H48   1.110811 S    
C7    H8    1.083117 S    
C55   C56   1.527305 S    
C66   H50   1.110773 S    
C19   C35   1.418520 A    
O2    C1    1.291253 A    
C13   C14   1.397978 A    
C42   C43   1.406487 A    
C15   C37   1.397247 A    
C58   H32   1.110311 S    
C37   C40   1.389172 A    
C53   H22   1.108426 S    
C48   H19   1.109731 S    
C47   C48   1.519060 S    
C28   H5    1.082996 S    
C52   C53   1.490863 S    
O4    C2    1.298205 A    
C63   H43   1.110910 S    
C40   H13   1.077848 S    
C18   C20   1.417105 A    
O16   C64   1.419166 S    
C57   H31   1.110357 S    
C5    C13   1.404501 A    
C28   C32   1.401255 A    
C23   C27   1.413222 A    
Cu2   O6    1.960299 S    
C55   H25   1.115129 S    
O2    Cu2   1.960237 S    
C10   C11   1.402109 A    
C49   C54   1.489613 S    
C26   O12   1.350115 S    
N4    C52   1.364203 A    
C59   C60   1.525678 S    
C35   C40   1.414623 A    
C5    O9    1.349746 S    
