data_mof_unit_62458.cif
_audit_creation_date              2013-03-05T16:15:58-0500
_audit_creation_method            fapswitch 2.2
_symmetry_space_group_name_H-M    P1
_symmetry_Int_Tables_number       1
_space_group_crystal_system       monoclinic
_cell_length_a                    34.508429
_cell_length_b                    24.429066
_cell_length_c                    24.417591
_cell_angle_alpha                 90.000415
_cell_angle_beta                  90.0
_cell_angle_gamma                 90.0
_cell_volume                      20584.2413915

loop_
_atom_site_label
_atom_site_type_symbol
_atom_site_description
_atom_site_fract_x
_atom_site_fract_y
_atom_site_fract_z
_atom_type_partial_charge
Zn1   Zn    Zn3+2 0.782760 0.500000 0.564970 0.981243
Zn2   Zn    Zn3+2 0.217240 0.500000 0.435030 0.982071
Zn3   Zn    Zn3+2 0.782760 0.500000 0.435030 0.981243
Zn4   Zn    Zn3+2 0.217240 0.500000 0.564970 0.982071
Zn5   Zn    Zn3+2 0.282760 0.000000 0.064970 0.981241
Zn6   Zn    Zn3+2 0.717240 1.000000 0.935030 0.982070
Zn7   Zn    Zn3+2 0.282760 1.000000 0.935030 0.981241
Zn8   Zn    Zn3+2 0.717240 0.000000 0.064970 0.982070
Zn9   Zn    Zn3+2 0.717260 0.564980 0.500000 0.969009
Zn10  Zn    Zn3+2 0.282740 0.435020 0.500000 0.968741
Zn11  Zn    Zn3+2 0.717260 0.435020 0.500000 0.969009
Zn12  Zn    Zn3+2 0.282740 0.564980 0.500000 0.968741
Zn13  Zn    Zn3+2 0.217260 0.064980 0.000000 0.969007
Zn14  Zn    Zn3+2 0.782740 0.935020 0.000000 0.968743
Zn15  Zn    Zn3+2 0.217260 0.935020 0.000000 0.969006
Zn16  Zn    Zn3+2 0.782740 0.064980 0.000000 0.968743
O1    O     O_3   0.750010 0.500000 0.500000 -0.478791
O2    O     O_3   0.249990 0.500000 0.500000 -0.478977
O3    O     O_3   0.250010 0.000000 0.000000 -0.478790
O4    O     O_3   0.749990 0.000000 0.000000 -0.478978
O5    O     O_R   0.772930 0.563990 0.390540 -0.641744
O6    O     O_R   0.227070 0.436010 0.609460 -0.642341
O7    O     O_R   0.772930 0.436010 0.609460 -0.641744
O8    O     O_R   0.227070 0.563990 0.390540 -0.642341
O9    O     O_R   0.227070 0.436010 0.390540 -0.642662
O10   O     O_R   0.772930 0.563990 0.609460 -0.641557
O11   O     O_R   0.227070 0.563990 0.609460 -0.642662
O12   O     O_R   0.772930 0.436010 0.390540 -0.641557
O13   O     O_R   0.272930 0.063990 0.890540 -0.641764
O14   O     O_R   0.727070 0.936010 0.109460 -0.642332
O15   O     O_R   0.272930 0.936010 0.109460 -0.641764
O16   O     O_R   0.727070 0.063990 0.890540 -0.642332
O17   O     O_R   0.727070 0.936010 0.890540 -0.642672
O18   O     O_R   0.272930 0.063990 0.109460 -0.641540
O19   O     O_R   0.727070 0.063990 0.109460 -0.642672
O20   O     O_R   0.272930 0.936010 0.890540 -0.641540
O21   O     O_R   0.727090 0.609470 0.563990 -0.645815
O22   O     O_R   0.272910 0.390530 0.436010 -0.645786
O23   O     O_R   0.727090 0.390530 0.436010 -0.645815
O24   O     O_R   0.272910 0.609470 0.563990 -0.645786
O25   O     O_R   0.272910 0.390530 0.563990 -0.647624
O26   O     O_R   0.727090 0.609470 0.436010 -0.644240
O27   O     O_R   0.272910 0.609470 0.436010 -0.647624
O28   O     O_R   0.727090 0.390530 0.563990 -0.644240
O29   O     O_R   0.227090 0.109470 0.063990 -0.645815
O30   O     O_R   0.772910 0.890530 0.936010 -0.645767
O31   O     O_R   0.227090 0.890530 0.936010 -0.645815
O32   O     O_R   0.772910 0.109470 0.063990 -0.645766
O33   O     O_R   0.772910 0.890530 0.063990 -0.647642
O34   O     O_R   0.227090 0.109470 0.936010 -0.644239
O35   O     O_R   0.772910 0.109470 0.936010 -0.647642
O36   O     O_R   0.227090 0.890530 0.063990 -0.644239
O37   O     O_R   0.662570 0.545500 0.500000 -0.648202
O38   O     O_R   0.337430 0.454500 0.500000 -0.645475
O39   O     O_R   0.662570 0.454500 0.500000 -0.648201
O40   O     O_R   0.337430 0.545500 0.500000 -0.645476
O41   O     O_R   0.162570 0.045500 0.000000 -0.648204
O42   O     O_R   0.837430 0.954500 0.000000 -0.645474
O43   O     O_R   0.162570 0.954500 0.000000 -0.648204
O44   O     O_R   0.837430 0.045500 0.000000 -0.645474
O45   O     O_R   0.837440 0.500000 0.454520 -0.644087
O46   O     O_R   0.162560 0.500000 0.545480 -0.641003
O47   O     O_R   0.837440 0.500000 0.545480 -0.644087
O48   O     O_R   0.162560 0.500000 0.454520 -0.641003
O49   O     O_R   0.337440 0.000000 0.954520 -0.644080
O50   O     O_R   0.662560 0.000000 0.045480 -0.640997
O51   O     O_R   0.337440 0.000000 0.045480 -0.644080
O52   O     O_R   0.662560 0.000000 0.954520 -0.640997
C1    C     C_R   0.750014 0.605105 0.394891 0.785964
C2    C     C_R   0.249985 0.394895 0.605107 0.783595
C3    C     C_R   0.750014 0.394895 0.605109 0.785964
C4    C     C_R   0.249985 0.605105 0.394893 0.783595
C5    C     C_R   0.249983 0.394893 0.394894 0.784343
C6    C     C_R   0.750012 0.605103 0.605110 0.785216
C7    C     C_R   0.249983 0.605107 0.605106 0.784343
C8    C     C_R   0.750012 0.394897 0.394890 0.785217
C9    C     C_R   0.250014 0.105105 0.894891 0.785980
C10   C     C_R   0.749985 0.894895 0.105107 0.783607
C11   C     C_R   0.250014 0.894895 0.105108 0.785980
C12   C     C_R   0.749985 0.105105 0.894893 0.783608
C13   C     C_R   0.749984 0.894893 0.894894 0.784330
C14   C     C_R   0.250012 0.105103 0.105110 0.785201
C15   C     C_R   0.749984 0.105107 0.105106 0.784330
C16   C     C_R   0.250012 0.894897 0.894890 0.785201
C17   C     C_R   0.644262 0.500000 0.500000 0.786763
C18   C     C_R   0.355739 0.500000 0.500000 0.789461
C19   C     C_R   0.144262 0.000000 0.000000 0.786765
C20   C     C_R   0.855738 0.000000 0.000000 0.789459
C21   C     C_R   0.855930 0.500000 0.500000 0.805985
C22   C     C_R   0.144070 0.500000 0.500000 0.809300
C23   C     C_R   0.355930 0.000000 0.000000 0.805970
C24   C     C_R   0.644070 0.000000 0.000000 0.809284
C25   C     C_R   0.081214 0.500534 0.549737 -0.134356
C26   C     C_R   0.918783 0.499466 0.450263 -0.137734
C27   C     C_R   0.081214 0.499466 0.450263 -0.134356
C28   C     C_R   0.918783 0.500534 0.549737 -0.137734
C29   C     C_R   0.581215 0.001117 0.950269 -0.134359
C30   C     C_R   0.418783 0.998882 0.049731 -0.137735
C31   C     C_R   0.581215 0.998883 0.049731 -0.134359
C32   C     C_R   0.418783 0.001118 0.950269 -0.137735
C33   C     C_R   0.101553 0.500000 0.500000 -0.099010
C34   C     C_R   0.898445 0.500000 0.500000 -0.097428
C35   C     C_R   0.601553 0.000000 0.000000 -0.098960
C36   C     C_R   0.398445 0.000000 0.000000 -0.097378
C37   C     C_R   0.040719 0.499454 0.449802 -0.072416
C38   C     C_R   0.959277 0.500546 0.550198 -0.071586
C39   C     C_R   0.040719 0.500546 0.550198 -0.072416
C40   C     C_R   0.959277 0.499454 0.449802 -0.071586
C41   C     C_R   0.540720 0.998857 0.050192 -0.072452
C42   C     C_R   0.459277 0.001143 0.949808 -0.071621
C43   C     C_R   0.540720 0.001143 0.949808 -0.072453
C44   C     C_R   0.459277 0.998857 0.050192 -0.071621
C45   C     C_R   0.020366 0.500000 0.500000 -0.091348
C46   C     C_R   0.979631 0.500000 0.500000 -0.090716
C47   C     C_R   0.520366 0.000000 0.000000 -0.091282
C48   C     C_R   0.479631 0.000000 0.000000 -0.090650
C49   C     C_R   0.020218 0.498903 0.400108 0.529603
C50   C     C_R   0.979779 0.501096 0.599892 0.527784
C51   C     C_R   0.020218 0.501096 0.599892 0.529603
C52   C     C_R   0.979779 0.498903 0.400108 0.527784
C53   C     C_R   0.520218 0.997704 0.099879 0.529574
C54   C     C_R   0.479779 0.002296 0.900120 0.527754
C55   C     C_R   0.520218 0.002295 0.900120 0.529574
C56   C     C_R   0.479779 0.997704 0.099879 0.527754
H1    H     H_    0.096974 0.500960 0.588127 0.211774
H2    H     H_    0.903023 0.499039 0.411873 0.210245
H3    H     H_    0.096974 0.499039 0.411873 0.211774
H4    H     H_    0.903023 0.500961 0.588127 0.210245
H5    H     H_    0.596974 0.002011 0.911884 0.211755
H6    H     H_    0.403023 0.997989 0.088116 0.210224
H7    H     H_    0.596974 0.997989 0.088116 0.211755
H8    H     H_    0.403023 0.002011 0.911884 0.210224
C57   C     C_R   0.781708 0.307003 0.723327 -0.173124
C58   C     C_R   0.234593 0.676605 0.260270 -0.172340
C59   C     C_R   0.781708 0.692997 0.276673 -0.173124
C60   C     C_R   0.234593 0.323395 0.739730 -0.172340
C61   C     C_R   0.234566 0.676626 0.739714 -0.172194
C62   C     C_R   0.781694 0.307006 0.276665 -0.172887
C63   C     C_R   0.234566 0.323374 0.260286 -0.172195
C64   C     C_R   0.781694 0.692994 0.723335 -0.172887
C65   C     C_R   0.281710 0.807001 0.223324 -0.172957
C66   C     C_R   0.734591 0.176606 0.760271 -0.172236
C67   C     C_R   0.281710 0.192999 0.776675 -0.172957
C68   C     C_R   0.734591 0.823394 0.239729 -0.172236
C69   C     C_R   0.734568 0.176624 0.239715 -0.172299
C70   C     C_R   0.281692 0.807007 0.776663 -0.173050
C71   C     C_R   0.734568 0.823376 0.760285 -0.172300
C72   C     C_R   0.281692 0.192992 0.223336 -0.173050
H9    H     H_    0.806825 0.303168 0.749622 0.137734
H10   H     H_    0.223174 0.666667 0.220185 0.135478
H11   H     H_    0.806825 0.696832 0.250378 0.137734
H12   H     H_    0.223174 0.333333 0.779815 0.135478
H13   H     H_    0.223143 0.666686 0.779798 0.135489
H14   H     H_    0.806813 0.303163 0.250374 0.138149
H15   H     H_    0.223143 0.333314 0.220202 0.135489
H16   H     H_    0.806813 0.696837 0.749626 0.138149
H17   H     H_    0.306828 0.803166 0.249618 0.137933
H18   H     H_    0.723172 0.166667 0.720186 0.135512
H19   H     H_    0.306828 0.196834 0.750382 0.137933
H20   H     H_    0.723172 0.833333 0.279814 0.135512
H21   H     H_    0.723145 0.166684 0.279799 0.135452
H22   H     H_    0.306811 0.803164 0.750372 0.137951
H23   H     H_    0.723145 0.833316 0.720201 0.135452
H24   H     H_    0.306811 0.196835 0.249628 0.137951
C73   C     C_R   0.781576 0.347549 0.683309 -0.177818
C74   C     C_R   0.234322 0.636460 0.300689 -0.178712
C75   C     C_R   0.781576 0.652450 0.316690 -0.177819
C76   C     C_R   0.234322 0.363540 0.699311 -0.178712
C77   C     C_R   0.234304 0.636474 0.699301 -0.178605
C78   C     C_R   0.781569 0.347548 0.316688 -0.177704
C79   C     C_R   0.234304 0.363526 0.300699 -0.178605
C80   C     C_R   0.781569 0.652452 0.683312 -0.177704
C81   C     C_R   0.281578 0.847548 0.183307 -0.177654
C82   C     C_R   0.734321 0.136461 0.800690 -0.178489
C83   C     C_R   0.281578 0.152452 0.816693 -0.177654
C84   C     C_R   0.734321 0.863539 0.199310 -0.178489
C85   C     C_R   0.734306 0.136474 0.199301 -0.178829
C86   C     C_R   0.281568 0.847549 0.816686 -0.177869
C87   C     C_R   0.734306 0.863526 0.800698 -0.178829
C88   C     C_R   0.281568 0.152451 0.183314 -0.177869
H25   H     H_    0.806394 0.374483 0.679900 0.165609
H26   H     H_    0.222368 0.596585 0.291146 0.160706
H27   H     H_    0.806394 0.625517 0.320100 0.165609
H28   H     H_    0.222368 0.403415 0.708853 0.160706
H29   H     H_    0.222352 0.596599 0.708846 0.160743
H30   H     H_    0.806393 0.374470 0.320105 0.165753
H31   H     H_    0.222352 0.403401 0.291154 0.160743
H32   H     H_    0.806393 0.625530 0.679895 0.165753
H33   H     H_    0.306396 0.874481 0.179897 0.165817
H34   H     H_    0.722368 0.096586 0.791147 0.160747
H35   H     H_    0.306396 0.125519 0.820103 0.165817
H36   H     H_    0.722368 0.903414 0.208853 0.160747
H37   H     H_    0.722353 0.096599 0.208846 0.160698
H38   H     H_    0.306391 0.874471 0.820103 0.165546
H39   H     H_    0.722353 0.903401 0.791153 0.160698
H40   H     H_    0.306391 0.125529 0.179897 0.165546
C89   C     C_R   0.750017 0.352523 0.647493 -0.003942
C90   C     C_R   0.249982 0.647479 0.352511 -0.001195
C91   C     C_R   0.750017 0.647476 0.352507 -0.003942
C92   C     C_R   0.249982 0.352521 0.647489 -0.001195
C93   C     C_R   0.249971 0.647487 0.647482 -0.001299
C94   C     C_R   0.750008 0.352531 0.352500 -0.003273
C95   C     C_R   0.249971 0.352513 0.352518 -0.001298
C96   C     C_R   0.750008 0.647469 0.647500 -0.003273
C97   C     C_R   0.250018 0.852523 0.147492 -0.004026
C98   C     C_R   0.749981 0.147479 0.852512 -0.001218
C99   C     C_R   0.250018 0.147477 0.852507 -0.004026
C100  C     C_R   0.749981 0.852521 0.147488 -0.001218
C101  C     C_R   0.749972 0.147486 0.147482 -0.001274
C102  C     C_R   0.250007 0.852532 0.852499 -0.003188
C103  C     C_R   0.749972 0.852514 0.852518 -0.001274
C104  C     C_R   0.250007 0.147468 0.147500 -0.003188
C105  C     C_R   0.718457 0.316719 0.652444 -0.182886
C106  C     C_R   0.265653 0.699266 0.363558 -0.184530
C107  C     C_R   0.718457 0.683281 0.347556 -0.182886
C108  C     C_R   0.265653 0.300733 0.636441 -0.184530
C109  C     C_R   0.265638 0.699276 0.636430 -0.183053
C110  C     C_R   0.718439 0.316744 0.347538 -0.184064
C111  C     C_R   0.265638 0.300724 0.363569 -0.183053
C112  C     C_R   0.718439 0.683256 0.652462 -0.184064
C113  C     C_R   0.218458 0.816719 0.152444 -0.182893
C114  C     C_R   0.765651 0.199267 0.863560 -0.184573
C115  C     C_R   0.218458 0.183281 0.847556 -0.182893
C116  C     C_R   0.765651 0.800733 0.136440 -0.184573
C117  C     C_R   0.765639 0.199276 0.136431 -0.183007
C118  C     C_R   0.218439 0.816744 0.847538 -0.184056
C119  C     C_R   0.765639 0.800724 0.863569 -0.183007
C120  C     C_R   0.218439 0.183255 0.152462 -0.184056
H41   H     H_    0.693639 0.320144 0.625501 0.159728
H42   H     H_    0.277599 0.708789 0.403461 0.157474
H43   H     H_    0.693639 0.679855 0.374499 0.159728
H44   H     H_    0.277599 0.291211 0.596539 0.157474
H45   H     H_    0.277587 0.708795 0.596530 0.157696
H46   H     H_    0.693619 0.320179 0.374477 0.157854
H47   H     H_    0.277587 0.291205 0.403470 0.157696
H48   H     H_    0.693619 0.679821 0.625523 0.157854
H49   H     H_    0.193639 0.820145 0.125502 0.159691
H50   H     H_    0.777597 0.208789 0.903462 0.157469
H51   H     H_    0.193639 0.179855 0.874497 0.159691
H52   H     H_    0.777597 0.791211 0.096538 0.157469
H53   H     H_    0.777588 0.208794 0.096530 0.157703
H54   H     H_    0.193618 0.820180 0.874477 0.157889
H55   H     H_    0.777588 0.791205 0.903470 0.157703
H56   H     H_    0.193618 0.179820 0.125523 0.157889
C121  C     C_R   0.718325 0.276688 0.692974 -0.173580
C122  C     C_R   0.265411 0.739677 0.323408 -0.173966
C123  C     C_R   0.718325 0.723312 0.307026 -0.173580
C124  C     C_R   0.265411 0.260323 0.676592 -0.173966
C125  C     C_R   0.265389 0.739692 0.676575 -0.173922
C126  C     C_R   0.718301 0.276716 0.307005 -0.173795
C127  C     C_R   0.265389 0.260308 0.323424 -0.173922
C128  C     C_R   0.718301 0.723283 0.692995 -0.173795
C129  C     C_R   0.218326 0.776687 0.192973 -0.173671
C130  C     C_R   0.765409 0.239678 0.823410 -0.173984
C131  C     C_R   0.218326 0.223313 0.807027 -0.173671
C132  C     C_R   0.765409 0.760322 0.176590 -0.173983
C133  C     C_R   0.765390 0.239691 0.176577 -0.173902
C134  C     C_R   0.218300 0.776717 0.807004 -0.173706
C135  C     C_R   0.765390 0.760309 0.823423 -0.173902
C136  C     C_R   0.218300 0.223282 0.192996 -0.173706
H57   H     H_    0.693205 0.250406 0.696789 0.137043
H58   H     H_    0.276839 0.779733 0.333379 0.134933
H59   H     H_    0.693205 0.749594 0.303211 0.137043
H60   H     H_    0.276839 0.220267 0.666621 0.134933
H61   H     H_    0.276816 0.779748 0.666604 0.134933
H62   H     H_    0.693177 0.250444 0.303182 0.136428
H63   H     H_    0.276816 0.220251 0.333396 0.134933
H64   H     H_    0.693177 0.749556 0.696817 0.136428
H65   H     H_    0.193206 0.750405 0.196789 0.136897
H66   H     H_    0.776836 0.279735 0.833381 0.134910
H67   H     H_    0.193206 0.249594 0.803211 0.136897
H68   H     H_    0.776836 0.720265 0.166619 0.134910
H69   H     H_    0.776818 0.279747 0.166605 0.134959
H70   H     H_    0.193176 0.750445 0.803182 0.136571
H71   H     H_    0.776818 0.720252 0.833395 0.134959
H72   H     H_    0.193176 0.249555 0.196818 0.136571
C137  C     C_R   0.750015 0.271327 0.728659 0.108494
C138  C     C_R   0.250010 0.728653 0.271324 0.110596
C139  C     C_R   0.750015 0.728673 0.271341 0.108494
C140  C     C_R   0.250010 0.271347 0.728676 0.110596
C141  C     C_R   0.249984 0.728673 0.728658 0.110372
C142  C     C_R   0.749995 0.271344 0.271325 0.108661
C143  C     C_R   0.249983 0.271327 0.271342 0.110372
C144  C     C_R   0.749995 0.728655 0.728675 0.108661
C145  C     C_R   0.250018 0.771325 0.228657 0.108426
C146  C     C_R   0.750008 0.228655 0.771325 0.110555
C147  C     C_R   0.250018 0.228675 0.771343 0.108426
C148  C     C_R   0.750008 0.771345 0.228674 0.110555
C149  C     C_R   0.749985 0.228672 0.228659 0.110414
C150  C     C_R   0.249993 0.771346 0.771323 0.108727
C151  C     C_R   0.749985 0.771328 0.771341 0.110414
C152  C     C_R   0.249993 0.228654 0.228677 0.108727
C153  C     C_R   0.541594 0.546640 0.517159 -0.177054
C154  C     C_R   0.458409 0.453346 0.517119 -0.176925
C155  C     C_R   0.541594 0.453360 0.482841 -0.177054
C156  C     C_R   0.458409 0.546654 0.482880 -0.176925
C157  C     C_R   0.041594 0.046640 0.017159 -0.177060
C158  C     C_R   0.958409 0.953346 0.017119 -0.176921
C159  C     C_R   0.041594 0.953360 0.982841 -0.177060
C160  C     C_R   0.958409 0.046654 0.982881 -0.176921
H73   H     H_    0.526453 0.582746 0.531455 0.135352
H74   H     H_    0.473550 0.417228 0.531384 0.135555
H75   H     H_    0.526453 0.417254 0.468545 0.135352
H76   H     H_    0.473550 0.582772 0.468616 0.135555
H77   H     H_    0.026453 0.082746 0.031455 0.135397
H78   H     H_    0.973550 0.917228 0.031384 0.135510
H79   H     H_    0.026453 0.917254 0.968545 0.135397
H80   H     H_    0.973550 0.082772 0.968615 0.135510
C161  C     C_R   0.581812 0.546772 0.516782 -0.187124
C162  C     C_R   0.418191 0.453215 0.516742 -0.184700
C163  C     C_R   0.581812 0.453228 0.483218 -0.187123
C164  C     C_R   0.418191 0.546785 0.483258 -0.184700
C165  C     C_R   0.081812 0.046772 0.016782 -0.187131
C166  C     C_R   0.918191 0.953215 0.016742 -0.184695
C167  C     C_R   0.081812 0.953228 0.983218 -0.187131
C168  C     C_R   0.918191 0.046785 0.983258 -0.184695
H81   H     H_    0.597025 0.583120 0.530331 0.157628
H82   H     H_    0.402979 0.416854 0.530259 0.159610
H83   H     H_    0.597025 0.416880 0.469669 0.157628
H84   H     H_    0.402979 0.583146 0.469741 0.159610
H85   H     H_    0.097026 0.083120 0.030331 0.157653
H86   H     H_    0.902979 0.916854 0.030259 0.159584
H87   H     H_    0.097026 0.916880 0.969669 0.157653
H88   H     H_    0.902979 0.083146 0.969741 0.159584
C169  C     C_R   0.602082 0.500000 0.500000 0.003859
C170  C     C_R   0.397920 0.500000 0.500000 0.002323
C171  C     C_R   0.102082 0.000000 0.000000 0.003836
C172  C     C_R   0.897920 0.000000 0.000000 0.002348
C173  C     C_R   0.521224 0.500000 0.500000 0.112956
C174  C     C_R   0.478780 0.500000 0.500000 0.112212
C175  C     C_R   0.021224 0.000000 0.000000 0.112918
C176  C     C_R   0.978780 0.000000 0.000000 0.112251
F1    F     F_    0.039304 0.498362 0.351449 -0.624018
F2    F     F_    0.960692 0.501638 0.648551 -0.625553
F3    F     F_    0.039304 0.501638 0.648551 -0.624018
F4    F     F_    0.960692 0.498362 0.351449 -0.625553
F5    F     F_    0.539304 0.996570 0.148532 -0.623992
F6    F     F_    0.460692 0.003430 0.851468 -0.625532
F7    F     F_    0.539304 0.003430 0.851468 -0.623992
F8    F     F_    0.460692 0.996570 0.148532 -0.625532

loop_
_geom_bond_atom_site_label_1
_geom_bond_atom_site_label_2
_geom_bond_distance
_ccdc_geom_bond_type
C31   C35   1.402807 A    
C107  C123  1.391311 A    
Zn7   O13   1.933616 S    
C28   C34   1.402724 A    
C40   C52   1.404653 A    
Zn6   O16   1.933616 S    
C83   C99   1.402023 A    
Zn5   O51   1.946013 S    
C89   C105  1.402049 A    
C71   C151  1.404478 A    
C32   C42   1.397454 A    
C85   H37   1.083206 S    
Zn3   O12   1.933605 S    
C64   C144  1.404477 A    
C44   C56   1.404738 A    
C32   C36   1.402801 A    
C57   C137  1.404484 A    
O33   C10   1.282651 A    
C65   C145  1.404482 A    
O35   C12   1.282651 A    
C39   C45   1.412758 A    
C56   F8    1.358638 S    
Zn2   O48   1.946013 S    
C63   C79   1.391372 A    
C67   C83   1.391388 A    
C68   H20   1.082706 S    
C88   H40   1.083202 S    
Zn4   O2    1.947802 S    
C62   H14   1.082735 S    
Zn3   O45   1.946013 S    
C93   C109  1.402051 A    
C38   C50   1.404653 A    
Zn10  O25   1.933308 S    
C110  C126  1.391312 A    
C20   C172  1.455614 S    
C95   C111  1.402051 A    
C66   H18   1.082705 S    
O11   C7    1.282741 A    
C60   H12   1.082700 S    
C49   F1    1.358552 S    
C114  C130  1.391313 A    
C51   F3    1.358552 S    
C117  C133  1.391314 A    
C109  H45   1.083205 S    
C87   H39   1.083206 S    
C113  H49   1.083198 S    
Zn8   O19   1.933603 S    
Zn12  O24   1.933296 S    
C74   C90   1.402012 A    
O16   C12   1.282745 A    
C86   H38   1.083202 S    
O40   C18   1.278532 A    
C120  H56   1.083206 S    
Zn16  O4    1.948608 S    
C61   H13   1.082737 S    
C15   C101  1.463719 S    
C64   H16   1.082735 S    
C65   H17   1.082732 S    
C13   C103  1.463719 S    
C164  C170  1.400972 A    
C112  C128  1.391314 A    
C90   C106  1.402050 A    
O34   C9    1.282668 A    
C42   C48   1.412844 A    
C105  H41   1.083196 S    
C116  C132  1.391313 A    
O49   C23   1.280758 A    
C153  C173  1.402803 A    
C2    C92   1.463717 S    
C53   F5    1.358635 S    
O42   C20   1.278534 A    
C32   H8    1.083845 S    
C143  C152  1.473777 S    
C108  C124  1.391317 A    
C162  H82   1.083283 S    
Zn6   O17   1.933605 S    
Zn10  O22   1.933298 S    
C84   C100  1.402013 A    
C140  C147  1.473793 S    
C115  H51   1.083198 S    
Zn13  O29   1.933297 S    
C41   C53   1.404744 A    
C69   H21   1.082735 S    
C160  C168  1.387915 A    
C55   F7    1.358635 S    
O52   C24   1.280770 A    
C156  C174  1.402796 A    
Zn3   O1    1.947804 S    
O43   C19   1.278519 A    
C78   C94   1.402016 A    
C71   C87   1.391372 A    
C26   C34   1.402726 A    
C82   C98   1.402013 A    
O37   C17   1.278517 A    
C79   H31   1.083204 S    
C123  H59   1.082733 S    
C124  H60   1.082734 S    
C31   C41   1.397464 A    
C12   C98   1.463714 S    
C136  C152  1.404416 A    
C99   C115  1.402043 A    
C138  C145  1.473793 S    
C131  C147  1.404414 A    
C134  H70   1.082734 S    
C74   H26   1.083205 S    
Zn16  O35   1.933312 S    
C121  H57   1.082733 S    
O44   C20   1.278532 A    
C133  C149  1.404411 A    
C5    C95   1.463719 S    
C28   H4    1.083779 S    
C91   C107  1.402049 A    
C37   C45   1.412760 A    
Zn10  O2    1.948612 S    
C9    C99   1.463738 S    
C118  H54   1.083206 S    
Zn13  O41   1.946342 S    
C47   C48   1.405711 A    
C52   F4    1.358553 S    
C70   C86   1.391376 A    
Zn16  O44   1.946342 S    
C125  H61   1.082734 S    
C88   C104  1.402014 A    
C166  H86   1.083282 S    
O36   C11   1.282668 A    
C19   C171  1.455562 S    
C157  C165  1.387908 A    
C102  C118  1.402051 A    
O47   C21   1.280756 A    
C109  C125  1.391314 A    
C18   C170  1.455614 S    
C157  H77   1.082954 S    
C14   C104  1.463719 S    
C113  C129  1.391310 A    
C30   C44   1.397454 A    
C72   H24   1.082737 S    
C111  H47   1.083205 S    
O38   C18   1.278537 A    
O50   C24   1.280768 A    
C11   C97   1.463738 S    
C4    C90   1.463717 S    
O41   C19   1.278517 A    
O5    C1    1.282743 A    
Zn4   O6    1.933618 S    
C162  C170  1.400973 A    
C63   H15   1.082735 S    
C68   C84   1.391373 A    
C58   C74   1.391373 A    
Zn11  O28   1.933308 S    
C127  C143  1.404413 A    
C165  C171  1.400964 A    
C105  C121  1.391311 A    
C116  H52   1.083206 S    
C168  H88   1.083282 S    
C66   C146  1.404482 A    
Zn1   O10   1.933603 S    
C153  H73   1.082954 S    
C159  H79   1.082954 S    
C44   C48   1.412842 A    
Zn4   O11   1.933603 S    
O8    C4    1.282745 A    
C155  H75   1.082954 S    
C156  H76   1.082955 S    
C120  C136  1.391314 A    
C100  C116  1.402051 A    
Zn1   O1    1.947802 S    
C62   C142  1.404477 A    
O32   C15   1.282664 A    
C94   C110  1.402053 A    
C71   H23   1.082733 S    
C166  C172  1.400973 A    
C6    C96   1.463717 S    
C98   C114  1.402051 A    
C92   C108  1.402050 A    
O9    C5    1.282741 A    
C123  C139  1.404415 A    
C10   C100  1.463714 S    
C124  C140  1.404416 A    
Zn13  O34   1.933312 S    
C136  H72   1.082737 S    
O13   C9    1.282741 A    
O7    C3    1.282743 A    
C75   C91   1.402020 A    
C121  C137  1.404415 A    
O18   C14   1.282748 A    
O6    C2    1.282745 A    
C27   C33   1.402732 A    
C167  C171  1.400967 A    
O21   C6    1.282655 A    
C67   C147  1.404482 A    
C68   C148  1.404482 A    
Zn7   O20   1.933605 S    
O48   C22   1.280770 A    
C161  C169  1.400964 A    
C158  C166  1.387915 A    
C7    C93   1.463719 S    
Zn14  O30   1.933298 S    
Zn15  O3    1.948612 S    
C70   H22   1.082735 S    
C125  C141  1.404413 A    
C96   C112  1.402052 A    
C59   C139  1.404484 A    
C60   C140  1.404482 A    
C29   C43   1.397464 A    
C16   C102  1.463719 S    
C62   C78   1.391378 A    
C168  C172  1.400972 A    
C117  H53   1.083205 S    
C72   C152  1.404476 A    
Zn4   O46   1.946013 S    
C132  C148  1.404416 A    
C40   C46   1.412763 A    
C80   C96   1.402016 A    
C128  H64   1.082735 S    
C129  H65   1.082734 S    
C163  H83   1.083291 S    
C164  H84   1.083283 S    
C135  H71   1.082736 S    
C29   H5    1.083837 S    
C122  H58   1.082734 S    
C141  C150  1.473777 S    
C153  C161  1.387908 A    
C134  C150  1.404416 A    
C130  C146  1.404416 A    
C61   C141  1.404476 A    
C72   C88   1.391376 A    
C111  C127  1.391314 A    
C37   C49   1.404659 A    
C101  C117  1.402052 A    
C39   C51   1.404659 A    
C50   F2    1.358553 S    
C159  C175  1.402806 A    
Zn14  O42   1.946342 S    
Zn13  O3    1.948608 S    
C43   C55   1.404744 A    
C58   C138  1.404482 A    
Zn14  O4    1.948612 S    
C126  H62   1.082735 S    
C49   C52   1.395469 A    
O19   C15   1.282741 A    
O39   C17   1.278521 A    
C175  C176  1.464676 S    
C57   C73   1.391386 A    
Zn7   O49   1.946013 S    
C26   C40   1.397450 A    
C78   H30   1.083203 S    
O51   C23   1.280756 A    
O31   C16   1.282655 A    
C163  C169  1.400967 A    
C69   C149  1.404478 A    
C82   H34   1.083206 S    
Zn9   O37   1.946342 S    
C25   C33   1.402730 A    
O12   C8    1.282748 A    
Zn11  O39   1.946342 S    
C45   C46   1.405711 A    
C154  C174  1.402798 A    
Zn11  O1    1.948612 S    
C76   C92   1.402012 A    
Zn15  O43   1.946342 S    
C133  H69   1.082736 S    
C67   H19   1.082732 S    
Zn5   O3    1.947802 S    
C31   H7    1.083837 S    
Zn6   O4    1.947804 S    
O24   C7    1.282662 A    
Zn8   O14   1.933618 S    
C42   C54   1.404738 A    
C119  H55   1.083205 S    
C59   H11   1.082733 S    
Zn2   O9    1.933605 S    
C8    C94   1.463717 S    
C155  C173  1.402806 A    
C79   C95   1.402020 A    
C25   H1    1.083774 S    
C154  H74   1.082955 S    
C77   C93   1.402020 A    
C104  C120  1.402051 A    
C27   H3    1.083774 S    
C81   C97   1.402023 A    
O25   C2    1.282651 A    
Zn8   O50   1.946013 S    
O27   C4    1.282651 A    
C21   C34   1.467136 S    
Zn2   O2    1.947804 S    
C173  C174  1.464676 S    
O29   C14   1.282655 A    
Zn15  O31   1.933298 S    
C23   C36   1.467133 S    
Zn16  O32   1.933297 S    
C54   F6    1.358638 S    
C66   C82   1.391373 A    
C131  H67   1.082737 S    
C132  H68   1.082737 S    
C86   C102  1.402014 A    
Zn9   O26   1.933310 S    
Zn8   O4    1.947802 S    
C97   C113  1.402043 A    
C38   C46   1.412760 A    
C107  H43   1.083196 S    
O20   C16   1.282748 A    
Zn12  O27   1.933310 S    
C73   C89   1.402020 A    
C128  C144  1.404413 A    
C83   H35   1.083204 S    
C129  C145  1.404414 A    
C84   H36   1.083206 S    
Zn14  O33   1.933308 S    
C58   H10   1.082699 S    
C87   C103  1.402017 A    
O28   C3    1.282666 A    
C160  C176  1.402796 A    
C85   C101  1.402017 A    
C122  C138  1.404416 A    
C50   C51   1.395469 A    
C53   C56   1.395469 A    
C27   C37   1.397461 A    
C24   C35   1.467178 S    
C167  H87   1.083292 S    
C161  H81   1.083292 S    
C155  C163  1.387908 A    
C144  C151  1.473779 S    
C156  C164  1.387915 A    
C61   C77   1.391372 A    
C119  C135  1.391314 A    
C160  H80   1.082955 S    
Zn6   O52   1.946013 S    
C64   C80   1.391378 A    
C103  C119  1.402052 A    
C65   C81   1.391388 A    
C126  C142  1.404415 A    
C30   H6    1.083845 S    
Zn1   O47   1.946013 S    
C17   C169  1.455562 S    
O45   C21   1.280758 A    
C3    C89   1.463738 S    
C26   H2    1.083779 S    
C75   H27   1.083204 S    
C57   H9    1.082733 S    
C110  H46   1.083204 S    
C60   C76   1.391373 A    
C76   H28   1.083205 S    
Zn15  O36   1.933308 S    
C130  H66   1.082735 S    
O26   C1    1.282666 A    
C127  H63   1.082734 S    
C22   C33   1.467181 S    
C118  C134  1.391314 A    
C157  C175  1.402803 A    
O30   C13   1.282664 A    
C142  C149  1.473779 S    
C154  C162  1.387915 A    
C135  C151  1.404411 A    
Zn5   O18   1.933603 S    
Zn9   O21   1.933296 S    
C106  C122  1.391317 A    
C29   C35   1.402809 A    
O23   C8    1.282655 A    
Zn11  O23   1.933298 S    
Zn12  O40   1.946342 S    
C158  H78   1.082955 S    
Zn9   O1    1.948610 S    
Zn1   O7    1.933618 S    
Zn2   O8    1.933616 S    
Zn3   O5    1.933616 S    
C69   C85   1.391372 A    
C28   C38   1.397450 A    
C59   C75   1.391386 A    
C112  H48   1.083206 S    
C165  H85   1.083292 S    
O15   C11   1.282741 A    
C159  C167  1.387908 A    
C137  C146  1.473795 S    
Zn7   O3    1.947804 S    
C63   C143  1.404476 A    
C73   H25   1.083206 S    
C139  C148  1.473795 S    
C77   H29   1.083204 S    
C25   C39   1.397461 A    
C70   C150  1.404476 A    
C114  H50   1.083206 S    
C80   H32   1.083203 S    
C30   C36   1.402799 A    
O46   C22   1.280768 A    
C81   H33   1.083204 S    
C158  C176  1.402798 A    
O10   C6    1.282748 A    
Zn10  O38   1.946342 S    
C41   C47   1.412840 A    
O14   C10   1.282745 A    
C115  C131  1.391310 A    
Zn12  O2    1.948610 S    
C1    C91   1.463738 S    
C108  H44   1.083205 S    
C43   C47   1.412842 A    
C54   C55   1.395469 A    
O17   C13   1.282741 A    
Zn5   O15   1.933618 S    
O22   C5    1.282662 A    
C106  H42   1.083205 S    
