data_mof_unit_17770.cif
_audit_creation_date              2012-12-11T14:04:19-0500
_audit_creation_method            fapswitch 2.2
_symmetry_space_group_name_H-M    P1
_symmetry_Int_Tables_number       1
_space_group_crystal_system       triclinic
_cell_length_a                    19.463264
_cell_length_b                    11.054543
_cell_length_c                    19.089998
_cell_angle_alpha                 90.0
_cell_angle_beta                  91.379446
_cell_angle_gamma                 90.000015
_cell_volume                      4106.16567873

loop_
_atom_site_label
_atom_site_type_symbol
_atom_type_description
_atom_site_fract_x
_atom_site_fract_y
_atom_site_fract_z
_atom_type_partial_charge
C1    C     C_R   0.221867 0.526724 0.641184 0.556961
C2    C     C_R   0.012799 0.652793 0.571271 0.004444
C3    C     C_3   0.601516 0.771494 0.936937 -0.326661
C4    C     C_3   0.162888 0.072100 0.543408 -0.009035
C5    C     C_3   0.148301 0.127784 0.471369 -0.360098
C6    C     C_3   0.837118 0.072086 0.456595 -0.009026
C7    C     C_3   0.851704 0.127771 0.528633 -0.360093
C8    C     C_3   0.662892 0.572105 0.543407 -0.009032
C9    C     C_3   0.648307 0.627790 0.471369 -0.360095
C10   C     C_3   0.337128 0.572070 0.456597 -0.009031
C11   C     C_3   0.351716 0.627751 0.528635 -0.360089
C12   C     C_R   0.487193 0.152796 0.428732 0.004436
C13   C     C_R   0.512795 0.152791 0.571272 0.004441
C14   C     C_R   0.019428 0.871345 0.429709 0.135675
C15   C     C_R   0.980568 0.871343 0.570297 0.135672
C16   C     C_R   0.519424 0.371350 0.429715 0.135670
C17   C     C_R   0.480564 0.371337 0.570304 0.135673
C18   C     C_R   0.010010 0.979364 0.465220 -0.107681
C19   C     C_R   0.989992 0.979363 0.534789 -0.107681
C20   C     C_R   0.510014 0.479367 0.465233 -0.107689
C21   C     C_R   0.778134 0.526722 0.358817 0.556956
C22   C     C_R   0.489997 0.479360 0.534802 -0.107682
C23   C     C_R   0.996865 0.761824 0.536459 -0.000956
C24   C     C_R   0.003129 0.761826 0.463544 -0.000952
C25   C     C_R   0.496858 0.261822 0.536462 -0.000958
C26   C     C_R   0.503122 0.261828 0.463548 -0.000951
C27   C     C_R   0.016223 0.542341 0.532316 0.033233
C28   C     C_R   0.983774 0.542341 0.467684 0.033224
C29   C     C_R   0.516220 0.042340 0.532317 0.033233
C30   C     C_R   0.483771 0.042342 0.467685 0.033223
C31   C     C_R   0.044045 0.429498 0.556281 -0.038113
C32   C     C_R   0.721866 0.026726 0.641184 0.556975
C33   C     C_R   0.955954 0.429498 0.443718 -0.038110
C34   C     C_R   0.544045 0.929498 0.556280 -0.038111
C35   C     C_R   0.455952 0.929500 0.443717 -0.038112
C36   C     C_R   0.021998 0.321060 0.528625 -0.105862
C37   C     C_R   0.978002 0.321060 0.471371 -0.105852
C38   C     C_R   0.521998 0.821060 0.528623 -0.105857
C39   C     C_R   0.478001 0.821061 0.471369 -0.105849
C40   C     C_2   0.251094 0.925314 0.917398 -0.095920
C41   C     C_2   0.748898 0.925319 0.082608 -0.095921
C42   C     C_2   0.751052 0.425260 0.917430 -0.095904
C43   C     C_R   0.278133 0.026721 0.358817 0.556968
C44   C     C_2   0.248925 0.425298 0.082590 -0.095915
C45   C     C_2   0.246342 0.915277 0.083434 -0.105738
C46   C     C_2   0.753664 0.915262 0.916558 -0.105745
C47   C     C_2   0.746350 0.415316 0.083414 -0.105730
C48   C     C_2   0.253658 0.415300 0.916575 -0.105681
C49   C     C_R   0.224848 0.874819 0.647916 0.562361
C50   C     C_R   0.775153 0.874816 0.352085 0.562361
C51   C     C_R   0.724848 0.374818 0.647915 0.562366
C52   C     C_R   0.275153 0.374817 0.352085 0.562367
C53   C     C_2   0.234318 0.996499 0.033060 -0.143166
C54   C     C_2   0.299931 0.927198 0.550654 0.032168
C55   C     C_2   0.765657 0.996472 0.966940 -0.143209
C56   C     C_2   0.734192 0.496547 0.033068 -0.143077
C57   C     C_2   0.265740 0.496530 0.966937 -0.143094
C58   C     C_2   0.207160 0.957494 0.966893 0.056522
C59   C     C_2   0.792827 0.957484 0.033105 0.056531
C60   C     C_2   0.707087 0.457499 0.966889 0.056528
C61   C     C_2   0.292873 0.457506 0.033111 0.056522
C62   C     C_2   0.004120 0.653671 0.922050 -0.102601
C63   C     C_2   0.995891 0.653670 0.077956 -0.102603
C64   C     C_2   0.504104 0.153669 0.922046 -0.102629
C65   C     C_2   0.700071 0.927212 0.449346 0.032169
C66   C     C_2   0.495894 0.153670 0.077953 -0.102624
C67   C     C_2   0.988903 0.554752 0.036347 0.210659
C68   C     C_2   0.011113 0.554751 0.963658 0.210629
C69   C     C_2   0.488944 0.054722 0.036361 0.210681
C70   C     C_2   0.511055 0.054722 0.963638 0.210681
C71   C     C_R   0.034697 0.652677 0.643610 0.576629
C72   C     C_R   0.965302 0.652678 0.356391 0.576624
C73   C     C_R   0.534697 0.152677 0.643610 0.576642
C74   C     C_R   0.465301 0.152678 0.356392 0.576650
C75   C     C_R   0.240016 0.464035 0.848269 0.561319
C76   C     C_2   0.799931 0.427199 0.550654 0.032165
C77   C     C_R   0.759987 0.464047 0.151724 0.561317
C78   C     C_R   0.740021 0.964018 0.848259 0.561288
C79   C     C_R   0.259981 0.964024 0.151737 0.561291
C80   C     C_R   0.226576 0.871748 0.852831 0.569852
C81   C     C_R   0.773422 0.871752 0.147171 0.569857
C82   C     C_R   0.726566 0.371729 0.852841 0.569832
C83   C     C_R   0.273428 0.371741 0.147165 0.569840
C84   C     C_R   0.031833 0.651159 0.851651 0.597708
C85   C     C_R   0.968169 0.651160 0.148351 0.597703
C86   C     C_R   0.531823 0.151160 0.851647 0.597679
C87   C     C_2   0.200069 0.427217 0.449344 0.032175
C88   C     C_R   0.468176 0.151160 0.148353 0.597681
C89   C     C_2   0.237546 0.922005 0.577547 0.269175
C90   C     C_2   0.762457 0.921998 0.422455 0.269168
C91   C     C_2   0.737546 0.422004 0.577546 0.269172
C92   C     C_2   0.262456 0.421998 0.422455 0.269167
C93   C     C_2   0.288162 0.027794 0.435865 -0.094819
C94   C     C_2   0.711835 0.027809 0.564137 -0.094830
C95   C     C_2   0.788165 0.527797 0.435864 -0.094827
C96   C     C_2   0.211840 0.527810 0.564136 -0.094833
C97   C     C_2   0.304671 0.928878 0.473272 -0.101407
C98   C     C_R   0.987197 0.652794 0.428731 0.004440
C99   C     C_2   0.695330 0.928892 0.526728 -0.101405
C100  C     C_2   0.804670 0.428880 0.473272 -0.101407
C101  C     C_2   0.195325 0.428899 0.526725 -0.101402
C102  C     C_3   0.912563 0.395865 0.032461 0.013834
C103  C     C_3   0.898350 0.271478 0.062703 -0.326809
C104  C     C_3   0.087429 0.395821 0.967520 0.013825
C105  C     C_3   0.101641 0.271461 0.937233 -0.326784
C106  C     C_3   0.412648 0.895782 0.032681 0.013926
C107  C     C_3   0.398485 0.771478 0.063051 -0.326672
C108  C     C_3   0.587352 0.895785 0.967317 0.013911
Cr1   Cr    Cr6+3 0.113970 0.508630 0.747920 1.038284
Cr2   Cr    Cr6+3 0.887700 0.820070 0.250200 1.076163
Cr3   Cr    Cr6+3 0.612300 0.320070 0.749800 1.076138
Cr4   Cr    Cr6+3 0.387700 0.320070 0.250200 1.076132
Cr5   Cr    Cr6+3 0.886030 0.508630 0.252080 1.038323
Cr6   Cr    Cr6+3 0.613970 0.008630 0.747920 1.038120
Cr7   Cr    Cr6+3 0.386030 0.008630 0.252080 1.038131
Cr8   Cr    Cr6+3 0.269200 0.666740 0.749850 1.067711
Cr9   Cr    Cr6+3 0.730800 0.666740 0.250150 1.067694
Cr10  Cr    Cr6+3 0.769200 0.166740 0.749850 1.067704
Cr11  Cr    Cr6+3 0.230800 0.166740 0.250150 1.067699
Cr12  Cr    Cr6+3 0.112300 0.820070 0.749800 1.076157
H1    H     H_    0.310211 0.842895 0.446737 0.120170
H2    H     H_    0.693840 0.931017 0.072955 0.064245
H3    H     H_    0.806102 0.430936 0.927119 0.064054
H4    H     H_    0.193871 0.430993 0.072922 0.064090
H5    H     H_    0.015091 0.738598 0.057921 0.111804
H6    H     H_    0.984925 0.738600 0.942088 0.111815
H7    H     H_    0.515033 0.238622 0.057898 0.111809
H8    H     H_    0.484963 0.238622 0.942100 0.111822
H9    H     H_    0.286975 0.113647 0.462880 0.095858
H10   H     H_    0.713021 0.113666 0.537124 0.095852
H11   H     H_    0.786985 0.613652 0.462879 0.095851
H12   H     H_    0.689797 0.842906 0.553262 0.120175
H13   H     H_    0.213044 0.613665 0.537123 0.095862
H14   H     H_    0.017392 0.062981 0.437831 0.106080
H15   H     H_    0.982616 0.062978 0.562181 0.106083
H16   H     H_    0.517401 0.562987 0.437849 0.106073
H17   H     H_    0.482628 0.562972 0.562201 0.106079
H18   H     H_    0.917834 0.418510 0.403152 0.170099
H19   H     H_    0.082163 0.418508 0.596848 0.170096
H20   H     H_    0.417833 0.918512 0.403152 0.170099
H21   H     H_    0.582164 0.918509 0.596846 0.170098
H22   H     H_    0.038273 0.238167 0.553423 0.087880
H23   H     H_    0.810203 0.342895 0.446737 0.120176
H24   H     H_    0.961727 0.238166 0.446573 0.087882
H25   H     H_    0.538273 0.738167 0.553420 0.087873
H26   H     H_    0.461727 0.738169 0.446569 0.087882
H27   H     H_    0.238059 0.093393 0.042682 0.142158
H28   H     H_    0.761874 0.093349 0.957327 0.142121
H29   H     H_    0.737755 0.593458 0.042729 0.142364
H30   H     H_    0.262074 0.593436 0.957300 0.142259
H31   H     H_    0.917250 0.384425 0.975059 0.176503
H32   H     H_    0.869241 0.457490 0.042302 0.132815
H33   H     H_    0.852153 0.231642 0.036430 0.104129
H34   H     H_    0.189774 0.342915 0.553259 0.120165
H35   H     H_    0.943031 0.211432 0.053816 0.199590
H36   H     H_    0.889891 0.277674 0.119861 0.184016
H37   H     H_    0.082739 0.384330 0.024918 0.176489
H38   H     H_    0.130749 0.457452 0.957694 0.132831
H39   H     H_    0.110005 0.277702 0.880059 0.184108
H40   H     H_    0.147892 0.231651 0.963419 0.104101
H41   H     H_    0.056994 0.211370 0.946182 0.199528
H42   H     H_    0.417217 0.884220 0.975278 0.176475
H43   H     H_    0.369354 0.957444 0.042572 0.132915
H44   H     H_    0.352196 0.731661 0.036973 0.104075
H45   H     H_    0.243100 0.818331 0.074565 0.098856
H46   H     H_    0.443106 0.711353 0.054054 0.199509
H47   H     H_    0.390227 0.777800 0.120230 0.184134
H48   H     H_    0.582781 0.884208 0.024718 0.176476
H49   H     H_    0.630647 0.957449 0.957429 0.132914
H50   H     H_    0.609756 0.777830 0.879756 0.184174
H51   H     H_    0.647818 0.731689 0.962999 0.104026
H52   H     H_    0.556901 0.711359 0.945944 0.199508
H53   H     H_    0.202950 0.128221 0.570967 0.120908
H54   H     H_    0.116042 0.077040 0.575138 0.160318
H55   H     H_    0.101866 0.182231 0.469538 0.118682
H56   H     H_    0.756951 0.818331 0.925419 0.098904
H57   H     H_    0.188974 0.190531 0.456012 0.132477
H58   H     H_    0.141993 0.056628 0.431429 0.238187
H59   H     H_    0.797058 0.128211 0.429034 0.120903
H60   H     H_    0.883966 0.077024 0.424866 0.160319
H61   H     H_    0.898141 0.182215 0.530464 0.118685
H62   H     H_    0.811033 0.190521 0.543989 0.132481
H63   H     H_    0.858009 0.056615 0.568573 0.238189
H64   H     H_    0.702956 0.628223 0.570967 0.120903
H65   H     H_    0.616046 0.577051 0.575138 0.160309
H66   H     H_    0.601877 0.682249 0.469539 0.118684
H67   H     H_    0.743285 0.318354 0.074505 0.098715
H68   H     H_    0.688983 0.690527 0.456009 0.132474
H69   H     H_    0.641993 0.556634 0.431430 0.238185
H70   H     H_    0.297073 0.628204 0.429034 0.120895
H71   H     H_    0.383977 0.576996 0.424869 0.160326
H72   H     H_    0.398167 0.682164 0.530473 0.118684
H73   H     H_    0.311052 0.690528 0.543983 0.132479
H74   H     H_    0.358001 0.556591 0.568577 0.238202
H75   H     H_    0.256828 0.318343 0.925461 0.098780
H76   H     H_    0.306151 0.931016 0.927056 0.064241
I1    I     I_    0.098356 0.936411 0.965743 -0.374791
I2    I     I_    0.922927 0.880735 0.664186 -0.271733
I3    I     I_    0.577065 0.380752 0.335827 -0.271713
I4    I     I_    0.422923 0.380723 0.664192 -0.271715
I5    I     I_    0.901632 0.936409 0.034248 -0.374758
I6    I     I_    0.598277 0.436548 0.965669 -0.374772
I7    I     I_    0.401679 0.436484 0.034292 -0.374783
I8    I     I_    0.386172 0.924151 0.620364 -0.381061
I9    I     I_    0.613832 0.924202 0.379634 -0.381045
I10   I     I_    0.886170 0.424168 0.620365 -0.381075
I11   I     I_    0.113832 0.424198 0.379630 -0.381056
I12   I     I_    0.077071 0.880739 0.335821 -0.271726
O1    O     O_R   0.043230 0.549300 0.667990 -0.529779
O2    O     O_R   0.832470 0.905110 0.169660 -0.475182
O3    O     O_R   0.667530 0.405110 0.830340 -0.475208
O4    O     O_R   0.332470 0.405110 0.169660 -0.475207
O5    O     O_R   0.054010 0.748440 0.822860 -0.471640
O6    O     O_R   0.945990 0.748440 0.177140 -0.471643
O7    O     O_R   0.554010 0.248440 0.822860 -0.471628
O8    O     O_R   0.445990 0.248440 0.177140 -0.471632
O9    O     O_3   0.165160 0.665150 0.749190 -0.317056
O10   O     O_3   0.834840 0.665150 0.250810 -0.317058
O11   O     O_3   0.665160 0.165150 0.749190 -0.317042
O12   O     O_R   0.956770 0.549300 0.332010 -0.529776
O13   O     O_3   0.334840 0.165150 0.250810 -0.317036
O14   O     O_R   0.178620 0.457600 0.674100 -0.530283
O15   O     O_R   0.821380 0.457600 0.325900 -0.530279
O16   O     O_R   0.678620 0.957600 0.674100 -0.530285
O17   O     O_R   0.321380 0.957600 0.325900 -0.530285
O18   O     O_R   0.284680 0.542100 0.669460 -0.477043
O19   O     O_R   0.715320 0.542100 0.330540 -0.477024
O20   O     O_R   0.784680 0.042100 0.669460 -0.477035
O21   O     O_R   0.215320 0.042100 0.330540 -0.477030
O22   O     O_R   0.262860 0.790390 0.676650 -0.514725
O23   O     O_R   0.543230 0.049300 0.667990 -0.529767
O24   O     O_R   0.737140 0.790390 0.323350 -0.514731
O25   O     O_R   0.762860 0.290390 0.676650 -0.514723
O26   O     O_R   0.237140 0.290390 0.323350 -0.514726
O27   O     O_R   0.167460 0.907030 0.670940 -0.506188
O28   O     O_R   0.832540 0.907030 0.329060 -0.506188
O29   O     O_R   0.667460 0.407030 0.670940 -0.506181
O30   O     O_R   0.332540 0.407030 0.329060 -0.506196
O31   O     O_R   0.053950 0.750220 0.675100 -0.481960
O32   O     O_R   0.946050 0.750220 0.324900 -0.481963
O33   O     O_R   0.553950 0.250220 0.675100 -0.481953
O34   O     O_R   0.456770 0.049300 0.332010 -0.529764
O35   O     O_R   0.446050 0.250220 0.324900 -0.481951
O36   O     O_R   0.043300 0.547370 0.827390 -0.442230
O37   O     O_R   0.956700 0.547370 0.172610 -0.442213
O38   O     O_R   0.543300 0.047370 0.827390 -0.442310
O39   O     O_R   0.456700 0.047370 0.172610 -0.442305
O40   O     O_R   0.178690 0.455820 0.821860 -0.510521
O41   O     O_R   0.821310 0.455820 0.178140 -0.510496
O42   O     O_R   0.678690 0.955820 0.821860 -0.510710
O43   O     O_R   0.321310 0.955820 0.178140 -0.510701
O44   O     O_R   0.284750 0.540170 0.828860 -0.474195
O45   O     O_R   0.262920 0.788600 0.824420 -0.497288
O46   O     O_R   0.715250 0.540170 0.171140 -0.474237
O47   O     O_R   0.784750 0.040170 0.828860 -0.474135
O48   O     O_R   0.215250 0.040170 0.171140 -0.474147
O49   O     O_3   0.972646 0.442619 0.064811 -0.521752
O50   O     O_3   0.027346 0.442611 0.935186 -0.521773
O51   O     O_3   0.472804 0.942565 0.064859 -0.521811
O52   O     O_3   0.527194 0.942566 0.935141 -0.521816
O53   O     O_3   0.180662 0.948526 0.535177 -0.557746
O54   O     O_3   0.819342 0.948513 0.464824 -0.557750
O55   O     O_3   0.680661 0.448529 0.535178 -0.557741
O56   O     O_R   0.737080 0.788600 0.175580 -0.497309
O57   O     O_3   0.319342 0.448501 0.464827 -0.557758
O58   O     O_R   0.762920 0.288600 0.824420 -0.497280
O59   O     O_R   0.237080 0.288600 0.175580 -0.497290
O60   O     O_R   0.167530 0.905110 0.830340 -0.475191

loop_
_geom_bond_atom_site_label_1
_geom_bond_atom_site_label_2
_ccdc_geom_bond_type
C1    O18   A    
C8    C9    S    
C32   C94   S    
Cr1   O14   S    
C34   H21   S    
Cr12  O60   S    
C37   H24   S    
C12   C74   S    
C6    H59   S    
C102  C103  S    
Cr4   O13   S    
C14   C18   A    
C42   C82   S    
C11   H74   S    
Cr11  O13   S    
Cr6   O11   S    
C87   C92   D    
C9    H68   S    
C3    H51   S    
Cr11  O48   S    
C80   O60   A    
C52   O26   A    
C48   C57   D    
C58   I1    S    
C72   C98   S    
C101  H34   S    
C15   C19   A    
C22   H17   S    
C10   C11   S    
C10   H70   S    
C99   H12   S    
C24   C98   A    
C78   O47   A    
Cr4   O4    S    
C13   C29   A    
C36   C37   A    
Cr2   O6    S    
Cr3   O7    S    
Cr7   O17   S    
C55   C59   S    
Cr12  O27   S    
C66   C88   S    
C38   C39   A    
C93   H9    S    
C3    H52   S    
C105  H40   S    
C65   I9    S    
C106  C107  S    
C19   H15   S    
Cr6   O42   S    
C90   O54   S    
C53   H27   S    
Cr5   O41   S    
C66   H7    S    
C17   I4    S    
C18   C19   A    
C14   C24   A    
C49   O22   A    
C36   H22   S    
C86   O7    A    
Cr5   O15   S    
C97   H1    S    
C51   C91   S    
Cr10  O58   S    
Cr9   O56   S    
C103  H33   S    
Cr4   O35   S    
C32   O20   A    
Cr1   O40   S    
C76   I10   S    
C4    O53   S    
C71   O1    A    
C50   C90   S    
C46   C55   D    
C23   C24   A    
C72   O32   A    
C54   C97   S    
C50   O24   A    
C2    C27   A    
C64   C70   D    
C21   O15   A    
C104  H37   S    
Cr5   O12   S    
C83   O4    A    
C52   O30   A    
C102  H31   S    
C69   O51   S    
C12   C30   A    
C44   C83   S    
C84   O36   A    
C70   O52   S    
C81   O2    A    
C108  H48   S    
C107  H46   S    
C45   C53   D    
Cr3   O33   S    
C4    H54   S    
C96   C101  D    
C63   C85   S    
C10   H71   S    
C95   H11   S    
C5    H55   S    
C48   C75   S    
C13   C25   A    
Cr12  O31   S    
Cr2   O2    S    
Cr3   O11   S    
C86   O38   A    
Cr1   O1    S    
C60   I6    S    
C64   C86   S    
C104  C105  S    
C32   O16   A    
Cr2   O28   S    
C42   H3    S    
C6    C7    S    
Cr7   O39   S    
Cr8   O45   S    
C16   C26   A    
C65   C90   D    
C21   O19   A    
C44   C61   D    
C107  H47   S    
C89   O53   S    
C40   C58   D    
C80   O45   A    
C7    H61   S    
C27   C31   A    
C67   C68   S    
C54   I8    S    
Cr1   O9    S    
C65   C99   S    
C54   C89   D    
C6    O54   S    
C9    H66   S    
Cr10  O47   S    
C42   C60   D    
Cr6   O23   S    
C46   C78   S    
C15   I2    S    
Cr11  O21   S    
C95   C100  D    
Cr12  O9    S    
C104  O50   S    
Cr8   O44   S    
Cr1   O36   S    
C64   H8    S    
C25   C26   A    
C29   C34   A    
C44   H4    S    
C33   C37   A    
C56   C60   S    
Cr8   O18   S    
C1    O14   A    
C71   O31   A    
C41   H2    S    
C35   C39   A    
C45   C79   S    
C38   H25   S    
C29   C30   A    
C11   H72   S    
C35   H20   S    
Cr7   O34   S    
Cr9   O46   S    
C59   I5    S    
Cr11  O26   S    
C63   C67   D    
C51   O29   A    
C87   C101  S    
C33   H18   S    
C16   C20   A    
C41   C81   S    
C57   H30   S    
C2    C23   A    
C40   C80   S    
C73   O33   A    
Cr9   O10   S    
C82   O58   A    
Cr3   O29   S    
C106  H43   S    
C20   H16   S    
C8    O55   S    
C50   O28   A    
C41   C59   D    
C67   O49   S    
C16   I3    S    
C74   O35   A    
C30   C35   A    
C103  H35   S    
Cr12  O5    S    
C13   C73   S    
C28   C33   A    
C5    H57   S    
Cr4   O30   S    
C4    H53   S    
C48   H75   S    
C106  O51   S    
C8    H65   S    
C74   O34   A    
C46   H56   S    
C63   H5    S    
C77   O41   A    
C92   O57   S    
C31   H19   S    
C2    C71   S    
C94   H10   S    
C93   C97   D    
Cr5   O10   S    
C73   O23   A    
C91   O55   S    
C84   O5    A    
C62   H6    S    
C82   O3    A    
C40   H76   S    
C28   C98   A    
C62   C84   S    
Cr9   O19   S    
C49   C89   S    
C88   O8    A    
C7    H62   S    
Cr8   O22   S    
C34   C38   A    
C10   O57   S    
C79   O43   A    
Cr7   O13   S    
C77   O46   A    
C11   H73   S    
C20   C22   A    
C4    C5    S    
C100  H23   S    
C53   C58   S    
C43   O21   A    
C3    H50   S    
C57   C61   S    
C96   H13   S    
C106  H42   S    
C7    H63   S    
C3    C108  S    
C76   C100  S    
C21   C95   S    
Cr9   O24   S    
C17   C22   A    
C102  O49   S    
C62   C68   D    
C51   O25   A    
C9    H69   S    
Cr10  O20   S    
C78   O42   A    
C83   O59   A    
C105  H41   S    
C56   H29   S    
C79   O48   A    
C17   C25   A    
C85   O37   A    
C85   O6    A    
C61   I7    S    
C88   O39   A    
C68   O50   S    
Cr10  O25   S    
C8    H64   S    
C55   H28   S    
Cr6   O38   S    
C45   H45   S    
C94   C99   D    
C1    C96   S    
Cr5   O37   S    
C6    H60   S    
C104  H38   S    
C39   H26   S    
C15   C23   A    
C43   C93   S    
C18   H14   S    
Cr2   O32   S    
Cr4   O8    S    
C108  O52   S    
C87   I11   S    
C69   C70   S    
Cr2   O10   S    
Cr3   O3    S    
C5    H58   S    
C52   C92   S    
C14   I12   S    
C105  H39   S    
C76   C91   D    
C66   C69   D    
C43   O17   A    
C103  H36   S    
Cr7   O43   S    
C107  H44   S    
C81   O56   A    
C49   O27   A    
C12   C26   A    
C27   C28   A    
C47   C77   S    
C31   C36   A    
C72   O12   A    
Cr6   O16   S    
Cr8   O9    S    
C108  H49   S    
C47   H67   S    
Cr11  O59   S    
C75   O40   A    
C75   O44   A    
C102  H32   S    
C47   C56   D    
Cr10  O11   S    
