data_mof_unit_9523.cif
_audit_creation_date              2012-12-10T17:52:55-0500
_audit_creation_method            fapswitch 2.2
_symmetry_space_group_name_H-M    P1
_symmetry_Int_Tables_number       1
_space_group_crystal_system       triclinic
_cell_length_a                    18.95351
_cell_length_b                    18.46433
_cell_length_c                    18.736343
_cell_angle_alpha                 108.775834
_cell_angle_beta                  109.895907
_cell_angle_gamma                 109.283815
_cell_volume                      5075.58525579

loop_
_atom_site_label
_atom_site_type_symbol
_atom_type_description
_atom_site_fract_x
_atom_site_fract_y
_atom_site_fract_z
_atom_type_partial_charge
C1    C     C_R   0.121139 0.120718 0.501838 0.963770
C2    C     C_R   0.329219 0.319397 0.587961 0.383908
C3    C     C_R   0.260283 0.257481 0.585923 0.290109
C4    C     C_R   0.120239 0.999226 0.619596 0.923562
C5    C     C_R   0.187576 0.189407 0.504889 -0.267883
C6    C     C_R   0.733175 0.910886 0.244488 0.358411
C7    C     C_R   0.675600 0.912469 0.174675 0.221105
C8    C     C_R   0.685967 0.995495 0.183574 -0.349322
C9    C     C_R   0.759102 0.075488 0.255443 0.413394
C10   C     C_R   0.818187 0.071565 0.319193 -0.353785
C11   C     C_R   0.806165 0.991588 0.314159 -0.257749
C12   C     C_R   0.266146 0.016326 0.688633 -0.150700
C13   C     C_R   0.825381 0.741934 0.507515 0.304527
C14   C     C_R   0.758743 0.675360 0.502655 0.343859
C15   C     C_R   0.684045 0.680786 0.492615 -0.355528
C16   C     C_R   0.881623 0.879848 0.502076 1.103876
C17   C     C_R   0.673501 0.749933 0.485021 0.307573
C18   C     C_R   0.743788 0.822761 0.502335 0.342906
C19   C     C_R   0.816385 0.814293 0.504412 -0.421108
C20   C     C_R   0.500922 0.879865 0.880712 0.976240
C21   C     C_R   0.381132 0.006839 0.885015 0.882767
C22   C     C_R   0.504488 0.120591 0.124287 1.049275
C23   C     C_R   0.185314 0.995587 0.683896 -0.034464
C24   C     C_R   0.619999 0.998598 0.119340 1.090580
C25   C     C_R   0.496662 0.617072 0.619773 0.980439
C26   C     C_R   0.380775 0.382545 0.503775 1.097672
C27   C     C_R   0.499697 0.380027 0.379509 1.031745
C28   C     C_R   0.875914 0.995572 0.380235 1.004035
C29   C     C_R   0.619349 0.617879 0.497186 1.003704
C30   C     C_R   0.580045 0.822631 0.817129 0.430022
C31   C     C_R   0.574944 0.755378 0.751812 -0.305845
C32   C     C_R   0.495248 0.682490 0.685182 -0.188037
C33   C     C_R   0.417644 0.675029 0.682140 0.480164
C34   C     C_R   0.172193 0.987468 0.750736 -0.206387
C35   C     C_R   0.422758 0.740646 0.749145 -0.283301
C36   C     C_R   0.502447 0.813748 0.815816 -0.191165
C37   C     C_R   0.522623 0.267304 0.193114 0.290422
C38   C     C_R   0.506286 0.324621 0.245129 0.292670
C39   C     C_R   0.495441 0.311183 0.311494 -0.418213
C40   C     C_R   0.282367 0.015516 0.619870 0.254498
C41   C     C_R   0.481411 0.232169 0.313641 0.219065
C42   C     C_R   0.495520 0.173070 0.259296 0.284120
C43   C     C_R   0.510162 0.188662 0.195147 -0.377868
C44   C     C_R   0.363603 0.079224 0.641015 0.223245
C45   C     C_R   0.237513 0.995190 0.820433 0.463365
C46   C     C_R   0.430558 0.130062 0.728478 0.266365
C47   C     C_R   0.416559 0.116557 0.793321 0.395964
C48   C     C_R   0.335871 0.049353 0.770002 -0.197645
C49   C     C_3   0.238830 0.317638 0.698055 0.178076
C50   C     C_3   0.237316 0.313670 0.777379 -0.732102
C51   C     C_3   0.731167 0.534106 0.433667 0.149261
C52   C     C_3   0.754359 0.466212 0.446818 -0.707163
C53   C     C_3   0.548267 0.722338 0.380034 0.164064
C54   C     C_3   0.460519 0.714658 0.359894 -0.663191
C55   C     C_3   0.636210 0.344532 0.182653 0.166106
C56   C     C_R   0.318894 0.020242 0.826879 -0.162279
C57   C     C_3   0.664592 0.361851 0.120308 -0.715910
C58   C     C_3   0.568266 0.164742 0.761379 0.170662
C59   C     C_3   0.653001 0.234963 0.781037 -0.691805
C60   C     C_3   0.450372 0.235768 0.914281 0.061504
C61   C     C_3   0.482618 0.316092 0.902758 -0.672432
C62   C     C_3   0.257543 0.061233 0.956506 0.074367
C63   C     C_3   0.246708 0.045353 0.027839 -0.676605
C64   C     C_3   0.042578 0.152481 0.327708 0.056012
C65   C     C_3   0.962981 0.080845 0.240271 -0.673934
C66   C     C_R   0.175904 0.189620 0.427341 0.451808
C67   C     C_R   0.239656 0.255552 0.429989 -0.261898
C68   C     C_R   0.316499 0.318441 0.508341 -0.247280
H1    H     H_    0.110798 0.973548 0.747941 0.192533
H2    H     H_    0.302602 0.332475 0.826477 0.266139
H3    H     H_    0.603065 0.686373 0.201843 0.381669
H4    H     H_    0.677532 0.761776 0.046695 0.361699
H5    H     H_    0.707860 0.227913 0.312592 0.376345
H6    H     H_    0.985269 0.668646 0.567425 0.394290
H7    H     H_    0.753335 0.550753 0.390195 0.163199
H8    H     H_    0.660206 0.503379 0.402021 0.138978
H9    H     H_    0.733265 0.448698 0.490293 0.264490
H10   H     H_    0.721389 0.405764 0.383183 0.167331
H11   H     H_    0.825118 0.492725 0.476174 0.290390
H12   H     H_    0.876062 0.131659 0.373057 0.213871
H13   H     H_    0.537734 0.656878 0.337900 0.164631
H14   H     H_    0.581469 0.771090 0.363482 0.196975
H15   H     H_    0.468643 0.779328 0.399761 0.285915
H16   H     H_    0.422011 0.693365 0.289932 0.208368
H17   H     H_    0.425323 0.665416 0.374623 0.249435
H18   H     H_    0.756930 0.019835 0.485607 0.385097
H19   H     H_    0.759366 0.851127 0.915339 0.356301
H20   H     H_    0.132181 0.863151 0.386150 0.373778
H21   H     H_    0.249620 0.444724 0.540804 0.366315
H22   H     H_    0.673022 0.316596 0.213368 0.183174
H23   H     H_    0.633312 0.760605 0.751032 0.208791
H24   H     H_    0.652843 0.408581 0.234072 0.146711
H25   H     H_    0.632484 0.394225 0.092067 0.259078
H26   H     H_    0.735554 0.405828 0.155782 0.220486
H27   H     H_    0.647435 0.298952 0.067040 0.261681
H28   H     H_    0.374515 0.422624 0.181093 0.378093
H29   H     H_    0.314835 0.204449 0.293183 0.352615
H30   H     H_    0.582768 0.024534 0.273473 0.383296
H31   H     H_    0.426332 0.047454 0.474240 0.422016
H32   H     H_    0.543918 0.104319 0.700419 0.177745
H33   H     H_    0.581142 0.150134 0.816255 0.159161
H34   H     H_    0.364102 0.736324 0.748508 0.214397
H35   H     H_    0.679601 0.295842 0.842185 0.248716
H36   H     H_    0.700302 0.211078 0.788783 0.218337
H37   H     H_    0.642422 0.250185 0.726807 0.282004
H38   H     H_    0.478486 0.258269 0.984683 0.242817
H39   H     H_    0.379121 0.204944 0.887019 0.120016
H40   H     H_    0.450207 0.296010 0.832661 0.299191
H41   H     H_    0.467480 0.364773 0.937390 0.231973
H42   H     H_    0.553476 0.347024 0.929330 0.261951
H43   H     H_    0.224029 0.098013 0.940489 0.155313
H44   H     H_    0.327907 0.102632 0.982795 0.117499
H45   H     H_    0.229712 0.255736 0.369574 0.212014
H46   H     H_    0.279147 0.008251 0.044761 0.271723
H47   H     H_    0.276165 0.109334 0.086908 0.203497
H48   H     H_    0.177099 0.007068 0.005498 0.262629
H49   H     H_    0.069389 0.212980 0.322612 0.165367
H50   H     H_    0.022470 0.165905 0.377745 0.123737
H51   H     H_    0.933573 0.019855 0.243424 0.247262
H52   H     H_    0.914834 0.102914 0.223102 0.240393
H53   H     H_    0.980931 0.066447 0.188832 0.268991
H54   H     H_    0.561433 0.424670 0.736914 0.373626
H55   H     H_    0.173288 0.300698 0.651102 0.136624
H56   H     H_    0.283683 0.386538 0.718654 0.195593
H57   H     H_    0.217081 0.359750 0.806834 0.212362
H58   H     H_    0.191031 0.245897 0.758052 0.251220
O1    O     O_R   0.091590 0.143330 0.551700 -0.660392
O2    O     O_R   0.551730 0.591680 0.643420 -0.616384
O3    O     O_R   0.356670 0.408480 0.448390 -0.630709
O4    O     O_R   0.091620 0.039900 0.448280 -0.540226
O5    O     O_R   0.460120 0.408460 0.551810 -0.531378
O6    O     O_R   0.448270 0.408490 0.356760 -0.552539
O7    O     O_R   0.551720 0.408480 0.460170 -0.614295
O8    O     O_R   0.539880 0.591710 0.448370 -0.592480
O9    O     O_R   0.643330 0.591700 0.551790 -0.602769
O10   O     O_R   0.091610 0.051730 0.643330 -0.657686
O11   O     O_R   0.091640 0.948310 0.539920 -0.527362
O12   O     O_R   0.551760 0.960180 0.908450 -0.584967
O13   O     O_R   0.908380 0.960100 0.551720 -0.569825
O14   O     O_R   0.908410 0.856670 0.448300 -0.546661
O15   O     O_R   0.908360 0.051690 0.460080 -0.618702
O16   O     O_R   0.908390 0.948270 0.356670 -0.600103
O17   O     O_R   0.448330 0.856720 0.908450 -0.594604
O18   O     O_3   0.265392 0.258883 0.661864 -0.577989
O19   O     O_2   0.757330 0.770665 0.210007 -0.262673
O20   O     O_2   0.746741 0.828741 0.340122 -0.342855
O21   O     O_3   0.606554 0.737852 0.194171 -0.460285
O22   O     O_2   0.513762 0.775006 0.075079 -0.185891
O23   O     O_R   0.356660 0.948290 0.908410 -0.588473
O24   O     O_2   0.579214 0.829291 0.998601 -0.329863
O25   O     O_3   0.628636 0.736900 0.056044 -0.427356
O26   O     O_2   0.859481 0.252665 0.356282 -0.311423
O27   O     O_2   0.807770 0.190998 0.200752 -0.235384
O28   O     O_3   0.699254 0.198339 0.253451 -0.550572
O29   O     O_2   0.920442 0.704117 0.439369 -0.266057
O30   O     O_2   0.998791 0.827259 0.587753 -0.333970
O31   O     O_3   0.933107 0.670379 0.565866 -0.478050
O32   O     O_3   0.769642 0.608917 0.515221 -0.521893
O33   O     O_3   0.596496 0.749449 0.469281 -0.545972
O34   O     O_R   0.460090 0.051750 0.908420 -0.602523
O35   O     O_2   0.659498 0.915840 0.528650 -0.227017
O36   O     O_2   0.815088 0.991836 0.621737 -0.259977
O37   O     O_3   0.753738 0.961787 0.462294 -0.525968
O38   O     O_2   0.692116 0.989135 0.873872 -0.228926
O39   O     O_2   0.697862 0.947222 0.985912 -0.279284
O40   O     O_3   0.761743 0.892444 0.891967 -0.513876
O41   O     O_2   0.286502 0.889293 0.502561 -0.219875
O42   O     O_2   0.165304 0.842325 0.527958 -0.236020
O43   O     O_3   0.165081 0.923025 0.436992 -0.468107
O44   O     O_2   0.245647 0.591909 0.618956 -0.276054
O45   O     O_R   0.448250 0.039900 0.091630 -0.605856
O46   O     O_2   0.295393 0.588431 0.513980 -0.254105
O47   O     O_3   0.310315 0.490486 0.584848 -0.584738
O48   O     O_3   0.546341 0.285418 0.136144 -0.579437
O49   O     O_2   0.541738 0.493452 0.290424 -0.388174
O50   O     O_2   0.494775 0.399050 0.139100 -0.267441
O51   O     O_3   0.380884 0.373584 0.187511 -0.526729
O52   O     O_2   0.379648 0.103415 0.333875 -0.185069
O53   O     O_2   0.491089 0.244913 0.464499 -0.183006
O54   O     O_3   0.354132 0.234948 0.356876 -0.585944
O55   O     O_2   0.535834 0.112031 0.372402 -0.225828
O56   O     O_R   0.551680 0.143360 0.091630 -0.576480
O57   O     O_2   0.418912 0.004174 0.222218 -0.231351
O58   O     O_3   0.576757 0.067441 0.254445 -0.580554
O59   O     O_2   0.299174 0.079167 0.488448 -0.212489
O60   O     O_2   0.447962 0.192425 0.598447 -0.177868
O61   O     O_3   0.417159 0.032913 0.517972 -0.487872
O62   O     O_3   0.509035 0.196244 0.751813 -0.537497
O63   O     O_3   0.478205 0.177723 0.879508 -0.582495
O64   O     O_3   0.221490 0.979482 0.882245 -0.575482
O65   O     O_3   0.103331 0.123630 0.348285 -0.566358
O66   O     O_2   0.452144 0.488231 0.704455 -0.289435
O67   O     O_R   0.539910 0.948330 0.091670 -0.569023
O68   O     O_2   0.424925 0.390404 0.765308 -0.287967
O69   O     O_3   0.507677 0.376274 0.682505 -0.457767
O70   O     O_R   0.643340 0.051790 0.091670 -0.536505
O71   O     O_R   0.448280 0.591700 0.540000 -0.580540
S1    S     S_3+6 0.712628 0.810649 0.248139 0.080867
S2    S     S_3+6 0.427182 0.201139 0.369285 0.117611
S3    S     S_3+6 0.505152 0.086972 0.278281 0.092659
S4    S     S_3+6 0.381412 0.098326 0.559838 0.146731
S5    S     S_3+6 0.428986 0.396309 0.688646 0.085819
S6    S     S_3+6 0.596604 0.812492 0.073984 0.119026
S7    S     S_3+6 0.784024 0.182207 0.267498 0.047440
S8    S     S_3+6 0.922054 0.737142 0.524764 0.080221
S9    S     S_3+6 0.742009 0.924746 0.530711 0.093482
S10   S     S_3+6 0.684051 0.916048 0.895234 0.078685
S11   S     S_3+6 0.224041 0.914135 0.520620 0.124469
S12   S     S_3+6 0.313828 0.585975 0.597528 0.058590
S13   S     S_3+6 0.484060 0.401260 0.215524 0.019886
Zn1   Zn    Zn3+2 0.999980 0.069060 0.569050 1.035218
Zn2   Zn    Zn3+2 0.000020 0.930940 0.430950 1.187144
Zn3   Zn    Zn3+2 0.430940 0.930960 0.000040 1.138294
Zn4   Zn    Zn3+2 0.569060 0.069120 0.000040 1.132706
Zn5   Zn    Zn3+2 0.430920 0.500100 0.431040 1.091664
Zn6   Zn    Zn3+2 0.569080 0.500080 0.569140 1.113443

loop_
_geom_bond_atom_site_label_1
_geom_bond_atom_site_label_2
_ccdc_geom_bond_type
H3    O21   S    
O52   S2    D    
C40   S11   S    
C47   O63   S    
C41   C42   A    
O4    Zn2   S    
C35   C36   A    
C2    S5    S    
O16   Zn2   S    
H54   O69   S    
C12   C48   A    
C35   H34   S    
C61   H41   S    
O43   S11   S    
C54   H16   S    
C7    C8    A    
C62   O64   S    
O69   S5    S    
C53   C54   S    
C12   C23   A    
C59   H37   S    
C17   O33   S    
C14   O32   S    
C1    C5    S    
C59   H36   S    
C11   C28   S    
C25   O2    A    
C51   H7    S    
C55   H22   S    
C2    C68   A    
C30   C31   A    
H19   O40   S    
C24   O70   A    
C20   O12   A    
C49   H55   S    
C49   O18   S    
C64   H50   S    
C53   H13   S    
C18   C19   A    
O49   S13   D    
O59   S4    D    
C61   H40   S    
C7    S6    S    
C12   C40   A    
C8    C24   S    
C37   O48   S    
C63   H46   S    
C33   S12   S    
C62   H43   S    
C22   C43   S    
C45   C56   A    
C27   C39   S    
C8    C9    A    
O58   S3    S    
H5    O28   S    
O26   S7    D    
O42   S11   D    
C50   H58   S    
C65   H53   S    
H28   O51   S    
C52   H11   S    
C9    C10   A    
O15   Zn1   S    
C22   O45   A    
O71   Zn5   S    
C41   S2    S    
O17   Zn3   S    
O27   S7    D    
C63   H47   S    
C23   C34   A    
C25   C32   S    
C66   C67   A    
C4    O11   A    
C57   H25   S    
C13   C14   A    
O36   S9    D    
C27   O6    A    
C20   O17   A    
C16   O14   A    
O24   S6    D    
C52   H10   S    
C61   H42   S    
H31   O61   S    
C54   H15   S    
C44   C46   A    
C15   C29   S    
C26   O3    A    
C53   O33   S    
C13   C19   A    
O11   Zn2   S    
C58   O62   S    
C51   C52   S    
C27   O7    A    
O31   S8    S    
C51   H8    S    
C39   C41   A    
C1    O4    A    
C67   H45   S    
C6    C11   A    
O6    Zn5   S    
C4    C23   S    
C10   H12   S    
C60   O63   S    
H29   O54   S    
O13   Zn1   S    
C58   C59   S    
C49   H56   S    
C64   H49   S    
C67   C68   A    
O60   S4    D    
C60   C61   S    
C20   C36   S    
O51   S13   S    
O3    Zn5   S    
C55   O48   S    
C37   C38   A    
C9    S7    S    
C21   C56   S    
O10   Zn1   S    
O70   Zn4   S    
C45   O64   S    
C47   C48   A    
H21   O47   S    
H4    O25   S    
O34   Zn4   S    
C66   O65   S    
C62   C63   S    
C17   C18   A    
C65   H51   S    
C58   H32   S    
C50   H57   S    
C38   S13   S    
O30   S8    D    
O39   S10   D    
C34   H1    S    
C58   H33   S    
C60   H39   S    
C34   C45   A    
O2    Zn6   S    
O9    Zn6   S    
C63   H48   S    
O1    Zn1   S    
C29   O9    A    
C55   H24   S    
O46   S12   D    
C21   O23   A    
C57   H26   S    
C55   C57   S    
C44   S4    S    
C21   O34   A    
C13   S8    S    
C37   C43   A    
C16   O13   A    
C28   O16   A    
C42   C43   A    
C52   H9    S    
C3    C5    A    
C64   O65   S    
C60   H38   S    
O14   Zn2   S    
C6    S1    S    
C48   C56   A    
C46   C47   A    
O12   Zn4   S    
H20   O43   S    
O37   S9    S    
H6    O31   S    
O5    Zn6   S    
O7    Zn6   S    
C31   C32   A    
O47   S12   S    
C3    O18   S    
C1    O1    A    
O25   S6    S    
O20   S1    D    
O29   S8    D    
O38   S10   D    
C54   H17   S    
O28   S7    S    
O67   Zn3   S    
C6    C7    A    
C28   O15   A    
O40   S10   S    
O61   S4    S    
C51   O32   S    
C31   H23   S    
O57   S3    D    
C30   C36   A    
C18   S9    S    
C26   C68   S    
C64   C65   S    
C42   S3    S    
C2    C3    A    
C50   H2    S    
C59   H35   S    
O19   S1    D    
C22   O56   A    
O54   S2    S    
C5    C66   A    
O41   S11   D    
C38   C39   A    
O44   S12   D    
O53   S2    D    
C24   O67   A    
C16   C19   S    
C30   S10   S    
C33   C35   A    
C65   H52   S    
O50   S13   D    
C29   O8    A    
H30   O58   S    
C32   C33   A    
O35   S9    D    
O23   Zn3   S    
C25   O71   A    
C10   C11   A    
O8    Zn5   S    
O45   Zn3   S    
C4    O10   A    
C40   C44   A    
C62   H44   S    
C49   C50   S    
C57   H27   S    
O56   Zn4   S    
O66   S5    D    
C14   C15   A    
C53   H14   S    
O21   S1    S    
H18   O37   S    
C46   O62   S    
C15   C17   A    
O55   S3    D    
C26   O5    A    
O22   S6    D    
O68   S5    D    
