data_mof_unit_25973.cif
_audit_creation_date              2013-03-05T15:41:45-0500
_audit_creation_method            fapswitch 2.2
_symmetry_space_group_name_H-M    P1
_symmetry_Int_Tables_number       1
_space_group_crystal_system       triclinic
_cell_length_a                    11.151348
_cell_length_b                    12.709773
_cell_length_c                    23.509779
_cell_angle_alpha                 90.979922
_cell_angle_beta                  97.382024
_cell_angle_gamma                 68.814427
_cell_volume                      3079.5669306

loop_
_atom_site_label
_atom_site_type_symbol
_atom_site_description
_atom_site_fract_x
_atom_site_fract_y
_atom_site_fract_z
_atom_type_partial_charge
O1    O     O_R   0.196340 0.303200 0.448500 -0.480892
O2    O     O_R   0.199310 0.519670 0.454880 -0.501919
C1    C     C_R   0.148398 0.616057 0.428619 0.560408
O3    O     O_R   0.045660 0.691380 0.441680 -0.467346
O4    O     O_R   0.811930 0.659460 0.430950 -0.480017
C2    C     C_R   0.746908 0.605092 0.403825 0.568681
O5    O     O_R   0.757900 0.507620 0.421760 -0.474279
O6    O     O_R   0.988630 0.322990 0.439840 -0.493025
C3    C     C_R   0.100754 0.281220 0.423681 0.555785
O7    O     O_R   0.196380 0.301720 0.573850 -0.514066
O8    O     O_R   0.199350 0.518300 0.571080 -0.514734
C4    C     C_R   0.152121 0.617609 0.590453 0.576906
O9    O     O_R   0.045700 0.689900 0.567030 -0.448496
O10   O     O_R   0.811960 0.658090 0.547150 -0.465692
C5    C     C_R   0.748913 0.602664 0.565260 0.558419
O11   O     O_R   0.757930 0.506140 0.547110 -0.518491
O12   O     O_R   0.988670 0.321620 0.556040 -0.507746
C6    C     C_R   0.099746 0.279542 0.585512 0.541012
Cr1   Cr    Cr6+3 0.189770 0.415650 0.511620 1.051694
Cr2   Cr    Cr6+3 0.930400 0.667320 0.496770 1.125068
Cr3   Cr    Cr6+3 0.879870 0.417010 0.491650 1.066714
O13   O     O_3   0.000020 0.499990 0.500010 -0.280479
C7    C     C_R   0.676485 0.760069 0.139302 0.031184
C8    C     C_R   0.681673 0.643806 0.344402 -0.037419
C9    C     C_R   0.646167 0.573696 0.249205 0.006276
C10   C     C_R   0.643054 0.567882 0.308741 0.009560
C11   C     C_R   0.683533 0.744565 0.319974 0.036527
C12   C     C_R   0.678177 0.755487 0.259355 -0.055003
C13   C     C_R   0.679395 0.660372 0.226084 -0.048368
C14   C     C_R   0.702045 0.658727 0.168388 0.241222
C15   C     C_R   0.680988 0.854662 0.170561 -0.045226
C16   C     C_R   0.677381 0.854545 0.230515 0.024583
C17   C     C_1   0.242332 0.158834 0.124094 0.049493
C18   C     C_2   0.216143 0.220979 0.231301 0.053472
C19   C     C_2   0.144584 0.179830 0.260422 -0.111486
C20   C     C_1   0.126015 0.204587 0.319522 0.055407
C21   C     C_1   0.227716 0.189952 0.172265 0.000995
C22   C     C_1   0.112786 0.233149 0.368187 0.080104
H1    H     H_    0.095885 0.127142 0.238817 0.139588
C23   C     C_1   0.163959 0.754621 0.123105 0.046751
C24   C     C_2   0.124194 0.723803 0.229463 0.278435
C25   C     C_2   0.215795 0.644029 0.264265 0.291261
C26   C     C_1   0.201860 0.635924 0.324412 0.046247
C27   C     C_1   0.144463 0.737156 0.170651 0.039061
C28   C     C_1   0.184309 0.628099 0.373433 0.049746
C29   C     C_1   0.611109 0.765939 0.862675 0.072087
C30   C     C_2   0.627584 0.760679 0.751922 0.083973
C31   C     C_2   0.669611 0.658674 0.727911 0.220692
C32   C     C_1   0.680999 0.647588 0.667614 0.026843
C33   C     C_1   0.624409 0.762919 0.812861 0.049366
C34   C     C_1   0.702734 0.631828 0.619006 0.057164
C35   C     C_R   0.191454 0.194644 0.857556 -0.029643
C36   C     C_R   0.105533 0.233669 0.642494 -0.015299
C37   C     C_R   0.985007 0.203304 0.715996 0.285059
C38   C     C_R   0.998706 0.213450 0.658059 -0.089524
C39   C     C_R   0.201748 0.240389 0.684584 -0.111630
C40   C     C_R   0.189229 0.233447 0.741966 -0.036374
C41   C     C_R   0.084437 0.208857 0.759101 0.055846
C42   C     C_R   0.085246 0.190492 0.818513 0.023284
C43   C     C_R   0.274717 0.246007 0.840117 0.032659
C44   C     C_R   0.277059 0.259030 0.782027 -0.130022
H2    H     H_    0.347946 0.289231 0.767826 0.182569
H3    H     H_    0.921615 0.212624 0.625105 0.124658
H4    H     H_    0.282140 0.260698 0.672923 0.155613
C45   C     C_R   0.127134 0.747141 0.849899 0.064971
C46   C     C_R   0.204625 0.642041 0.647638 -0.021979
C47   C     C_R   0.322058 0.567064 0.741173 0.022725
C48   C     C_R   0.302762 0.556757 0.681537 -0.172485
C49   C     C_R   0.136255 0.742334 0.673469 0.073326
C50   C     C_R   0.122035 0.734878 0.731753 -0.078555
C51   C     C_R   0.221471 0.649703 0.767319 -0.042435
C52   C     C_R   0.216604 0.652997 0.827197 0.201817
C53   C     C_R   0.013388 0.812435 0.814967 0.205462
C54   C     C_R   0.009778 0.806725 0.754737 0.055169
H5    H     H_    0.365797 0.484084 0.661321 0.163468
O14   O     O_R   0.113660 0.883270 0.047820 -0.504458
O15   O     O_R   0.186930 0.068530 0.043990 -0.503904
C55   C     C_R   0.266634 0.110006 0.069443 0.561501
O16   O     O_R   0.377770 0.089040 0.054220 -0.461527
O17   O     O_R   0.562800 0.872960 0.056970 -0.497006
C56   C     C_R   0.602681 0.775347 0.081086 0.587260
O18   O     O_R   0.555390 0.700940 0.062700 -0.434413
O19   O     O_R   0.295020 0.731920 0.049950 -0.482345
C57   C     C_R   0.188533 0.787728 0.069136 0.548830
O20   O     O_R   0.094290 0.884230 0.921550 -0.443042
O21   O     O_R   0.168980 0.069410 0.926940 -0.488161
C58   C     C_R   0.238992 0.119046 0.909048 0.572990
O22   O     O_R   0.358400 0.089990 0.927950 -0.475547
O23   O     O_R   0.544850 0.873850 0.939920 -0.493756
C59   C     C_R   0.574040 0.776645 0.918649 0.552670
O24   O     O_R   0.536020 0.701900 0.936430 -0.466502
O25   O     O_R   0.277070 0.732810 0.932890 -0.451824
C60   C     C_R   0.163435 0.786301 0.906624 0.601661
Cr4   Cr    Cr6+3 0.149500 0.973980 0.985330 1.097152
Cr5   Cr    Cr6+3 0.457000 0.976510 0.994660 1.111769
Cr6   Cr    Cr6+3 0.411170 0.724270 0.995270 1.133797
O26   O     O_3   0.339220 0.891590 0.991750 -0.303695
O27   O     O_3   0.742892 0.560452 0.138328 -0.642493
H6    H     H_    0.798698 0.498699 0.165875 0.333452
O28   O     O_3   0.015323 0.796806 0.250768 -0.676252
H7    H     H_    0.960742 0.850268 0.219238 0.350164
O29   O     O_3   0.712543 0.562028 0.762793 -0.675700
H8    H     H_    0.741313 0.495061 0.738542 0.345990
C61   C     C_2   0.574882 0.871415 0.719341 0.556855
O30   O     O_2   0.545790 0.959128 0.745674 -0.500718
O31   O     O_R   0.555844 0.877008 0.659338 -0.673118
H9    H     H_    0.519208 0.957464 0.643187 0.350469
C62   C     C_2   0.981790 0.161873 0.840434 0.684021
O32   O     O_2   0.965422 0.074498 0.826560 -0.375126
O33   O     O_R   0.907383 0.232712 0.879126 -0.661669
H10   H     H_    0.841095 0.203698 0.891768 0.360180
C63   C     C_2   0.364432 0.280998 0.881851 0.600219
O34   O     O_2   0.466998 0.281041 0.868600 -0.471346
O35   O     O_R   0.330198 0.315799 0.936185 -0.662842
H11   H     H_    0.398395 0.338219 0.960601 0.355899
O36   O     O_3   0.871895 0.196206 0.730447 -0.611699
H12   H     H_    0.812331 0.197136 0.695136 0.340367
O37   O     O_3   0.291081 0.564379 0.864393 -0.623165
H13   H     H_    0.296027 0.494282 0.844270 0.336030
C64   C     C_2   0.691195 0.952308 0.139951 0.609032
O38   O     O_2   0.619416 0.048900 0.147339 -0.439298
O39   O     O_R   0.781527 0.932156 0.101119 -0.691595
H14   H     H_    0.779275 0.004237 0.082405 0.348300
O40   O     O_3   0.908441 0.878138 0.841241 -0.612438
H15   H     H_    0.827431 0.883917 0.816520 0.355650
C65   C     C_2   0.449048 0.495241 0.772929 0.606910
O41   O     O_2   0.507799 0.401258 0.756142 -0.497763
O42   O     O_R   0.505027 0.537264 0.820272 -0.602200
H16   H     H_    0.591100 0.480379 0.838298 0.387066
C66   C     C_2   0.889175 0.871565 0.716238 0.599747
O43   O     O_2   0.854396 0.827539 0.673825 -0.513499
O44   O     O_R   0.817067 0.983302 0.727722 -0.588227
H17   H     H_    0.738777 0.018598 0.697819 0.354125
C67   C     C_2   0.105904 0.854002 0.643605 0.619567
O45   O     O_2   0.070501 0.941327 0.670027 -0.500402
O46   O     O_R   0.129339 0.858990 0.586831 -0.669937
H18   H     H_    0.108448 0.939102 0.572251 0.338561
C68   C     C_2   0.598297 0.499980 0.209826 0.645530
O47   O     O_2   0.648970 0.397232 0.214938 -0.426242
O48   O     O_R   0.500013 0.549376 0.164495 -0.614147
H19   H     H_    0.477016 0.491384 0.139883 0.367569
C69   C     C_2   0.655108 0.963351 0.259470 0.650566
O49   O     O_2   0.739078 0.004894 0.264425 -0.427523
O50   O     O_R   0.536158 0.019597 0.279439 -0.663779
H20   H     H_    0.532219 0.092843 0.298349 0.370759
C70   C     C_2   0.594865 0.486914 0.334549 0.598460
O51   O     O_2   0.637413 0.386553 0.324188 -0.444485
O52   O     O_R   0.505545 0.525851 0.373862 -0.705493
H21   H     H_    0.482123 0.463365 0.389959 0.329264
C71   C     C_2   0.701048 0.832066 0.359145 0.622893
O53   O     O_2   0.617766 0.880443 0.389584 -0.479663
O54   O     O_R   0.815872 0.854222 0.363407 -0.627066
H22   H     H_    0.817532 0.913920 0.392330 0.349741
C72   C     C_2   0.290960 0.290582 0.257122 0.607379
O55   O     O_2   0.359081 0.317974 0.228083 -0.442345
O56   O     O_R   0.286383 0.323571 0.314089 -0.703394
H23   H     H_    0.345418 0.366705 0.326577 0.333759
O57   O     O_3   0.320735 0.568314 0.241871 -0.667484
H24   H     H_    0.371384 0.510788 0.272147 0.352410

loop_
_geom_bond_atom_site_label_1
_geom_bond_atom_site_label_2
_geom_bond_distance
_ccdc_geom_bond_type
C46   C48   1.398482 A    
C58   O22   1.266909 A    
C49   C67   1.499218 S    
C18   C21   1.445351 S    
C24   C25   1.343830 D    
C23   C57   1.432800 S    
C36   C38   1.398404 A    
C66   O44   1.397711 S    
C19   C20   1.443701 S    
C8    C11   1.420445 A    
O42   H16   1.013888 S    
O14   C57   1.266215 A    
C63   O35   1.398934 S    
O35   H11   1.013854 S    
C59   O24   1.267769 A    
O4    Cr2   1.927321 S    
O15   C55   1.271662 A    
O36   H12   0.991696 S    
C48   H5    1.083824 S    
O8    Cr1   1.915107 S    
C65   O41   1.223317 D    
O19   C57   1.278504 A    
C12   C13   1.425463 A    
C8    C10   1.414005 A    
O4    C2    1.279891 A    
O17   C56   1.272361 A    
C17   C55   1.431799 S    
C46   C49   1.401774 A    
O31   H9    1.014004 S    
C5    O11   1.265377 A    
O15   Cr4   1.917846 S    
O25   Cr6   1.929589 S    
C45   C53   1.402440 A    
C62   O32   1.221369 D    
C18   C19   1.353983 D    
C53   C54   1.412752 A    
C10   C70   1.490219 S    
O33   H10   1.013886 S    
C63   O34   1.223624 D    
C35   C43   1.414709 A    
C6    C36   1.454644 S    
O29   H8    0.992701 S    
O24   Cr6   2.031770 S    
O37   H13   0.988609 S    
O20   C60   1.275844 A    
C15   C16   1.415272 A    
O44   H17   1.013745 S    
C32   C34   1.197102 T    
C37   O36   1.381300 S    
C50   C54   1.422532 A    
C39   H4    1.085477 S    
C50   C51   1.423277 A    
C5    C34   1.418583 S    
O21   Cr4   1.930469 S    
C16   C69   1.483416 S    
C44   H2    1.084071 S    
O14   Cr4   2.046732 S    
C45   C60   1.474529 S    
O22   Cr5   2.058374 S    
C2    C8    1.492195 S    
Cr3   O13   1.972982 S    
C25   O57   1.378299 S    
C61   O31   1.398443 S    
C61   O30   1.223903 D    
C64   O39   1.398419 S    
C56   O18   1.283431 A    
C30   C33   1.437171 S    
C70   O52   1.398517 S    
C18   C72   1.494017 S    
C9    C13   1.419022 A    
O1    Cr1   2.032191 S    
O18   Cr6   2.050294 S    
C47   C48   1.402049 A    
C7    C14   1.386558 A    
O10   Cr2   1.918270 S    
C12   C16   1.436827 A    
Cr1   O13   1.980676 S    
O1    C3    1.266679 A    
O52   H21   1.013785 S    
C47   C65   1.487721 S    
C55   O16   1.267678 A    
O6    C3    1.274710 A    
C67   O46   1.399423 S    
Cr4   O26   1.979224 S    
C9    C10   1.408437 A    
O5    Cr3   2.057738 S    
C4    C46   1.470215 S    
C1    C28   1.432364 S    
O12   Cr3   1.939361 S    
C38   H3    1.083735 S    
C43   C44   1.383185 A    
C7    C15   1.411367 A    
O23   Cr5   1.913375 S    
C19   H1    1.087044 S    
O16   Cr5   2.030497 S    
C13   C14   1.409722 A    
C43   C63   1.488535 S    
C35   C42   1.418525 A    
O20   Cr4   2.034817 S    
C66   O43   1.223173 D    
C30   C31   1.350143 D    
O7    Cr1   2.051882 S    
C53   O40   1.382124 S    
C31   O29   1.385318 S    
Cr6   O26   1.982104 S    
O12   C6    1.270311 A    
C24   O28   1.382712 S    
C71   O54   1.398407 S    
O48   H19   1.013782 S    
O17   Cr5   1.941522 S    
C26   C28   1.205126 T    
C72   O55   1.223483 D    
C2    O5    1.273728 A    
C68   O48   1.398758 S    
C31   C32   1.439422 S    
Cr2   O13   1.982033 S    
C11   C71   1.482824 S    
C54   C66   1.489537 S    
O57   H24   0.988041 S    
C24   C27   1.451794 S    
C69   O50   1.397874 S    
C39   C40   1.381496 A    
C1    O3    1.269226 A    
O23   C59   1.269807 A    
C3    C22   1.432445 S    
C64   O38   1.223198 D    
C70   O51   1.221957 D    
C37   C41   1.423628 A    
C36   C39   1.388577 A    
C14   O27   1.381438 S    
C37   C38   1.403195 A    
O56   H23   1.012829 S    
C65   O42   1.398522 S    
C30   C61   1.495438 S    
C7    C56   1.480671 S    
O9    Cr2   2.041734 S    
O2    Cr1   1.933142 S    
O21   C58   1.278251 A    
C72   O56   1.398184 S    
C35   C58   1.475261 S    
O46   H18   1.014128 S    
O6    Cr3   1.914372 S    
O8    C4    1.280411 A    
Cr5   O26   1.973222 S    
O11   Cr3   2.030779 S    
C40   C44   1.390930 A    
C67   O45   1.223226 D    
C29   C59   1.419178 S    
C45   C52   1.401485 A    
C29   C33   1.197492 T    
C42   C62   1.480330 S    
C71   O53   1.222964 D    
O50   H20   1.013680 S    
C20   C22   1.205399 T    
C9    C68   1.491531 S    
C41   C42   1.418423 A    
C51   C52   1.415035 A    
C40   C41   1.419424 A    
O7    C6    1.270423 A    
O19   Cr6   1.916295 S    
O25   C60   1.280575 A    
C62   O33   1.397333 S    
O2    C1    1.279592 A    
C47   C51   1.429249 A    
C49   C50   1.408138 A    
C17   C21   1.204593 T    
C15   C64   1.491549 S    
C68   O47   1.222170 D    
O3    Cr2   2.036747 S    
C23   C27   1.204925 T    
C4    O9    1.271632 A    
O27   H6    0.991716 S    
C25   C26   1.451665 S    
C52   O37   1.376223 S    
C11   C12   1.425746 A    
C69   O49   1.223268 D    
O10   C5    1.271602 A    
O28   H7    0.991971 S    
O54   H22   1.013733 S    
O39   H14   1.013809 S    
O40   H15   0.988859 S    
