data_mof_unit_29631.cif
_audit_creation_date              2012-12-10T17:42:43-0500
_audit_creation_method            fapswitch 2.2
_symmetry_space_group_name_H-M    P1
_symmetry_Int_Tables_number       1
_space_group_crystal_system       triclinic
_cell_length_a                    9.917776
_cell_length_b                    10.705214
_cell_length_c                    13.106128
_cell_angle_alpha                 91.551007
_cell_angle_beta                  72.005577
_cell_angle_gamma                 90.433868
_cell_volume                      1322.95422897

loop_
_atom_site_label
_atom_site_type_symbol
_atom_type_description
_atom_site_fract_x
_atom_site_fract_y
_atom_site_fract_z
_atom_type_partial_charge
C1    C     C_R   0.504674 0.738993 0.488256 0.934140
C2    C     C_R   0.377537 0.460206 0.816724 -0.102680
C3    C     C_R   0.286329 0.886460 0.421357 0.024776
C4    C     C_R   0.423241 0.489326 0.702735 0.958028
C5    C     C_R   0.151518 0.940454 0.447578 0.533035
C6    C     C_R   0.120770 0.047486 0.512948 0.562155
C7    C     C_R   0.228637 0.107989 0.542425 -0.317021
C8    C     C_R   0.367914 0.058521 0.509922 -0.016710
C9    C     C_R   0.388669 0.936986 0.466605 -0.027495
C10   C     C_R   0.509521 0.872038 0.473300 -0.072706
C11   C     C_R   0.623837 0.936717 0.490415 -0.173660
C12   C     C_R   0.432797 0.413083 0.978944 -0.014020
C13   C     C_R   0.615756 0.063619 0.507025 -0.111369
C14   C     C_R   0.489212 0.125861 0.515522 -0.055262
C15   C     C_R   0.805060 0.675701 0.626887 -0.190826
C16   C     C_R   0.495451 0.260076 0.508398 0.902530
C17   C     C_R   0.846345 0.768574 0.685906 -0.292943
C18   C     C_R   0.983538 0.771490 0.688842 0.141287
C19   C     C_R   0.080610 0.681199 0.632574 0.560855
C20   C     C_R   0.046331 0.589957 0.562364 0.027410
C21   C     C_R   0.901994 0.588869 0.561269 0.143433
C22   C     C_R   0.949745 0.410526 0.446988 0.016339
C23   C     C_R   0.471777 0.407696 0.866857 -0.114094
C24   C     C_R   0.092000 0.409488 0.448705 -0.032210
C25   C     C_R   0.577280 0.493967 0.296113 0.886703
C26   C     C_R   0.776110 0.343679 0.029235 0.218692
C27   C     C_R   0.619896 0.458770 0.181848 -0.088763
C28   C     C_R   0.238474 0.491425 0.878431 -0.164534
C29   C     C_R   0.191882 0.467778 0.987136 -0.112509
C30   C     C_R   0.286987 0.424961 0.037135 0.194825
C31   C     C_R   0.540607 0.407312 0.028132 0.025206
C32   C     C_R   0.677548 0.359500 0.971122 -0.056732
C33   C     C_R   0.707298 0.331830 0.859985 0.093529
C34   C     C_R   0.602722 0.350578 0.810542 0.585039
C35   C     C_R   0.517913 0.462711 0.129436 -0.150442
C36   C     C_R   0.747896 0.397154 0.132301 -0.231269
F1    F     F_    0.051135 0.890844 0.407834 -0.621790
F2    F     F_    0.988787 0.097494 0.541457 -0.625850
F3    F     F_    0.199114 0.681332 0.659975 -0.643585
F4    F     F_    0.626209 0.302450 0.709716 -0.634804
H1    H     H_    0.821643 0.382285 0.176958 0.184688
H2    H     H_    0.080772 0.479235 0.031850 0.170522
H3    H     H_    0.718997 0.889371 0.492750 0.223547
H4    H     H_    0.201205 0.191596 0.592405 0.233188
H5    H     H_    0.708710 0.112622 0.513873 0.241746
H6    H     H_    0.913476 0.337253 0.403377 0.165202
H7    H     H_    0.694614 0.672782 0.638926 0.228631
H8    H     H_    0.769152 0.834949 0.733876 0.214778
H9    H     H_    0.161766 0.333895 0.409359 0.173533
H10   H     H_    0.419504 0.511280 0.167985 0.195522
H11   H     H_    0.163896 0.529243 0.841914 0.205661
I1    I     I_    0.342590 0.763338 0.285400 -0.246884
I2    I     I_    0.039468 0.906303 0.789776 -0.178915
I3    I     I_    0.913279 0.302698 0.748726 -0.212303
I4    I     I_    0.943340 0.210172 0.992539 -0.233368
I5    I     I_    0.196043 0.331527 0.181763 -0.370912
N1    N     N_R   0.856860 0.501200 0.500990 -0.103188
N2    N     N_R   0.142450 0.501280 0.501020 -0.104694
O1    O     O_R   0.385310 0.683220 0.500000 -0.536472
O2    O     O_R   0.614640 0.683250 0.500010 -0.655046
O3    O     O_R   0.328400 0.499950 0.653610 -0.548701
O4    O     O_R   0.557730 0.499970 0.653620 -0.601706
O5    O     O_R   0.385360 0.316750 0.499990 -0.647648
O6    O     O_R   0.614690 0.316780 0.500000 -0.578040
O7    O     O_R   0.442270 0.500030 0.346380 -0.601701
O8    O     O_R   0.671600 0.500050 0.346390 -0.618050
Zn1   Zn    Zn3+2 0.346880 0.499980 0.499990 1.029571
Zn2   Zn    Zn3+2 0.653120 0.500020 0.500010 1.014330

loop_
_geom_bond_atom_site_label_1
_geom_bond_atom_site_label_2
_ccdc_geom_bond_type
O8    Zn2   S    
C3    I1    S    
C6    F2    S    
C21   N1    A    
C6    C7    A    
C3    C9    A    
C16   O5    A    
C5    F1    S    
C27   C36   A    
C25   C27   S    
C2    C28   A    
C9    C10   A    
O3    Zn1   S    
C2    C4    S    
C19   C20   A    
C17   H8    S    
C15   H7    S    
C3    C5    A    
C23   C34   A    
O1    Zn1   S    
C32   C33   A    
C2    C23   A    
C35   H10   S    
C17   C18   A    
C7    C8    A    
C7    H4    S    
C26   I4    S    
C13   H5    S    
C11   C13   A    
C12   C23   A    
C36   H1    S    
C29   C30   A    
C15   C21   A    
C19   F3    S    
C22   N1    A    
C34   F4    S    
O6    Zn2   S    
C22   C24   A    
C26   C36   A    
C28   C29   A    
C22   H6    S    
C33   C34   A    
C31   C35   A    
O4    Zn2   S    
C1    O1    A    
C12   C31   A    
C5    C6    A    
C29   H2    S    
C28   H11   S    
O5    Zn1   S    
C11   H3    S    
C10   C11   A    
C1    C10   S    
N1    Zn2   S    
C20   N2    A    
C30   I5    S    
C4    O4    A    
N2    Zn1   S    
C24   H9    S    
C25   O7    A    
C20   C21   A    
O2    Zn2   S    
C24   N2    A    
C18   C19   A    
C1    O2    A    
C33   I3    S    
C15   C17   A    
C26   C32   A    
C8    C14   A    
C16   O6    A    
C18   I2    S    
C27   C35   A    
C14   C16   S    
C13   C14   A    
C12   C30   A    
C4    O3    A    
C25   O8    A    
C31   C32   A    
C8    C9    A    
O7    Zn1   S    
