data_mof_unit_16355.cif
_audit_creation_date              2012-12-10T19:45:51-0500
_audit_creation_method            fapswitch 2.2
_symmetry_space_group_name_H-M    P1
_symmetry_Int_Tables_number       1
_space_group_crystal_system       triclinic
_cell_length_a                    10.855695
_cell_length_b                    14.978016
_cell_length_c                    14.204572
_cell_angle_alpha                 89.334186
_cell_angle_beta                  103.632528
_cell_angle_gamma                 90.394949
_cell_volume                      2244.37746632

loop_
_atom_site_label
_atom_site_type_symbol
_atom_type_description
_atom_site_fract_x
_atom_site_fract_y
_atom_site_fract_z
_atom_type_partial_charge
C1    C     C_R   0.500083 0.328408 0.500545 0.901156
C2    C     C_R   0.496491 0.672204 0.498787 0.886002
C3    C     C_R   0.493242 0.049654 0.502038 0.074982
C4    C     C_R   0.491059 0.952922 0.500734 0.079394
C5    C     C_R   0.397394 0.464350 0.087610 -0.278704
C6    C     C_R   0.537193 0.575588 0.900595 -0.301126
C7    C     C_R   0.401069 0.462926 0.187230 -0.111225
C8    C     C_R   0.540381 0.573400 0.802243 -0.136690
C9    C     C_R   0.596700 0.540816 0.221185 0.511423
C10   C     C_R   0.453689 0.427459 0.787981 0.503286
C11   C     C_R   0.602287 0.536768 0.122562 0.287560
C12   C     C_R   0.457675 0.424461 0.888625 0.255708
C13   C     C_R   0.498774 0.500797 0.053144 0.011880
C14   C     C_R   0.496759 0.500495 0.946136 0.015161
C15   C     C_R   0.259547 0.501787 0.459823 0.935633
C16   C     C_R   0.740670 0.501357 0.540202 0.974987
C17   C     C_2   0.124004 0.507020 0.436982 -0.349371
C18   C     C_2   0.876490 0.508440 0.563004 -0.368306
C19   C     C_2   0.067605 0.520774 0.508827 -0.167940
C20   C     C_2   0.932984 0.515605 0.489956 -0.167529
C21   C     C_R   0.603617 0.094421 0.550152 -0.198933
C22   C     C_R   0.431663 0.908427 0.415878 -0.209155
C23   C     C_R   0.606325 0.186673 0.551596 0.260325
C24   C     C_R   0.429347 0.816104 0.414006 0.241889
C25   C     C_R   0.499273 0.233555 0.501829 -0.057081
C26   C     C_R   0.491962 0.768225 0.497334 -0.088481
C27   C     C_R   0.389517 0.189650 0.453199 -0.273636
C28   C     C_R   0.550356 0.812979 0.582220 -0.237504
C29   C     C_R   0.385650 0.097562 0.454525 -0.154589
C30   C     C_R   0.548741 0.904902 0.584272 -0.165918
H1    H     H_    0.880335 0.513778 0.414797 0.229123
H2    H     H_    0.120712 0.531167 0.583032 0.184166
H3    H     H_    0.929865 0.508589 0.638127 0.155702
H4    H     H_    0.070419 0.497745 0.362934 0.155836
H5    H     H_    0.687923 0.057938 0.585612 0.161095
H6    H     H_    0.387000 0.945321 0.350908 0.165639
H7    H     H_    0.306626 0.226739 0.415775 0.142514
H8    H     H_    0.597760 0.776833 0.647046 0.158120
H9    H     H_    0.298810 0.063951 0.418884 0.148475
H10   H     H_    0.592419 0.938358 0.651124 0.144723
H11   H     H_    0.314763 0.437374 0.037795 0.207360
H12   H     H_    0.566329 0.636145 0.940743 0.211626
H13   H     H_    0.323287 0.433206 0.212247 0.166161
H14   H     H_    0.574050 0.631285 0.769451 0.168308
N1    N     N_R   0.500000 0.499980 0.252470 -0.134409
N2    N     N_R   0.500000 0.500020 0.747530 -0.137567
O1    O     O_R   0.500010 0.369070 0.579480 -0.540306
O2    O     O_R   0.499990 0.630930 0.420520 -0.580535
O3    O     O_R   0.500010 0.369060 0.420520 -0.624560
O4    O     O_R   0.499990 0.630940 0.579480 -0.640759
O5    O     O_R   0.317810 0.500010 0.549800 -0.624328
O6    O     O_R   0.682190 0.499990 0.450200 -0.574809
O7    O     O_R   0.317810 0.500000 0.390840 -0.613012
O8    O     O_R   0.682190 0.500000 0.609160 -0.606395
Zn1   Zn    Zn3+2 0.500000 0.500010 0.606140 0.985669
Zn2   Zn    Zn3+2 0.500000 0.499990 0.393860 0.996072
O9    O     O_3   0.706612 0.572732 0.095137 -0.661399
C31   C     C_3   0.787855 0.503979 0.078990 0.117280
H15   H     H_    0.833101 0.527471 0.020656 0.172337
H16   H     H_    0.737559 0.440683 0.052882 0.105831
C32   C     C_3   0.891771 0.485913 0.170631 -0.335585
H17   H     H_    0.940151 0.549655 0.196927 0.245965
H18   H     H_    0.848663 0.457678 0.228124 0.225775
C33   C     C_3   0.989430 0.420110 0.151075 -0.976341
H19   H     H_    0.942911 0.355811 0.124871 0.266896
H20   H     H_    0.062569 0.407068 0.218810 0.262699
H21   H     H_    0.036968 0.448029 0.095949 0.269142
O10   O     O_3   0.418978 0.348022 0.929176 -0.662570
C34   C     C_3   0.522146 0.288654 0.954195 0.105220
H22   H     H_    0.601084 0.319131 0.009069 0.125128
H23   H     H_    0.556740 0.270272 0.889098 0.175494
C35   C     C_3   0.478872 0.203842 0.997953 -0.318303
H24   H     H_    0.443303 0.221365 0.062636 0.230839
H25   H     H_    0.400135 0.172324 0.943926 0.230060
C36   C     C_3   0.587106 0.137193 0.027888 -0.948226
H26   H     H_    0.622731 0.117547 0.963957 0.269879
H27   H     H_    0.552584 0.076458 0.059378 0.271714
H28   H     H_    0.666019 0.166866 0.083201 0.265090
Br1   Br    Br    0.758026 0.245976 0.619571 -0.574611
Br2   Br    Br    0.332091 0.760968 0.298221 -0.554162
O11   O     O_3   0.694269 0.580383 0.288019 -0.645495
C37   C     C_3   0.684577 0.674209 0.278521 0.108172
H29   H     H_    0.586195 0.697183 0.274976 0.178998
H30   H     H_    0.713261 0.697323 0.212116 0.180962
C38   C     C_3   0.773667 0.716674 0.366320 -0.332765
H31   H     H_    0.747323 0.693686 0.433643 0.226850
H32   H     H_    0.872532 0.695197 0.369979 0.234756
C39   C     C_3   0.767566 0.818395 0.360666 -0.928889
H33   H     H_    0.797764 0.843083 0.295526 0.269660
H34   H     H_    0.831877 0.846925 0.426084 0.269852
H35   H     H_    0.669697 0.841535 0.357296 0.275647
O12   O     O_3   0.410518 0.354402 0.731092 -0.608629
C40   C     C_3   0.277024 0.349268 0.713414 0.122672
H36   H     H_    0.231796 0.415986 0.695995 0.114841
H37   H     H_    0.248882 0.320651 0.777860 0.177429
C41   C     C_3   0.227907 0.287922 0.627331 -0.356008
H38   H     H_    0.249649 0.317995 0.561248 0.222349
H39   H     H_    0.276186 0.222216 0.641358 0.238926
C42   C     C_3   0.085175 0.273524 0.609354 -0.881352
H40   H     H_    0.061381 0.240769 0.673395 0.286145
H41   H     H_    0.052468 0.229911 0.545557 0.273759
H42   H     H_    0.034809 0.338286 0.594723 0.286859

loop_
_geom_bond_atom_site_label_1
_geom_bond_atom_site_label_2
_ccdc_geom_bond_type
C9    N1    A    
C40   H36   S    
C34   C35   S    
C19   C20   S    
O11   C37   S    
C38   H31   S    
C12   O10   S    
C7    N1    A    
C24   C26   A    
C38   C39   S    
C27   C29   A    
C31   H16   S    
C41   C42   S    
C18   C20   D    
C15   C17   S    
C32   H18   S    
C2    O4    A    
C24   Br2   S    
N1    Zn2   S    
O10   C34   S    
C41   H39   S    
N2    Zn1   S    
C10   N2    A    
C15   O5    A    
C5    C13   A    
C31   C32   S    
C10   O12   S    
C40   H37   S    
C13   C14   S    
C1    C25   S    
C32   H17   S    
C35   C36   S    
C19   H2    S    
C18   H3    S    
C16   O8    A    
C38   H32   S    
C34   H23   S    
C33   H21   S    
C16   O6    A    
C35   H25   S    
C5    C7    A    
C1    O1    A    
C6    C8    A    
C2    O2    A    
C31   H15   S    
C33   H20   S    
C32   C33   S    
C36   H26   S    
C6    C14   A    
C4    C22   A    
C42   H40   S    
C39   H35   S    
C28   H8    S    
C41   H38   S    
C29   H9    S    
C30   H10   S    
C2    C26   S    
C9    C11   A    
C10   C12   A    
C42   H41   S    
C39   H34   S    
C40   C41   S    
C37   H30   S    
C21   C23   A    
C22   C24   A    
C3    C21   A    
C17   H4    S    
C3    C4    S    
O3    Zn2   S    
C15   O7    A    
O1    Zn1   S    
O7    Zn2   S    
C7    H13   S    
O2    Zn2   S    
C5    H11   S    
O8    Zn1   S    
C8    H14   S    
C12   C14   A    
C35   H24   S    
C21   H5    S    
C25   C27   A    
C37   C38   S    
C22   H6    S    
C26   C28   A    
O4    Zn1   S    
C33   H19   S    
C28   C30   A    
C11   C13   A    
C3    C29   A    
O9    C31   S    
C27   H7    S    
O12   C40   S    
C17   C19   D    
O5    Zn1   S    
C23   C25   A    
C34   H22   S    
C36   H28   S    
C8    N2    A    
C42   H42   S    
C39   H33   S    
C16   C18   S    
C37   H29   S    
C6    H12   S    
C36   H27   S    
C23   Br1   S    
C11   O9    S    
C1    O3    A    
C4    C30   A    
O6    Zn2   S    
C9    O11   S    
C20   H1    S    
