data_mof_unit_7993.cif
_audit_creation_date              2012-12-11T15:49:58-0500
_audit_creation_method            fapswitch 2.2
_symmetry_space_group_name_H-M    P1
_symmetry_Int_Tables_number       1
_space_group_crystal_system       triclinic
_cell_length_a                    8.226191
_cell_length_b                    19.041681
_cell_length_c                    27.006636
_cell_angle_alpha                 95.111236
_cell_angle_beta                  92.685263
_cell_angle_gamma                 85.490318
_cell_volume                      4197.08361994

loop_
_atom_site_label
_atom_site_type_symbol
_atom_type_description
_atom_site_fract_x
_atom_site_fract_y
_atom_site_fract_z
_atom_type_partial_charge
Ba1   Ba    Ba6+2 0.854000 0.466860 0.523710 1.657906
Ba2   Ba    Ba6+2 0.335820 0.533080 0.476290 1.649278
C1    C     C_3   0.643304 0.215468 0.657412 -0.350610
C2    C     C_R   0.912601 0.570621 0.176682 0.573219
C3    C     C_2   0.760773 0.546833 0.271635 -0.084249
C4    C     C_3   0.157740 0.309902 0.660118 0.286905
C5    C     C_3   0.743438 0.570491 0.326023 -0.047404
C6    C     C_1   0.982938 0.490262 0.343126 0.034711
C7    C     C_2   0.023645 0.486864 0.295487 -0.106980
C8    C     C_2   0.904670 0.514658 0.256069 0.191912
C9    C     C_R   0.024640 0.507104 0.101750 -0.079642
C10   C     C_R   0.059643 0.447428 0.128836 -0.036470
C11   C     C_R   0.134798 0.386101 0.104542 -0.059129
C12   C     C_3   0.650881 0.287237 0.637465 0.335869
C13   C     C_R   0.949970 0.568841 0.126014 -0.024485
C14   C     C_2   0.850819 0.527031 0.360081 -0.292875
C15   C     C_2   0.350951 0.482283 0.641589 -0.284725
C16   C     C_3   0.130819 0.292953 0.712878 -0.334170
C17   C     C_R   0.188292 0.442317 0.975825 0.019519
C18   C     C_R   0.057804 0.562889 0.971827 0.019684
C19   C     C_R   0.142775 0.501840 0.948477 0.051144
C20   C     C_R   0.277845 0.383990 0.951144 -0.098571
C21   C     C_R   0.318199 0.383628 0.901515 -0.058026
C22   C     C_R   0.271148 0.441245 0.873843 -0.030969
C23   C     C_3   0.509233 0.642386 0.626835 0.305376
C24   C     C_R   0.182870 0.500409 0.897216 -0.077434
C25   C     C_R   0.135290 0.558324 0.869384 -0.038217
C26   C     C_R   0.176351 0.556484 0.818898 0.594470
C27   C     C_R   0.311065 0.440821 0.823286 0.580270
C28   C     C_3   0.187688 0.317802 0.418178 0.314258
C29   C     C_2   0.459504 0.483884 0.729492 -0.070244
C30   C     C_3   0.501016 0.488546 0.675643 -0.051961
C31   C     C_1   0.211305 0.512936 0.656937 0.034876
C32   C     C_2   0.172720 0.513183 0.704280 -0.096924
C33   C     C_2   0.302892 0.497057 0.743745 0.198615
C34   C     C_3   0.480550 0.670891 0.680411 -0.324070
C35   C     C_R   0.144090 0.443173 0.026641 0.019788
C36   C     C_R   0.064178 0.505191 0.050402 0.050368
C37   C     C_R   0.023455 0.565463 0.023422 0.020360
C38   C     C_R   0.176332 0.383944 0.054844 -0.098209
C39   C     C_R   0.914975 0.628374 0.099336 -0.059302
C40   C     C_3   0.195298 0.238133 0.405772 -0.383167
C41   C     C_R   0.009255 0.619440 0.942374 -0.098987
C42   C     C_R   0.047413 0.617145 0.892547 -0.055024
C43   C     C_R   0.950585 0.626858 0.049413 -0.101357
C44   C     C_R   0.396485 0.298648 0.521747 -0.285895
C45   C     C_3   0.064521 0.684250 0.338649 0.339755
C46   C     C_R   0.536476 0.276241 0.496106 0.068331
C47   C     C_R   0.589257 0.204292 0.491169 -0.118345
C48   C     C_R   0.500562 0.154104 0.511553 -0.016264
C49   C     C_R   0.355901 0.177659 0.536242 -0.138367
C50   C     C_R   0.303209 0.249770 0.540418 0.011069
C51   C     C_R   0.544420 0.034031 0.544230 -0.072908
C52   C     C_3   0.017925 0.683652 0.579368 0.284625
C53   C     C_R   0.595022 0.961956 0.538248 -0.043364
C54   C     C_R   0.657430 0.931135 0.493014 0.054753
C55   C     C_R   0.670042 0.974581 0.454162 -0.081536
C56   C     C_3   0.078048 0.704292 0.285834 -0.318791
C57   C     C_R   0.619484 0.046753 0.460162 -0.071498
C58   C     C_R   0.555443 0.077372 0.505236 0.058492
C59   C     C_R   0.848045 0.827458 0.461370 -0.121166
C60   C     C_R   0.893264 0.754485 0.457031 0.010459
C61   C     C_R   0.657648 0.733185 0.501966 0.055115
C62   C     C_R   0.611018 0.805555 0.506601 -0.057167
C63   C     C_R   0.705168 0.853759 0.486189 0.002506
C64   C     C_3   0.067705 0.759717 0.585916 0.358732
C65   C     C_R   0.794339 0.707872 0.475701 -0.307232
C66   C     C_3   0.671698 0.381857 0.375971 0.299768
C67   C     C_3   0.525761 0.722495 0.360253 0.363123
C68   C     C_3   0.669880 0.364751 0.319872 -0.358636
C69   C     C_3   0.485542 0.794150 0.340094 -0.363552
C70   C     C_R   0.017653 0.450020 0.179508 0.598174
H1    H     H_    0.763244 0.285968 0.616068 0.105742
H2    H     H_    0.582673 0.427688 0.384506 0.079941
H3    H     H_    0.641262 0.173742 0.625961 0.079800
H4    H     H_    0.763311 0.321024 0.310049 0.133842
H5    H     H_    0.696846 0.411809 0.301273 0.069586
H6    H     H_    0.547612 0.348748 0.306221 0.133858
H7    H     H_    0.541955 0.296667 0.612607 -0.033831
H8    H     H_    0.531077 0.214766 0.678628 0.124512
H9    H     H_    0.391303 0.626178 0.609692 0.006429
H10   H     H_    0.599959 0.596019 0.626409 0.029327
H11   H     H_    0.395919 0.719370 0.681126 0.164350
H12   H     H_    0.273847 0.222994 0.373613 0.127903
H13   H     H_    0.425127 0.631208 0.700615 0.067520
H14   H     H_    0.598112 0.683873 0.699637 0.146474
H15   H     H_    0.751982 0.204128 0.682206 0.141946
H16   H     H_    0.184493 0.333068 0.739669 0.128988
H17   H     H_    0.141007 0.634191 0.342869 0.090347
H18   H     H_    0.935042 0.676269 0.344458 -0.053195
H19   H     H_    0.196341 0.726714 0.281337 0.147344
H20   H     H_    0.071595 0.656409 0.259622 0.121400
H21   H     H_    0.977397 0.743973 0.276676 0.117871
H22   H     H_    0.660723 0.712161 0.360738 -0.067795
H23   H     H_    0.246688 0.210453 0.437958 0.062632
H24   H     H_    0.483655 0.725330 0.398930 0.072949
H25   H     H_    0.550717 0.835048 0.363311 0.064327
H26   H     H_    0.352523 0.808899 0.341011 0.151235
H27   H     H_    0.104725 0.364602 0.656057 0.076240
H28   H     H_    0.524752 0.792513 0.301187 0.120986
H29   H     H_    0.144522 0.465393 0.285078 0.134018
H30   H     H_    0.162499 0.339004 0.124033 0.122889
H31   H     H_    0.557789 0.475301 0.757045 0.106400
H32   H     H_    0.387158 0.337444 0.884783 0.124855
H33   H     H_    0.321362 0.337671 0.969330 0.071663
H34   H     H_    0.070695 0.221084 0.396348 0.127281
H35   H     H_    0.231877 0.334205 0.039445 0.071334
H36   H     H_    0.667268 0.565323 0.245165 0.120553
H37   H     H_    0.859161 0.677064 0.117074 0.123296
H38   H     H_    0.938857 0.666426 0.956378 0.073718
H39   H     H_    0.290986 0.306849 0.654389 -0.015869
H40   H     H_    0.007138 0.662204 0.872073 0.132935
H41   H     H_    0.047461 0.525622 0.714781 0.131385
H42   H     H_    0.921477 0.675665 0.032588 0.071647
H43   H     H_    0.836310 0.538901 0.399747 0.083235
H44   H     H_    0.357257 0.452687 0.605348 0.070839
H45   H     H_    0.884343 0.683600 0.574097 0.010872
H46   H     H_    0.503746 0.824107 0.527119 0.076749
H47   H     H_    0.586501 0.930438 0.569331 0.109486
H48   H     H_    0.498366 0.056064 0.579663 0.076957
H49   H     H_    0.698440 0.187638 0.471068 0.084183
H50   H     H_    0.715547 0.952416 0.418691 0.063665
H51   H     H_    0.998041 0.293834 0.719001 0.141280
H52   H     H_    0.627458 0.078312 0.429064 0.062183
H53   H     H_    0.926868 0.863434 0.447354 0.078117
H54   H     H_    0.281552 0.140131 0.550473 0.085985
H55   H     H_    0.830938 0.651868 0.473316 0.063293
H56   H     H_    0.075873 0.658040 0.545431 -0.003267
H57   H     H_    0.354801 0.354121 0.524598 0.067177
H58   H     H_    0.189548 0.239867 0.719409 0.128146
H59   H     H_    0.312446 0.334081 0.426574 0.003490
H60   H     H_    0.111453 0.331405 0.451018 0.062319
H61   H     H_    0.708566 0.845342 0.647792 0.366704
H62   H     H_    0.200965 0.759664 0.594778 0.023166
H63   H     H_    0.041580 0.785103 0.550766 -0.046476
H64   H     H_    0.795186 0.395406 0.389178 0.009878
N1    N     N_R   0.945378 0.511444 0.203350 -0.421538
N2    N     N_R   0.262577 0.497920 0.796064 -0.426373
O1    O     O_2   0.913240 0.537010 0.617740 -0.463682
O2    O     O_2   0.231897 0.749630 0.463901 -0.492959
O3    O     O_3   0.119280 0.738560 0.372272 -0.601533
O4    O     O_3   0.145240 0.536960 0.557560 -0.490266
O5    O     O_3   0.557280 0.416300 0.475860 -0.489643
O6    O     O_2   0.376710 0.670070 0.522470 -0.477563
O7    O     O_3   0.569685 0.695710 0.602041 -0.591686
O8    O     O_2   0.413880 0.533372 0.322152 -0.499174
O9    O     O_3   0.446737 0.670090 0.330159 -0.592867
O10   O     O_2   0.043545 0.397139 0.202027 -0.596403
O11   O     O_2   0.388277 0.389280 0.803486 -0.598063
O12   O     O_3   0.630695 0.322354 0.398147 -0.636113
O13   O     O_2   0.851728 0.625621 0.197112 -0.620101
O14   O     O_2   0.137372 0.607695 0.795514 -0.576544
O15   O     O_3   0.669960 0.410470 0.588880 -0.488999
O16   O     O_2   0.836807 0.443329 0.673139 -0.498108
O17   O     O_3   0.066891 0.649932 0.622271 -0.603599
O18   O     O_3   0.652123 0.339875 0.677291 -0.591930
O19   O     O_2   0.812980 0.329910 0.477500 -0.460815
O20   O     O_3   0.078660 0.374870 0.564770 -0.491746
O21   O     O_2   0.964551 0.249820 0.535135 -0.484392
O22   O     O_2   0.992019 0.778697 0.682608 -0.245773
O23   O     O_3   0.080772 0.261072 0.626659 -0.598387
O24   O     O_2   0.019530 0.884680 0.639198 -0.283780
O25   O     O_3   0.759544 0.816569 0.619458 -0.539157
O26   O     O_2   0.276450 0.462960 0.382230 -0.462599
O27   O     O_3   0.044470 0.462980 0.442430 -0.494712
O28   O     O_3   0.519740 0.589470 0.411120 -0.478409
O29   O     O_3   0.120934 0.350383 0.376784 -0.623763
O30   O     O_3   0.632420 0.583650 0.524140 -0.478512
O31   O     O_3   0.111040 0.625070 0.435230 -0.491124
P1    P     P_3+3 0.082480 0.557670 0.610090 1.016220
P2    P     P_3+3 0.635220 0.340300 0.462910 0.985187
P3    P     P_3+3 0.106484 0.282892 0.566134 0.940918
P4    P     P_3+3 0.107220 0.442270 0.389900 0.993855
P5    P     P_3+3 0.089538 0.717333 0.432666 0.942831
P6    P     P_3+3 0.666099 0.422095 0.653854 0.970731
P7    P     P_3+3 0.561954 0.672016 0.537984 0.981089
P8    P     P_3+3 0.529895 0.587716 0.346659 0.943940
S1    S     S_3+6 0.960579 0.811570 0.634158 -0.054779

loop_
_geom_bond_atom_site_label_1
_geom_bond_atom_site_label_2
_ccdc_geom_bond_type
C53   C54   A    
O18   P6    S    
C68   H6    S    
Ba2   O6    S    
C4    H39   S    
C19   C24   A    
C67   H24   S    
C50   P3    S    
C44   H57   S    
C51   H48   S    
C61   P7    S    
C53   H47   S    
C32   H41   S    
C27   N2    Am   
C64   S1    S    
C24   C25   A    
O16   P6    D    
Ba1   O20   S    
C17   C19   A    
C56   H21   S    
C22   C24   A    
C28   O29   S    
Ba1   Ba2   S    
C35   C38   A    
C33   N2    S    
C36   C37   A    
C64   H63   S    
C55   C57   A    
C1    H8    S    
C34   H11   S    
C66   H2    S    
C28   H59   S    
C60   P5    S    
C44   C50   A    
Ba1   P1    S    
C62   H46   S    
C54   C55   A    
C5    P8    S    
O1    P1    D    
C32   C33   S    
C67   C69   S    
C22   C27   A    
C11   C38   A    
Ba1   O4    S    
C17   C35   A    
C55   H50   S    
C64   H62   S    
O23   P3    S    
C9    C13   A    
C25   C42   A    
C21   H32   S    
C6    C7    D    
C21   C22   A    
O7    P7    S    
C41   H38   S    
C1    H3    S    
C56   H19   S    
Ba2   O28   S    
Ba1   O1    S    
C16   H51   S    
C37   C43   A    
C2    N1    Am   
C57   C58   A    
C6    C14   D    
C39   H37   S    
C68   H5    S    
C23   H9    S    
Ba2   O5    S    
C45   H17   S    
C15   C31   D    
C31   P1    S    
C43   H42   S    
C15   C30   S    
C69   H26   S    
C51   C58   A    
C48   C49   A    
C61   C65   A    
C51   C53   A    
C4    C16   S    
C30   P6    S    
C44   C46   A    
O21   P3    D    
C1    H15   S    
C40   H23   S    
C12   H1    S    
C66   H64   S    
C17   C20   A    
C26   N2    Am   
C13   C39   A    
C67   H22   S    
Ba2   O26   S    
C52   O17   S    
C3    C5    S    
C18   C37   A    
C6    P4    S    
Ba2   O31   S    
Ba1   O30   S    
C34   H14   S    
C70   O10   D    
C52   H56   S    
Ba1   P2    S    
C16   H16   S    
C49   C50   A    
O8    P8    D    
C29   H31   S    
C9    C36   A    
C41   C42   A    
C35   C36   A    
Ba1   O5    S    
C65   H55   S    
C46   P2    S    
C69   H25   S    
O9    P8    S    
O12   P2    S    
C4    O23   S    
Ba1   O27   S    
O31   P5    S    
C47   H49   S    
O6    P7    D    
O25   S1    S    
C31   C32   D    
C40   H12   S    
O26   P4    D    
O28   P8    S    
C12   H7    S    
C18   C19   A    
Ba1   O15   S    
C40   H34   S    
Ba2   O27   S    
O22   S1    D    
C1    C12   S    
C38   H35   S    
C60   C65   A    
C7    H29   S    
C70   N1    Am   
C8    N1    S    
C26   O14   D    
C68   H4    S    
O3    P5    S    
Ba2   O4    S    
C45   H18   S    
C29   C33   D    
C16   H58   S    
C14   H43   S    
Ba2   O30   S    
C18   C41   A    
C7    C8    S    
C57   H52   S    
O30   P7    S    
C2    O13   D    
O15   P6    S    
C46   C47   A    
C12   O18   S    
C49   H54   S    
C29   C30   S    
C5    C14   S    
H61   O25   S    
C23   O7    S    
C9    C10   A    
C52   C64   S    
C34   H13   S    
C20   H33   S    
C69   H28   S    
C45   O3    S    
C42   H40   S    
O29   P4    S    
C48   C58   S    
C4    H27   S    
C2    C13   A    
Ba1   O19   S    
O5    P2    S    
C3    C8    D    
Ba2   P4    S    
C62   C63   A    
C45   C56   S    
O17   P1    S    
O20   P3    S    
C23   H10   S    
C56   H20   S    
C28   H60   S    
C10   C70   A    
C59   C60   A    
O24   S1    D    
C66   O12   S    
C23   C34   S    
C27   O11   D    
C61   C62   A    
C59   C63   A    
C10   C11   A    
O2    P5    D    
C47   C48   A    
C67   O9    S    
C52   H45   S    
C25   C26   A    
C66   C68   S    
C39   C43   A    
C20   C21   A    
C28   C40   S    
C59   H53   S    
C11   H30   S    
O27   P4    S    
O19   P2    D    
O4    P1    S    
C54   C63   S    
C15   H44   S    
C3    H36   S    
