data_mof_unit_58370.cif
_audit_creation_date              2012-12-10T19:06:28-0500
_audit_creation_method            fapswitch 2.2
_symmetry_space_group_name_H-M    P1
_symmetry_Int_Tables_number       1
_space_group_crystal_system       triclinic
_cell_length_a                    23.520141
_cell_length_b                    10.867297
_cell_length_c                    9.531973
_cell_angle_alpha                 89.663739
_cell_angle_beta                  89.981616
_cell_angle_gamma                 90.49321
_cell_volume                      2436.24331639

loop_
_atom_site_label
_atom_site_type_symbol
_atom_type_description
_atom_site_fract_x
_atom_site_fract_y
_atom_site_fract_z
_atom_type_partial_charge
C1    C     C_R   0.499952 0.262558 0.500215 0.819104
C2    C     C_R   0.970183 0.276373 0.549627 -0.162020
C3    C     C_R   0.029508 0.277155 0.549650 -0.162020
C4    C     C_R   0.059916 0.387101 0.525523 -0.014743
C5    C     C_R   0.030111 0.497072 0.501208 -0.017946
C6    C     C_R   0.060178 0.607783 0.476518 -0.014776
C7    C     C_R   0.030031 0.716992 0.452819 -0.162085
C8    C     C_R   0.970710 0.716296 0.453482 -0.162334
C9    C     C_R   0.119562 0.390122 0.524732 0.532836
C10   C     C_R   0.119819 0.606231 0.476526 0.532979
C11   C     C_R   0.238820 0.486159 0.626583 -0.103710
C12   C     C_R   0.390911 0.500012 0.500050 0.786759
C13   C     C_R   0.298098 0.486814 0.626696 -0.219348
C14   C     C_R   0.328316 0.500051 0.500133 -0.036471
C15   C     C_R   0.298148 0.513165 0.373678 -0.225640
C16   C     C_R   0.238858 0.513040 0.373979 -0.102649
C17   C     C_R   0.209052 0.499300 0.500327 0.360943
C18   C     C_R   0.760735 0.466935 0.623919 -0.117508
C19   C     C_R   0.701459 0.467221 0.623273 -0.204047
C20   C     C_R   0.671657 0.495935 0.499819 -0.028854
C21   C     C_R   0.702216 0.521016 0.376110 -0.224667
C22   C     C_R   0.761479 0.520322 0.376746 -0.101637
C23   C     C_R   0.498087 0.737760 0.499195 0.818495
C24   C     C_R   0.790991 0.494013 0.500800 0.355744
C25   C     C_R   0.507691 0.062742 0.622935 0.127049
C26   C     C_R   0.501804 0.129754 0.498931 -0.131392
C27   C     C_R   0.497375 0.067185 0.371320 -0.276980
C28   C     C_R   0.493333 0.939152 0.368707 0.243985
C29   C     C_R   0.497561 0.871668 0.496426 -0.139421
C30   C     C_R   0.505923 0.935662 0.621829 0.066692
C31   C     C_3   0.470541 0.931405 0.752612 -0.456189
C32   C     C_3   0.473118 0.070594 0.753718 -0.446137
C33   C     C_R   0.547542 0.534802 0.073438 0.209227
C34   C     C_R   0.609081 0.498852 0.499929 0.810144
C35   C     C_R   0.455289 0.453229 0.074758 -0.078907
C36   C     C_R   0.455269 0.453298 0.925915 -0.089088
C37   C     C_R   0.547719 0.533903 0.925860 0.211750
C38   C     C_3   0.577585 0.655438 0.918840 0.025641
C39   C     C_3   0.577169 0.656593 0.078573 -0.550660
C40   C     C_R   0.880658 0.603395 0.478634 0.530699
C41   C     C_R   0.880380 0.386950 0.524799 0.532997
C42   C     C_R   0.940029 0.385561 0.525722 -0.014602
C43   C     C_R   0.970098 0.496324 0.501533 -0.018023
C44   C     C_R   0.940301 0.606332 0.477591 -0.013751
Cu1   Cu    Cu3+1 0.500000 0.499980 0.640670 0.948026
Cu2   Cu    Cu3+1 0.500000 0.500020 0.359330 0.950504
H1    H     H_    0.948075 0.189997 0.568426 0.190140
H2    H     H_    0.678992 0.443747 0.718893 0.158790
H3    H     H_    0.680446 0.541716 0.279070 0.146668
H4    H     H_    0.784547 0.540249 0.280819 0.142072
H5    H     H_    0.493176 0.117550 0.273443 0.169034
H6    H     H_    0.427037 0.893935 0.734199 0.203878
H7    H     H_    0.493116 0.890160 0.843249 0.185338
H8    H     H_    0.431091 0.114296 0.736352 0.199070
H9    H     H_    0.498089 0.108336 0.842906 0.195355
H10   H     H_    0.418754 0.416817 0.130448 0.139418
H11   H     H_    0.051417 0.191373 0.568481 0.190082
H12   H     H_    0.418724 0.416918 0.870788 0.139649
H13   H     H_    0.551549 0.727649 0.868110 0.165022
H14   H     H_    0.619892 0.650725 0.127384 0.193343
H15   H     H_    0.549998 0.729620 0.122017 0.222206
H16   H     H_    0.052141 0.803323 0.433762 0.190255
H17   H     H_    0.948806 0.802122 0.434886 0.190163
H18   H     H_    0.215936 0.475723 0.724587 0.138382
H19   H     H_    0.320183 0.476416 0.725673 0.148595
H20   H     H_    0.320289 0.523852 0.274651 0.151590
H21   H     H_    0.216001 0.523124 0.276046 0.138759
H22   H     H_    0.783208 0.445814 0.720102 0.143806
N1    N     N_R   0.852014 0.494786 0.501605 -0.469035
N2    N     N_R   0.148118 0.498527 0.500448 -0.471227
N3    N     N_R   0.500360 0.500930 0.147930 -0.172214
N4    N     N_R   0.500360 0.500890 0.852020 -0.199124
O1    O     O_R   0.500000 0.319640 0.618810 -0.579997
O2    O     O_2   0.850932 0.281288 0.545606 -0.534476
O3    O     O_2   0.148846 0.285587 0.547117 -0.532745
O4    O     O_2   0.149350 0.711486 0.453788 -0.532741
O5    O     O_R   0.500010 0.319680 0.381230 -0.585242
O6    O     O_R   0.417880 0.499940 0.618820 -0.591845
O7    O     O_R   0.417880 0.499980 0.381240 -0.592734
O8    O     O_R   0.499990 0.680320 0.618770 -0.584471
O9    O     O_R   0.500000 0.680360 0.381190 -0.542078
O10   O     O_R   0.582120 0.500020 0.618760 -0.562132
O11   O     O_R   0.582120 0.500060 0.381180 -0.584658
O12   O     O_2   0.851474 0.708326 0.457931 -0.536602
N5    N     N_2   0.481745 0.880961 0.238271 -0.423849
H23   H     H_    0.499910 0.925298 0.153093 0.232905
C45   C     C_3   0.422243 0.853181 0.214671 -0.632504
H24   H     H_    0.397634 0.939722 0.205552 0.215811
H25   H     H_    0.404601 0.796247 0.301835 0.234065
H26   H     H_    0.417590 0.800605 0.115710 0.218390
N6    N     N_2   0.634246 0.644742 0.860113 -0.400149
H27   H     H_    0.659922 0.580973 0.909022 0.245892
C46   C     C_3   0.662722 0.760392 0.830856 -0.642076
H28   H     H_    0.703949 0.742671 0.778206 0.237804
H29   H     H_    0.670854 0.810756 0.930056 0.225075
H30   H     H_    0.636423 0.817814 0.759605 0.230370

loop_
_geom_bond_atom_site_label_1
_geom_bond_atom_site_label_2
_ccdc_geom_bond_type
C45   H24   S    
C46   H28   S    
C1    O5    A    
C41   C42   A    
C40   O12   S    
C19   C20   A    
C31   H6    S    
C21   H3    S    
C7    C8    A    
C13   H19   S    
N5    H23   S    
C26   C27   A    
C33   C39   S    
C18   C24   A    
C23   C29   S    
C28   C29   A    
C37   C38   S    
C36   H12   S    
C30   C31   S    
C18   H22   S    
C15   C16   A    
C12   O7    A    
Cu1   O1    S    
C18   C19   A    
C41   O2    S    
C10   O4    S    
Cu2   O7    S    
Cu1   O10   S    
C16   C17   A    
C12   O6    A    
Cu1   O6    S    
C23   O8    A    
C32   H9    S    
C22   H4    S    
C20   C34   S    
C25   C32   S    
C5    C43   A    
C35   N3    A    
C17   N2    S    
C46   H29   S    
C21   C22   A    
Cu1   N4    S    
C32   H8    S    
C27   H5    S    
C24   N1    S    
N5    C45   S    
C38   C39   S    
C39   H15   S    
C40   N1    A    
C9    N2    A    
C11   H18   S    
N6    H27   S    
C19   H2    S    
C25   C26   A    
Cu1   Cu2   S    
C15   H20   S    
C38   N6    S    
C33   C37   A    
Cu2   O11   S    
C35   C36   A    
C43   C44   A    
C7    H16   S    
C29   C30   A    
N6    C46   S    
Cu2   O9    S    
C31   C32   S    
C16   H21   S    
C31   H7    S    
Cu2   N3    S    
C10   N2    A    
C12   C14   S    
C46   H30   S    
C45   H25   S    
C1    C26   S    
C22   C24   A    
C45   H26   S    
C34   O11   A    
C3    C4    A    
C3    H11   S    
C28   N5    S    
C41   N1    A    
C25   C30   A    
C11   C17   A    
C23   O9    A    
C35   H10   S    
C8    C44   A    
C4    C5    A    
C6    C10   A    
Cu2   O5    S    
C6    C7    A    
C2    H1    S    
C9    O3    S    
C1    O1    A    
C2    C3    A    
C11   C13   A    
C5    C6    A    
C2    C42   A    
C39   H14   S    
Cu1   O8    S    
C33   N3    A    
C8    H17   S    
C38   H13   S    
C40   C44   A    
C20   C21   A    
C42   C43   A    
C37   N4    A    
C27   C28   A    
C14   C15   A    
C34   O10   A    
C4    C9    A    
C13   C14   A    
C36   N4    A    
