data_mof_unit_10174.cif
_audit_creation_date              2012-12-10T18:11:51-0500
_audit_creation_method            fapswitch 2.2
_symmetry_space_group_name_H-M    P1
_symmetry_Int_Tables_number       1
_space_group_crystal_system       triclinic
_cell_length_a                    15.803121
_cell_length_b                    11.01449
_cell_length_c                    9.652202
_cell_angle_alpha                 85.583977
_cell_angle_beta                  89.293533
_cell_angle_gamma                 95.977199
_cell_volume                      1665.64889311

loop_
_atom_site_label
_atom_site_type_symbol
_atom_type_description
_atom_site_fract_x
_atom_site_fract_y
_atom_site_fract_z
_atom_type_partial_charge
C1    C     C_R   0.487911 0.260219 0.504167 0.875459
C2    C     C_3   0.082267 0.482046 0.503777 0.017369
C3    C     C_3   0.976937 0.570464 0.584773 -0.201168
C4    C     C_3   0.915788 0.487217 0.500790 0.031966
C5    C     C_3   0.037296 0.595130 0.454921 -0.101929
C6    C     C_3   0.974680 0.512149 0.370806 -0.219095
C7    C     C_1   0.174086 0.482320 0.504353 0.027773
C8    C     C_1   0.824323 0.490891 0.499068 0.071713
C9    C     C_3   0.554616 0.071624 0.576194 -0.373639
C10   C     C_3   0.562556 0.940282 0.540332 -0.475628
C11   C     C_3   0.390490 0.046834 0.571606 0.158063
C12   C     C_R   0.340181 0.493550 0.501383 0.913648
C13   C     C_3   0.478730 0.085818 0.354005 -0.490946
C14   C     C_3   0.476350 0.120737 0.507513 -0.100006
C15   C     C_3   0.477826 0.876901 0.488035 -0.135391
C16   C     C_3   0.404369 0.905192 0.591997 0.083693
C17   C     C_3   0.454224 0.948340 0.345529 0.241026
C18   C     C_3   0.550066 0.617257 0.073352 0.206453
C19   C     C_3   0.540488 0.625881 0.904187 0.170743
C20   C     C_3   0.543937 0.399093 0.094076 -0.248570
C21   C     C_3   0.412988 0.485001 0.082477 0.267680
C22   C     C_3   0.559328 0.415575 0.932918 0.335866
C23   C     C_R   0.490170 0.738408 0.495025 0.967751
C24   C     C_3   0.414824 0.485541 0.918318 -0.328463
C25   C     C_R   0.659325 0.496652 0.499558 0.914169
C26   C     C_3   0.960890 0.375203 0.549229 0.411163
C27   C     C_3   0.020571 0.400018 0.421007 -0.125068
C28   C     C_1   0.249952 0.485757 0.503708 0.029891
C29   C     C_1   0.748880 0.493721 0.498542 -0.044172
C30   C     C_3   0.022798 0.457522 0.631855 -0.111172
Cu1   Cu    Cu3+1 0.500040 0.499860 0.642410 1.107696
Cu2   Cu    Cu3+1 0.499960 0.500140 0.357590 1.084469
H1    H     H_    0.580908 0.892197 0.637165 0.272676
H2    H     H_    0.425454 0.884732 0.699969 0.172820
H3    H     H_    0.432985 0.134297 0.290182 0.251091
H4    H     H_    0.543422 0.113646 0.307297 0.230096
H5    H     H_    0.384020 0.937003 0.337286 0.178735
H6    H     H_    0.342007 0.057739 0.490256 0.150958
H7    H     H_    0.517220 0.690034 0.106466 0.201735
H8    H     H_    0.495008 0.695115 0.880093 0.125123
H9    H     H_    0.604116 0.389447 0.148840 0.217447
H10   H     H_    0.626007 0.456681 0.919255 0.173906
H11   H     H_    0.379665 0.564088 0.110254 0.144409
H12   H     H_    0.377164 0.559023 0.875274 0.186483
H13   H     H_    0.382234 0.401551 0.880207 0.292433
H14   H     H_    0.505814 0.310509 0.123552 0.250305
H15   H     H_    0.953762 0.534401 0.263279 0.190605
H16   H     H_    0.070067 0.685679 0.416239 0.182864
H17   H     H_    0.957876 0.640473 0.652408 0.188079
H18   H     H_    0.548422 0.072200 0.690354 0.279106
H19   H     H_    0.614183 0.129394 0.541202 0.211895
H20   H     H_    0.614176 0.938737 0.461208 0.234331
N1    N     N_3   0.501840 0.500250 0.143650 -0.310708
N2    N     N_3   0.501160 0.503300 0.856280 -0.285849
O1    O     O_R   0.500050 0.317570 0.620260 -0.480767
O2    O     O_R   0.499980 0.317810 0.379740 -0.603046
O3    O     O_R   0.379110 0.499870 0.620240 -0.579101
O4    O     O_R   0.379040 0.500110 0.379720 -0.543585
O5    O     O_R   0.500020 0.682190 0.620260 -0.557690
O6    O     O_R   0.499950 0.682430 0.379740 -0.513701
O7    O     O_R   0.620960 0.499890 0.620280 -0.489805
O8    O     O_R   0.620890 0.500130 0.379760 -0.530144
C31   C     C_1   0.045445 0.307318 0.331543 0.412670
N3    N     N_1   0.065113 0.234232 0.261062 -0.161480
S1    S     S_3+6 0.335052 0.099257 0.717167 0.089495
O9    O     O_2   0.353160 0.234479 0.725759 -0.254413
O10   O     O_2   0.240624 0.075281 0.699464 -0.209745
O11   O     O_3   0.360001 0.023648 0.866286 -0.423181
H21   H     H_    0.321172 0.946722 0.874015 0.377456
S2    S     S_3+6 0.481059 0.913546 0.176347 0.022544
O12   O     O_2   0.418381 0.809904 0.138547 -0.327864
O13   O     O_2   0.469815 0.021440 0.076436 -0.177300
O14   O     O_3   0.582829 0.887017 0.165570 -0.447965
H22   H     H_    0.616023 0.966212 0.179928 0.376503
S3    S     S_3+6 0.306164 0.806858 0.571631 -0.044221
O15   O     O_2   0.297999 0.707511 0.688035 -0.301324
O16   O     O_2   0.229271 0.875804 0.576433 -0.242318
O17   O     O_3   0.307166 0.743456 0.418469 -0.594282
H23   H     H_    0.249341 0.747207 0.381095 0.372845
S4    S     S_3+6 0.659361 0.659606 0.143708 0.113553
O18   O     O_2   0.652235 0.704573 0.285679 -0.265958
O19   O     O_2   0.711118 0.552365 0.149720 -0.311868
O20   O     O_3   0.721229 0.777583 0.062581 -0.376048
H24   H     H_    0.776875 0.778641 0.108992 0.371518
S5    S     S_3+6 0.908890 0.229552 0.612193 0.016242
O21   O     O_2   0.860151 0.242812 0.743869 -0.268993
O22   O     O_2   0.848729 0.182218 0.504610 -0.293877
O23   O     O_3   0.982364 0.131642 0.644266 -0.491351
H25   H     H_    0.949410 0.053006 0.677027 0.391908
S6    S     S_3+6 0.640216 0.699798 0.812932 0.068266
O24   O     O_2   0.647943 0.829861 0.852231 -0.223952
O25   O     O_2   0.716284 0.638051 0.861255 -0.243423
O26   O     O_3   0.652300 0.716510 0.639350 -0.550283
H26   H     H_    0.709382 0.761796 0.621096 0.363449
S7    S     S_3+6 0.340987 0.347238 0.141239 0.012243
O27   O     O_2   0.344547 0.301841 0.290911 -0.322126
O28   O     O_2   0.251897 0.377525 0.113244 -0.272492
O29   O     O_3   0.359040 0.229407 0.048053 -0.462654
H27   H     H_    0.311212 0.165679 0.072915 0.409871
S8    S     S_3+6 0.575653 0.267708 0.879642 0.056618
O30   O     O_2   0.619618 0.200123 0.994611 -0.302268
O31   O     O_2   0.492398 0.196044 0.858006 -0.147638
O32   O     O_3   0.640225 0.278911 0.738336 -0.553283
H28   H     H_    0.680314 0.216379 0.756348 0.396385
C32   C     C_1   0.050105 0.427907 0.774177 0.397706
N4    N     N_1   0.071676 0.404520 0.886329 -0.181011

loop_
_geom_bond_atom_site_label_1
_geom_bond_atom_site_label_2
_ccdc_geom_bond_type
O26   H26   S    
C11   H6    S    
C16   S3    S    
O14   H22   S    
Cu1   O7    S    
S7    O27   D    
C9    H19   S    
Cu2   O4    S    
S3    O15   D    
C10   H20   S    
C20   H9    S    
C3    H17   S    
S7    O29   S    
C22   N2    S    
S5    O21   D    
C23   O5    A    
C26   C27   S    
C12   C28   S    
C24   H13   S    
C1    O2    A    
C13   H3    S    
C10   C15   S    
C5    C6    S    
C11   C14   S    
C24   N2    S    
C15   C16   S    
O29   H27   S    
C18   C19   S    
Cu1   O5    S    
C18   N1    S    
C16   H2    S    
C21   H11   S    
O20   H24   S    
O11   H21   S    
S1    O10   D    
S2    O12   D    
C9    C10   S    
C4    C8    S    
C12   O4    A    
C15   C23   S    
C17   S2    S    
C13   C14   S    
S4    O20   S    
S5    O22   D    
C25   C29   S    
C23   O6    A    
C5    H16   S    
C22   S8    S    
C6    H15   S    
C13   H4    S    
C4    C6    S    
C9    C14   S    
O17   H23   S    
S4    O18   D    
C17   H5    S    
C21   S7    S    
S8    O32   S    
C7    C28   T    
C3    C30   S    
C18   H7    S    
C11   C16   S    
S6    O25   D    
C6    C27   S    
S1    O11   S    
S2    O14   S    
S8    O31   D    
C25   O7    A    
S3    O16   D    
C2    C27   S    
C27   C31   S    
C12   O3    A    
C19   N2    S    
S4    O19   D    
C20   C22   S    
C26   C30   S    
C30   C32   S    
C2    C7    S    
C24   H12   S    
C2    C5    S    
Cu2   O6    S    
C3    C4    S    
Cu2   N1    S    
S6    O26   S    
S5    O23   S    
C15   C17   S    
Cu1   Cu2   S    
C9    H18   S    
C20   N1    S    
C3    C5    S    
C4    C26   S    
S7    O28   D    
C8    C29   T    
C32   N4    T    
C13   C17   S    
C2    C30   S    
Cu1   O3    S    
C1    O1    A    
Cu2   O8    S    
C19   S6    S    
C21   N1    S    
S6    O24   D    
C22   H10   S    
C26   S5    S    
S8    O30   D    
C10   H1    S    
C25   O8    A    
Cu1   N2    S    
S3    O17   S    
C19   H8    S    
C31   N3    T    
O23   H25   S    
C18   S4    S    
S1    O9    D    
C21   C24   S    
O32   H28   S    
S2    O13   D    
C1    C14   S    
Cu1   O1    S    
Cu2   O2    S    
C20   H14   S    
C11   S1    S    
