data_mof_unit_45052.cif
_audit_creation_date              2012-12-10T19:47:25-0500
_audit_creation_method            fapswitch 2.2
_symmetry_space_group_name_H-M    P1
_symmetry_Int_Tables_number       1
_space_group_crystal_system       triclinic
_cell_length_a                    10.828446
_cell_length_b                    10.87604
_cell_length_c                    12.746474
_cell_angle_alpha                 92.193386
_cell_angle_beta                  92.176555
_cell_angle_gamma                 89.905099
_cell_volume                      1498.97794021

loop_
_atom_site_label
_atom_site_type_symbol
_atom_type_description
_atom_site_fract_x
_atom_site_fract_y
_atom_site_fract_z
_atom_type_partial_charge
C1    C     C_R   0.262078 0.503198 0.501085 0.781154
C2    C     C_R   0.737923 0.496798 0.498916 0.781135
C3    C     C_R   0.496304 0.871721 0.497070 -0.089122
C4    C     C_R   0.503719 0.128278 0.502929 -0.089105
C5    C     C_R   0.458753 0.935604 0.406844 0.014760
C6    C     C_R   0.541284 0.064395 0.593153 0.014792
C7    C     C_R   0.148166 0.712208 0.849720 -0.127628
C8    C     C_R   0.851880 0.287689 0.150316 -0.126875
C9    C     C_R   0.097943 0.632563 0.770893 -0.086230
C10   C     C_R   0.902085 0.367360 0.229130 -0.085683
C11   C     C_R   0.124907 0.648268 0.665237 0.111938
C12   C     C_R   0.875108 0.351689 0.334788 0.111801
C13   C     C_R   0.202603 0.745307 0.639932 -0.106947
C14   C     C_R   0.797425 0.254647 0.360110 -0.107016
C15   C     C_R   0.253954 0.823824 0.719250 -0.103509
C16   C     C_R   0.746090 0.176103 0.280804 -0.103634
C17   C     C_R   0.226771 0.807413 0.824088 -0.092328
C18   C     C_R   0.773276 0.192490 0.175962 -0.092262
C19   C     C_R   0.935721 0.562482 0.578097 -0.229807
C20   C     C_R   0.064283 0.437504 0.421914 -0.229787
C21   C     C_R   0.871588 0.495155 0.497738 -0.075094
C22   C     C_R   0.128414 0.504835 0.502268 -0.075070
C23   C     C_R   0.502273 0.261957 0.501271 0.781558
C24   C     C_R   0.497734 0.738043 0.498728 0.781562
C25   C     C_R   0.936111 0.430982 0.418660 0.000388
C26   C     C_R   0.063893 0.568998 0.581353 0.000358
C27   C     C_2   0.453285 0.483960 0.032337 -0.181639
C28   C     C_2   0.546809 0.515930 0.967652 -0.181809
C29   C     C_1   0.529572 0.518761 0.852179 0.334483
C30   C     C_1   0.470455 0.481206 0.147817 0.334742
C31   C     C_R   0.741179 0.248925 0.791955 -0.163838
C32   C     C_R   0.258910 0.751183 0.207949 -0.163511
C33   C     C_R   0.699127 0.191007 0.697553 -0.103550
C34   C     C_R   0.300920 0.809078 0.302370 -0.103897
C35   C     C_R   0.587068 0.125733 0.692763 0.053174
C36   C     C_R   0.413017 0.874268 0.307224 0.053294
C37   C     C_R   0.519494 0.116525 0.784077 -0.135924
C38   C     C_R   0.480681 0.883399 0.215963 -0.136080
C39   C     C_R   0.562319 0.173727 0.878548 0.455914
C40   C     C_R   0.437903 0.826219 0.121474 0.455302
C41   C     C_R   0.672766 0.240283 0.882166 -0.201673
C42   C     C_R   0.327410 0.759757 0.117787 -0.201274
C43   C     C_R   0.536624 0.936947 0.588932 -0.245219
C44   C     C_R   0.463403 0.063052 0.411067 -0.245215
Cu1   Cu    Cu3+1 0.492140 0.492110 0.395880 1.020888
Cu2   Cu    Cu3+1 0.507860 0.507890 0.604120 1.020893
H1    H     H_    0.704836 0.286094 0.954617 0.148143
H2    H     H_    0.295369 0.713969 0.045321 0.148386
H3    H     H_    0.222115 0.761046 0.558906 0.087450
H4    H     H_    0.777914 0.238924 0.441139 0.087448
H5    H     H_    0.313260 0.898466 0.699158 0.133914
H6    H     H_    0.686791 0.101461 0.300910 0.133928
H7    H     H_    0.885176 0.613944 0.637158 0.168618
H8    H     H_    0.114830 0.386039 0.362855 0.168501
H9    H     H_    0.826652 0.300670 0.795182 0.163353
H10   H     H_    0.173402 0.699514 0.204668 0.163576
H11   H     H_    0.753008 0.197826 0.628199 0.112966
H12   H     H_    0.246974 0.802314 0.371686 0.113051
H13   H     H_    0.433415 0.065863 0.781628 0.151826
H14   H     H_    0.566792 0.933991 0.218466 0.151801
H15   H     H_    0.567065 0.888468 0.658105 0.185955
H16   H     H_    0.432967 0.111528 0.341891 0.185934
H17   H     H_    0.265456 0.869280 0.885214 0.179873
H18   H     H_    0.734597 0.130608 0.114844 0.179962
H19   H     H_    0.124674 0.700561 0.930437 0.130257
H20   H     H_    0.875382 0.299319 0.069600 0.130067
H21   H     H_    0.036993 0.559383 0.792088 0.140416
H22   H     H_    0.963029 0.440539 0.207922 0.140508
N1    N     N_1   0.480320 0.480250 0.239400 -0.134819
N2    N     N_1   0.519680 0.519750 0.760600 -0.134793
O1    O     O_R   0.313000 0.493330 0.412070 -0.582585
O2    O     O_R   0.687000 0.506670 0.587930 -0.582582
O3    O     O_R   0.326280 0.506660 0.587930 -0.553471
O4    O     O_R   0.673720 0.493340 0.412070 -0.553369
O5    O     O_R   0.493370 0.312980 0.412070 -0.579984
O6    O     O_R   0.506630 0.687020 0.587930 -0.579959
O7    O     O_R   0.506650 0.326310 0.587930 -0.567653
O8    O     O_R   0.493350 0.673690 0.412070 -0.567711
C45   C     C_2   0.674216 0.548549 0.008912 0.880119
O9    O     O_2   0.697220 0.565888 0.102963 -0.588279
O10   O     O_R   0.768892 0.560671 0.938246 -0.777949
H23   H     H_    0.851336 0.582420 0.974587 0.323712
C46   C     C_2   0.325903 0.451353 0.991042 0.880079
O11   O     O_2   0.303232 0.432753 0.897080 -0.587680
O12   O     O_R   0.230889 0.440632 0.061578 -0.778792
H24   H     H_    0.148491 0.418757 0.025214 0.323639
Cl1   Cl    Cl    0.477407 0.162254 0.992300 -0.634104
Cl2   Cl    Cl    0.522928 0.837611 0.007787 -0.634163

loop_
_geom_bond_atom_site_label_1
_geom_bond_atom_site_label_2
_ccdc_geom_bond_type
C8    H20   S    
Cu1   O1    S    
C39   Cl1   S    
Cu2   O6    S    
O10   H23   S    
C39   C41   A    
O12   H24   S    
C3    C43   A    
C1    O1    A    
C28   C29   S    
C19   C21   A    
C20   C25   A    
C5    C36   S    
C6    C35   S    
C7    C9    A    
C28   C45   S    
C19   C26   A    
C7    C17   A    
C31   C33   A    
Cu1   O8    S    
C15   H5    S    
Cu2   O2    S    
C2    O4    A    
C19   H7    S    
C40   C42   A    
C1    C22   S    
C27   C30   S    
C3    C24   S    
C2    O2    A    
Cu1   N1    S    
C4    C6    A    
C23   O5    A    
C45   O10   S    
C4    C23   S    
C24   O6    A    
C4    C44   A    
C11   C26   S    
C44   H16   S    
Cu1   Cu2   S    
C8    C18   A    
Cu1   O4    S    
C32   C34   A    
C9    H21   S    
C7    H19   S    
C46   O11   D    
C2    C21   S    
C41   H1    S    
C16   C18   A    
C42   H2    S    
C23   O7    A    
C9    C11   A    
C37   H13   S    
C10   C12   A    
C13   H3    S    
C20   H8    S    
C46   O12   S    
C5    C44   A    
C20   C22   A    
C6    C43   A    
C13   C15   A    
C38   H14   S    
C30   N1    T    
C43   H15   S    
C29   N2    T    
C24   O8    A    
C15   C17   A    
C21   C25   A    
C33   H11   S    
C31   C41   A    
C35   C37   A    
C16   H6    S    
C12   C14   A    
C3    C5    A    
Cu2   O7    S    
C10   H22   S    
C12   C25   S    
Cu1   O5    S    
C1    O3    A    
C40   Cl2   S    
C36   C38   A    
C37   C39   A    
C17   H17   S    
C38   C40   A    
C11   C13   A    
C18   H18   S    
C14   H4    S    
C27   C46   S    
C33   C35   A    
C34   C36   A    
C14   C16   A    
Cu2   N2    S    
C45   O9    D    
C8    C10   A    
C22   C26   A    
C27   C28   D    
C34   H12   S    
C32   C42   A    
C31   H9    S    
C32   H10   S    
Cu2   O3    S    
