data_mof_unit_8396.cif
_audit_creation_date              2012-10-26T17:12:51-0400
_audit_creation_method            fapswitch 2.2
_symmetry_space_group_name_H-M    P1
_symmetry_Int_Tables_number       1
_space_group_crystal_system       triclinic
_cell_length_a                    27.878166
_cell_length_b                    18.780485
_cell_length_c                    16.826927
_cell_angle_alpha                 90.052366
_cell_angle_beta                  62.556105
_cell_angle_gamma                 90.04091
_cell_volume                      7818.53976209

loop_
_atom_site_label
_atom_site_type_symbol
_atom_type_description
_atom_site_fract_x
_atom_site_fract_y
_atom_site_fract_z
_atom_type_partial_charge
C1    C     C_R   0.292265 0.722962 0.330819 0.795716
C2    C     C_R   0.707943 0.278037 0.668335 0.784150
C3    C     C_R   0.707870 0.722694 0.669007 0.794499
C4    C     C_R   0.292071 0.277782 0.331502 0.799847
C5    C     C_R   0.792076 0.222586 0.331081 0.840310
C6    C     C_R   0.208252 0.778524 0.667913 0.830732
C7    C     C_R   0.203899 0.230948 0.671810 0.818500
C8    C     C_R   0.791856 0.778363 0.331881 0.830555
C9    C     C_R   0.393987 0.000136 0.517681 0.068917
C10   C     C_R   0.592081 0.003928 0.533130 0.071522
C11   C     C_R   0.894667 0.500036 0.514105 0.070847
C12   C     C_R   0.102842 0.499874 0.492963 0.069221
C13   C     C_R   0.606528 0.882870 0.478742 -0.233878
C14   C     C_R   0.380335 0.124066 0.558475 -0.218533
C15   C     C_R   0.396067 0.872268 0.522160 -0.244395
C16   C     C_R   0.576550 0.127175 0.581665 -0.219677
C17   C     C_R   0.104304 0.372250 0.478773 -0.233075
C18   C     C_R   0.892676 0.627629 0.528961 -0.216204
C19   C     C_R   0.891603 0.372671 0.531976 -0.233048
C20   C     C_R   0.105823 0.627188 0.474662 -0.214516
C21   C     C_R   0.221849 0.772000 0.948674 -0.105880
C22   C     C_R   0.777425 0.230255 0.045943 -0.102117
C23   C     C_R   0.779498 0.770865 0.049537 -0.106147
C24   C     C_R   0.209202 0.255341 0.964597 -0.106320
C25   C     C_R   0.720239 0.271041 0.951003 -0.106115
C26   C     C_R   0.278836 0.731423 0.043990 -0.102911
C27   C     C_R   0.270597 0.287212 0.055168 -0.107396
C28   C     C_R   0.722358 0.730166 0.954448 -0.102646
C29   C     C_R   0.278832 0.762153 0.902010 0.091927
C30   C     C_R   0.721386 0.248141 0.093003 0.090301
C31   C     C_R   0.722475 0.762511 0.095693 0.093732
C32   C     C_R   0.260784 0.287630 0.918778 0.100715
C33   C     C_R   0.777233 0.262148 0.904626 0.093096
C34   C     C_R   0.223012 0.749869 0.090564 0.093480
C35   C     C_R   0.214551 0.271562 0.104797 0.093621
C36   C     C_R   0.778480 0.747450 0.907626 0.092667
C37   C     C_R   0.306318 0.733556 0.948983 0.034494
C38   C     C_R   0.691522 0.260404 0.044351 0.036135
C39   C     C_R   0.694746 0.733845 0.049287 0.035624
C40   C     C_R   0.294708 0.291894 0.961107 0.042376
C41   C     C_R   0.804904 0.233445 0.951047 0.035725
C42   C     C_R   0.193193 0.761518 0.041951 0.036592
C43   C     C_R   0.185856 0.245389 0.058379 0.037163
C44   C     C_R   0.808289 0.759513 0.956401 0.036575
C45   C     C_R   0.137950 0.811633 0.947481 0.047938
C46   C     C_R   0.860350 0.185293 0.048655 0.048189
C47   C     C_R   0.863106 0.810350 0.051597 0.048320
C48   C     C_R   0.132381 0.194693 0.958014 0.047047
C49   C     C_R   0.636648 0.310431 0.948837 0.048892
C50   C     C_R   0.361182 0.685940 0.047872 0.047769
C51   C     C_R   0.357271 0.320011 0.051765 0.050151
C52   C     C_R   0.639476 0.685519 0.951421 0.047688
C53   C     C_R   0.113894 0.844174 0.898078 -0.081152
C54   C     C_R   0.884778 0.155244 0.099895 -0.083470
C55   C     C_R   0.886797 0.843328 0.101337 -0.080804
C56   C     C_R   0.111618 0.160364 0.903530 -0.087529
C57   C     C_R   0.612981 0.343150 0.898920 -0.079976
C58   C     C_R   0.385161 0.655602 0.099584 -0.082682
C59   C     C_R   0.384499 0.345552 0.100549 -0.082288
C60   C     C_R   0.615180 0.655263 0.900088 -0.082798
C61   C     C_R   0.136962 0.831027 0.806318 -0.288260
C62   C     C_R   0.861737 0.169636 0.191324 -0.291663
C63   C     C_R   0.863569 0.830237 0.193181 -0.287732
C64   C     C_R   0.135051 0.176177 0.811953 -0.292890
C65   C     C_R   0.636171 0.329832 0.807110 -0.299764
C66   C     C_R   0.361884 0.669867 0.191099 -0.301394
C67   C     C_R   0.363119 0.328584 0.191179 -0.298588
C68   C     C_R   0.638308 0.669487 0.808606 -0.300582
C69   C     C_R   0.188361 0.801052 0.761430 -0.114021
C70   C     C_R   0.811231 0.201829 0.236062 -0.113472
C71   C     C_R   0.812109 0.800305 0.237921 -0.115504
C72   C     C_R   0.179158 0.222287 0.771145 -0.108914
C73   C     C_R   0.687582 0.299862 0.762442 -0.107895
C74   C     C_R   0.311592 0.702667 0.235500 -0.109364
C75   C     C_R   0.311179 0.300415 0.237750 -0.111306
C76   C     C_R   0.688757 0.701888 0.763989 -0.109470
C77   C     C_R   0.219650 0.794216 0.807453 0.055177
C78   C     C_R   0.780377 0.213550 0.188948 0.056680
C79   C     C_R   0.781116 0.793369 0.191305 0.057048
C80   C     C_R   0.202106 0.252582 0.824202 0.062611
C81   C     C_R   0.718511 0.292959 0.809164 0.058091
C82   C     C_R   0.281160 0.715254 0.187759 0.062534
C83   C     C_R   0.278014 0.296728 0.194241 0.057986
C84   C     C_R   0.719565 0.713636 0.811233 0.062144
C85   C     C_R   0.202416 0.631352 0.508138 0.835950
C86   C     C_R   0.797201 0.368568 0.492815 0.834741
C87   C     C_R   0.797278 0.631423 0.492574 0.836235
C88   C     C_R   0.202276 0.368629 0.508570 0.824566
C89   C     C_R   0.695704 0.132633 0.531913 0.826958
C90   C     C_R   0.301514 0.868661 0.480187 0.826827
C91   C     C_R   0.300370 0.131125 0.483595 0.840703
C92   C     C_R   0.698446 0.869351 0.521397 0.817648
C93   C     C_R   0.193160 0.792635 0.901389 0.015267
C94   C     C_R   0.806071 0.209572 0.094349 0.019718
C95   C     C_R   0.807960 0.791350 0.097292 0.015110
C96   C     C_R   0.181426 0.233317 0.915456 0.020108
C97   C     C_R   0.691736 0.291254 0.903202 0.012865
C98   C     C_R   0.307106 0.710813 0.093057 0.017607
C99   C     C_R   0.302096 0.300904 0.100178 0.014909
C100  C     C_R   0.693783 0.709631 0.905857 0.017646
C101  C     C_R   0.108227 0.790115 0.037244 0.093062
C102  C     C_R   0.887604 0.191347 0.954294 0.096737
C103  C     C_R   0.893022 0.788748 0.961848 0.092360
C104  C     C_R   0.106256 0.193256 0.053028 0.096554
C105  C     C_R   0.606777 0.289563 0.038882 0.091881
C106  C     C_R   0.388594 0.691295 0.953417 0.096840
C107  C     C_R   0.383188 0.309441 0.958007 0.104562
C108  C     C_R   0.612037 0.691950 0.045753 0.096764
C109  C     C_R   0.135605 0.759014 0.081651 0.154022
C110  C     C_R   0.858597 0.206692 0.906264 0.139195
C111  C     C_R   0.865873 0.756974 0.917280 0.154744
C112  C     C_R   0.135216 0.209869 0.101123 0.136161
C113  C     C_R   0.633911 0.258461 0.083824 0.152679
C114  C     C_R   0.359725 0.705871 0.904952 0.141440
C115  C     C_R   0.352005 0.295194 0.912805 0.130878
C116  C     C_R   0.640868 0.707682 0.094021 0.138643
C117  C     C_R   0.276217 0.794800 0.763520 -0.245525
C118  C     C_R   0.725206 0.231325 0.233012 -0.251459
C119  C     C_R   0.724564 0.795475 0.234356 -0.244993
C120  C     C_R   0.243270 0.304739 0.791644 -0.261828
C121  C     C_R   0.775007 0.294907 0.766046 -0.247454
C122  C     C_R   0.226183 0.734240 0.231102 -0.258073
C123  C     C_R   0.221357 0.295666 0.241680 -0.251078
C124  C     C_R   0.774761 0.731367 0.767384 -0.258120
C125  C     C_R   0.305637 0.785444 0.811364 0.195681
C126  C     C_R   0.697906 0.255450 0.187026 0.186845
C127  C     C_R   0.695700 0.787778 0.185249 0.197344
C128  C     C_R   0.273625 0.320572 0.836215 0.174201
C129  C     C_R   0.804029 0.286806 0.814756 0.196189
C130  C     C_R   0.199493 0.758444 0.184211 0.184051
C131  C     C_R   0.189660 0.287849 0.197431 0.194871
C132  C     C_R   0.802107 0.754739 0.813719 0.184142
C133  C     C_R   0.929152 0.899154 0.064202 0.855112
C134  C     C_R   0.071186 0.100884 0.936075 0.847544
C135  C     C_R   0.071089 0.899404 0.935566 0.855374
C136  C     C_R   0.928303 0.100199 0.064455 0.852564
C137  C     C_R   0.428364 0.399819 0.064447 0.848831
C138  C     C_R   0.571689 0.600195 0.935561 0.852114
C139  C     C_R   0.570774 0.399111 0.935840 0.854026
C140  C     C_R   0.428411 0.600270 0.064380 0.851390
C141  C     C_R   0.052364 0.629314 0.490068 -0.014717
C142  C     C_R   0.944433 0.370603 0.519523 -0.016801
C143  C     C_R   0.945949 0.629514 0.514429 -0.014492
C144  C     C_R   0.050836 0.370433 0.494744 -0.018627
C145  C     C_R   0.526999 0.128149 0.578061 -0.009762
C146  C     C_R   0.448204 0.872458 0.512944 -0.022031
C147  C     C_R   0.428306 0.126458 0.567197 -0.012486
C148  C     C_R   0.553604 0.877723 0.492255 -0.012843
C149  C     C_R   0.025918 0.694766 0.495447 0.156931
C150  C     C_R   0.970481 0.305115 0.515883 0.153518
C151  C     C_R   0.973024 0.694867 0.506794 0.155642
C152  C     C_R   0.023669 0.305028 0.502938 0.155497
C153  C     C_R   0.493891 0.189800 0.600425 0.153870
C154  C     C_R   0.477787 0.808524 0.500498 0.155243
C155  C     C_R   0.445260 0.189170 0.594072 0.161706
C156  C     C_R   0.530976 0.811385 0.487606 0.152257
C157  C     C_R   0.972520 0.564774 0.507916 -0.003390
C158  C     C_R   0.024254 0.435175 0.501742 -0.001736
C159  C     C_R   0.025050 0.564715 0.499232 -0.003833
C160  C     C_R   0.971743 0.435223 0.510453 -0.001311
C161  C     C_R   0.460385 0.064899 0.547721 -0.007386
C162  C     C_R   0.522091 0.939777 0.513733 -0.002788
C163  C     C_R   0.509893 0.065839 0.551947 -0.008072
C164  C     C_R   0.470962 0.937874 0.517204 -0.001242
C165  C     C_R   0.441619 0.001089 0.528084 0.015057
C166  C     C_R   0.541771 0.003625 0.531524 0.014396
C167  C     C_R   0.946037 0.500018 0.511959 0.013589
C168  C     C_R   0.050929 0.499917 0.497062 0.013550
C169  C     C_R   0.372341 0.934817 0.508222 0.018488
C170  C     C_R   0.610860 0.066809 0.554670 0.016481
C171  C     C_R   0.623929 0.941417 0.511228 0.012573
C172  C     C_R   0.366460 0.063829 0.522108 0.009787
C173  C     C_R   0.868662 0.435190 0.517140 0.017846
C174  C     C_R   0.129270 0.564700 0.488380 0.015026
C175  C     C_R   0.128725 0.434973 0.489942 0.017847
C176  C     C_R   0.869055 0.564927 0.515972 0.014911
C177  C     C_R   0.329458 0.934974 0.483348 -0.150137
C178  C     C_R   0.662769 0.066609 0.551333 -0.167614
C179  C     C_R   0.669531 0.937961 0.528548 -0.154269
C180  C     C_R   0.326964 0.064367 0.489390 -0.155531
C181  C     C_R   0.819357 0.435229 0.510707 -0.165343
C182  C     C_R   0.179476 0.564671 0.491974 -0.164087
C183  C     C_R   0.179235 0.435139 0.492662 -0.160548
C184  C     C_R   0.819501 0.564823 0.510270 -0.163561
C185  C     C_R   0.314008 0.999991 0.459808 0.046160
C186  C     C_R   0.685889 0.001001 0.556481 0.057580
C187  C     C_R   0.791323 0.500027 0.520932 0.052731
C188  C     C_R   0.207626 0.499895 0.480705 0.050048
Cu1   Cu    Cu3+1 0.209920 0.785290 0.495070 0.898588
Cu2   Cu    Cu3+1 0.790080 0.214710 0.504930 0.907967
Cu3   Cu    Cu3+1 0.790080 0.785290 0.504930 0.895910
Cu4   Cu    Cu3+1 0.209920 0.214710 0.495070 0.909124
Cu5   Cu    Cu3+1 0.709920 0.285290 0.495070 0.897040
Cu6   Cu    Cu3+1 0.290080 0.714710 0.504930 0.903907
Cu7   Cu    Cu3+1 0.290080 0.285290 0.504930 0.892739
Cu8   Cu    Cu3+1 0.709920 0.714710 0.495070 0.910661
Cu9   Cu    Cu3+1 0.495240 0.500000 0.924150 0.934174
Cu10  Cu    Cu3+1 0.504760 0.500000 0.075850 0.936994
Cu11  Cu    Cu3+1 0.995240 0.000000 0.924150 0.942833
Cu12  Cu    Cu3+1 0.004760 0.000000 0.075850 0.940258
H1    H     H_    0.633317 0.840891 0.441361 0.165565
H2    H     H_    0.353405 0.168626 0.583501 0.178881
H3    H     H_    0.375646 0.822671 0.543293 0.180155
H4    H     H_    0.587149 0.172566 0.609577 0.166217
H5    H     H_    0.126895 0.324904 0.450060 0.169618
H6    H     H_    0.869348 0.674657 0.557557 0.166162
H7    H     H_    0.868235 0.325601 0.559302 0.168090
H8    H     H_    0.129545 0.673626 0.444327 0.166702
H9    H     H_    0.115684 0.846605 0.769060 0.191230
H10   H     H_    0.882631 0.153323 0.228934 0.189452
H11   H     H_    0.884659 0.846119 0.230668 0.190967
H12   H     H_    0.119748 0.150130 0.770758 0.189161
H13   H     H_    0.615133 0.345679 0.769560 0.190160
H14   H     H_    0.382408 0.652941 0.229063 0.189151
H15   H     H_    0.386138 0.340483 0.226769 0.188851
H16   H     H_    0.617517 0.652942 0.770881 0.189210
H17   H     H_    0.297761 0.809690 0.693651 0.146668
H18   H     H_    0.701054 0.227031 0.304349 0.180254
H19   H     H_    0.703049 0.811149 0.303819 0.138646
H20   H     H_    0.251276 0.337073 0.734058 0.179075
H21   H     H_    0.796407 0.310688 0.696701 0.139944
H22   H     H_    0.201608 0.730810 0.302330 0.165488
H23   H     H_    0.201148 0.307447 0.312396 0.145850
H24   H     H_    0.798879 0.727642 0.696054 0.163767
O1    O     O_R   0.255040 0.869590 0.478480 -0.571831
O2    O     O_R   0.744960 0.130410 0.521520 -0.572777
O3    O     O_R   0.744960 0.869590 0.521520 -0.574227
O4    O     O_R   0.255040 0.130410 0.478480 -0.568981
O5    O     O_R   0.755040 0.369590 0.478480 -0.570309
O6    O     O_R   0.244960 0.630410 0.521520 -0.569347
O7    O     O_R   0.244960 0.369590 0.521520 -0.578612
O8    O     O_R   0.755040 0.630410 0.478480 -0.569249
O9    O     O_R   0.182050 0.796550 0.624440 -0.584945
O10   O     O_R   0.817950 0.203450 0.375560 -0.579757
O11   O     O_R   0.817950 0.796550 0.375560 -0.584991
O12   O     O_R   0.182050 0.203450 0.624440 -0.580890
O13   O     O_R   0.682050 0.296550 0.624440 -0.605359
O14   O     O_R   0.317950 0.703450 0.375560 -0.592575
O15   O     O_R   0.317950 0.296550 0.375560 -0.593278
O16   O     O_R   0.682050 0.703450 0.624440 -0.592479
O17   O     O_R   0.250530 0.763330 0.367210 -0.606328
O18   O     O_R   0.749470 0.236670 0.632790 -0.595580
O19   O     O_R   0.749470 0.763330 0.632790 -0.606509
O20   O     O_R   0.250530 0.236670 0.367210 -0.592345
O21   O     O_R   0.750530 0.263330 0.367210 -0.592575
O22   O     O_R   0.249470 0.736670 0.632790 -0.585052
O23   O     O_R   0.249470 0.263330 0.632790 -0.607424
O24   O     O_R   0.750530 0.736670 0.367210 -0.582128
O25   O     O_R   0.177260 0.690030 0.513710 -0.607147
O26   O     O_R   0.822740 0.309970 0.486290 -0.604776
O27   O     O_R   0.822740 0.690030 0.486290 -0.607305
O28   O     O_R   0.177260 0.309970 0.513710 -0.610397
O29   O     O_R   0.677260 0.190030 0.513710 -0.603045
O30   O     O_R   0.322740 0.809970 0.486290 -0.613669
O31   O     O_R   0.322740 0.190030 0.486290 -0.599034
O32   O     O_R   0.677260 0.809970 0.513710 -0.605441
O33   O     O_R   0.051640 0.926880 0.885090 -0.596099
O34   O     O_R   0.948360 0.073120 0.114910 -0.593829
O35   O     O_R   0.948360 0.926880 0.114910 -0.596581
O36   O     O_R   0.051640 0.073120 0.885090 -0.594164
O37   O     O_R   0.551640 0.426880 0.885090 -0.597868
O38   O     O_R   0.448360 0.573120 0.114910 -0.596113
O39   O     O_R   0.448360 0.426880 0.114910 -0.595399
O40   O     O_R   0.551640 0.573120 0.885090 -0.596286
O41   O     O_R   0.940620 0.926560 0.986760 -0.570934
O42   O     O_R   0.059380 0.073440 0.013240 -0.572656
O43   O     O_R   0.059380 0.926560 0.013240 -0.571055
O44   O     O_R   0.940620 0.073440 0.986760 -0.573911
O45   O     O_R   0.440620 0.426560 0.986760 -0.570976
O46   O     O_R   0.559380 0.573440 0.013240 -0.573010
O47   O     O_R   0.559380 0.426560 0.013240 -0.570320
O48   O     O_R   0.440620 0.573440 0.986760 -0.573710
N1    N     N_3   0.559153 0.745463 0.478837 -0.557991
H25   H     H_    0.593940 0.744084 0.417316 0.202930
H26   H     H_    0.570430 0.742460 0.530019 0.225618
N2    N     N_3   0.414568 0.253877 0.612905 -0.570216
H27   H     H_    0.375950 0.244549 0.665269 0.228932
H28   H     H_    0.411128 0.268667 0.555865 0.211422
N3    N     N_3   0.455762 0.740274 0.496346 -0.561869
H29   H     H_    0.422392 0.729742 0.558025 0.201851
H30   H     H_    0.443401 0.741561 0.446379 0.219647
N4    N     N_3   0.509204 0.254569 0.628110 -0.575877
H31   H     H_    0.546784 0.270983 0.577659 0.216076
H32   H     H_    0.512342 0.244710 0.686691 0.198816
N5    N     N_3   0.047909 0.237793 0.504147 -0.559100
H33   H     H_    0.081277 0.228854 0.442076 0.199762
H34   H     H_    0.060706 0.239344 0.553580 0.223576
N6    N     N_3   0.949345 0.761941 0.503233 -0.559101
H35   H     H_    0.914742 0.770727 0.563565 0.191674
H36   H     H_    0.938381 0.759926 0.451628 0.222992
N7    N     N_3   0.945111 0.237717 0.519492 -0.559782
H37   H     H_    0.911190 0.232002 0.581717 0.203411
H38   H     H_    0.932998 0.236329 0.469226 0.222703
N8    N     N_3   0.050443 0.761950 0.495900 -0.558676
H39   H     H_    0.084963 0.769010 0.434967 0.191507
H40   H     H_    0.061693 0.761401 0.547208 0.222355
C189  C     C_3   0.295069 0.000748 0.387386 -0.333891
C190  C     C_3   0.233328 0.000205 0.423304 -0.668095
H41   H     H_    0.220686 0.952525 0.398553 0.225847
H42   H     H_    0.211705 0.000370 0.497707 0.250576
H43   H     H_    0.220332 0.047331 0.398280 0.228354
H44   H     H_    0.312452 0.047752 0.343137 0.182163
H45   H     H_    0.312765 0.954588 0.341624 0.181188
C191  C     C_3   0.717375 0.998004 0.610878 -0.322746
C192  C     C_3   0.779300 0.998888 0.554392 -0.664503
H46   H     H_    0.797427 0.952502 0.571578 0.221842
H47   H     H_    0.791646 0.997557 0.481475 0.247724
H48   H     H_    0.796677 0.047218 0.569345 0.226182
H49   H     H_    0.705215 0.043345 0.658825 0.180616
H50   H     H_    0.704761 0.950292 0.654894 0.187798
C193  C     C_3   0.729266 0.500065 0.568852 -0.330834
C194  C     C_3   0.702778 0.499974 0.506306 -0.658706
H51   H     H_    0.676333 0.547316 0.519389 0.223046
H52   H     H_    0.733476 0.499975 0.434657 0.252087
H53   H     H_    0.676373 0.452559 0.519344 0.221086
H54   H     H_    0.714224 0.453580 0.614799 0.180193
H55   H     H_    0.714282 0.546643 0.614721 0.179809
C195  C     C_3   0.269672 0.499823 0.430856 -0.324872
C196  C     C_3   0.297345 0.499880 0.491661 -0.666874
H56   H     H_    0.323626 0.547496 0.478117 0.224322
H57   H     H_    0.267342 0.499439 0.563736 0.248524
H58   H     H_    0.324113 0.452722 0.477281 0.221431
H59   H     H_    0.284131 0.453239 0.384915 0.180224
H60   H     H_    0.284247 0.546299 0.384823 0.178750
N9    N     N_3   0.050215 0.790813 0.078646 -0.586112
H61   H     H_    0.035896 0.738536 0.092558 0.211361
H62   H     H_    0.035773 0.819063 0.138831 0.231771
N10   N     N_3   0.945671 0.191267 0.907561 -0.572575
H63   H     H_    0.958922 0.153158 0.856529 0.232608
H64   H     H_    0.958631 0.241231 0.877988 0.216012
N11   N     N_3   0.951018 0.790070 0.920651 -0.586442
H65   H     H_    0.965625 0.737924 0.906882 0.211353
H66   H     H_    0.965361 0.818129 0.860391 0.231728
N12   N     N_3   0.048499 0.186251 0.101523 -0.566377
H67   H     H_    0.038579 0.145687 0.149035 0.231936
H68   H     H_    0.032649 0.233898 0.135793 0.213995
N13   N     N_3   0.548778 0.290984 0.080197 -0.587831
H69   H     H_    0.534074 0.238907 0.094673 0.209530
H70   H     H_    0.534520 0.319630 0.140071 0.230445
N14   N     N_3   0.446668 0.691198 0.906907 -0.573608
H71   H     H_    0.460010 0.652672 0.856361 0.232292
H72   H     H_    0.459630 0.740936 0.876641 0.214569
N15   N     N_3   0.441090 0.304021 0.910924 -0.580558
H73   H     H_    0.451641 0.252157 0.886558 0.204964
H74   H     H_    0.455904 0.339123 0.856648 0.233267
N16   N     N_3   0.553963 0.691812 0.092139 -0.574213
H75   H     H_    0.540605 0.653943 0.143391 0.231937
H76   H     H_    0.540931 0.741887 0.121369 0.214214
N17   N     N_3   0.106020 0.714741 0.158596 -0.581974
H77   H     H_    0.091087 0.670921 0.138561 0.213103
H78   H     H_    0.073018 0.743130 0.206157 0.226302
N18   N     N_3   0.881604 0.186057 0.813771 -0.580621
H79   H     H_    0.887997 0.131032 0.809751 0.213708
H80   H     H_    0.919102 0.210916 0.778039 0.229320
N19   N     N_3   0.895637 0.711880 0.841219 -0.581239
H81   H     H_    0.910313 0.668468 0.862295 0.212979
H82   H     H_    0.928826 0.739873 0.793498 0.226691
N20   N     N_3   0.115675 0.182695 0.190374 -0.580708
H83   H     H_    0.113324 0.127232 0.187966 0.212966
H84   H     H_    0.076757 0.202293 0.230394 0.227788
N21   N     N_3   0.603930 0.214791 0.161184 -0.579624
H85   H     H_    0.588510 0.171188 0.141652 0.211385
H86   H     H_    0.571291 0.243852 0.208542 0.224840
N22   N     N_3   0.382306 0.682899 0.813374 -0.580359
H87   H     H_    0.387935 0.627769 0.811598 0.213203
H88   H     H_    0.420156 0.706614 0.776582 0.226820
N23   N     N_3   0.378580 0.275496 0.819964 -0.580940
H89   H     H_    0.400302 0.228543 0.812779 0.219242
H90   H     H_    0.405659 0.315718 0.783296 0.250184
N24   N     N_3   0.617390 0.688199 0.186905 -0.578594
H91   H     H_    0.610568 0.633252 0.191879 0.213503
H92   H     H_    0.580074 0.713643 0.221859 0.228861
N25   N     N_3   0.360307 0.810716 0.771943 -0.580986
H93   H     H_    0.359621 0.865721 0.762922 0.217147
H94   H     H_    0.381363 0.788128 0.708225 0.219826
N26   N     N_3   0.649642 0.296383 0.236013 -0.582573
H95   H     H_    0.659969 0.341999 0.260428 0.215367
H96   H     H_    0.623022 0.266690 0.291491 0.221938
N27   N     N_3   0.642688 0.818220 0.220401 -0.581995
H97   H     H_    0.646327 0.873149 0.226312 0.216047
H98   H     H_    0.619299 0.798678 0.284957 0.220026
N28   N     N_3   0.312276 0.377438 0.803475 -0.582363
H99   H     H_    0.291589 0.424310 0.805235 0.212733
H100  H     H_    0.339123 0.367098 0.736382 0.228226
N29   N     N_3   0.857587 0.315724 0.778260 -0.580471
H101  H     H_    0.854834 0.370716 0.771579 0.217700
H102  H     H_    0.880193 0.295322 0.713824 0.219549
N30   N     N_3   0.151488 0.800057 0.231747 -0.581810
H103  H     H_    0.161322 0.844459 0.258899 0.214206
H104  H     H_    0.123792 0.769563 0.284977 0.219041
N31   N     N_3   0.134065 0.309061 0.243145 -0.578506
H105  H     H_    0.132760 0.363097 0.259084 0.217591
H106  H     H_    0.115423 0.281291 0.303550 0.219308
N32   N     N_3   0.851048 0.794292 0.765058 -0.581535
H107  H     H_    0.842342 0.838631 0.736400 0.214008
H108  H     H_    0.878033 0.762185 0.712957 0.220147

loop_
_geom_bond_atom_site_label_1
_geom_bond_atom_site_label_2
_ccdc_geom_bond_type
C130  N30   S    
C21   C29   A    
C85   C182  S    
Cu6   O6    S    
C9    C169  A    
N7    H37   S    
C34   C42   A    
C108  N16   S    
N13   H69   S    
C181  C187  A    
Cu11  O41   S    
C191  H50   S    
C27   C99   A    
N4    H31   S    
C195  H59   S    
C170  C178  A    
C175  C183  A    
C42   C109  A    
C24   C96   A    
Cu2   O26   S    
C62   C70   A    
Cu3   Cu8   S    
Cu11  O36   S    
Cu1   Cu6   S    
Cu12  O43   S    
C189  H44   S    
C117  H17   S    
C147  C155  A    
C125  N25   S    
C88   O28   A    
C110  N18   S    
C143  C151  A    
C90   C177  S    
Cu11  Cu12  S    
Cu8   O24   S    
C11   C167  A    
C82   C98   A    
C19   H7    S    
C76   C84   A    
C73   C81   A    
C161  C163  A    
C162  C164  A    
C84   C100  A    
Cu4   Cu7   S    
N14   H71   S    
C121  C129  A    
C137  O45   A    
C37   C114  A    
C27   C35   A    
C10   C171  A    
C55   C133  S    
C123  H23   S    
C149  N8    S    
C81   C121  A    
Cu5   O29   S    
C24   C32   A    
C65   H13   S    
C5    C70   S    
C56   C134  S    
N19   H81   S    
C146  C154  A    
C111  N19   S    
N18   H79   S    
C112  N20   S    
C14   C172  A    
C63   C71   A    
C131  N31   S    
Cu1   O17   S    
C103  N11   S    
C36   C44   A    
C190  H41   S    
Cu9   O45   S    
C12   C174  A    
C138  O46   A    
C58   C140  S    
C176  C184  A    
C7    O12   A    
C8    C71   S    
C48   C96   A    
C86   O5    A    
C6    O22   A    
C186  C191  S    
C155  N2    S    
C15   H3    S    
C133  O41   A    
C148  C162  A    
Cu3   O19   S    
N5    H34   S    
C183  C188  A    
C108  C116  A    
C91   O31   A    
C78   C94   A    
C4    O15   A    
C23   C95   A    
N3    H30   S    
N32   H107  S    
C49   C97   A    
C21   C42   A    
C40   C115  A    
C8    O11   A    
N10   H64   S    
C51   C107  A    
C122  H22   S    
C24   C43   A    
C64   H12   S    
C16   H4    S    
Cu3   O11   S    
C82   C122  A    
C161  C165  A    
C17   C175  A    
C60   C138  S    
N29   H102  S    
C18   C176  A    
C6    C69   S    
C196  H57   S    
C85   O25   A    
N17   H77   S    
C29   C125  A    
C91   O4    A    
C69   C77   A    
C53   C135  S    
C31   C127  A    
C89   O2    A    
C45   C93   A    
C174  C182  A    
C71   C79   A    
N24   H91   S    
C179  C186  A    
C87   O27   A    
C30   C38   A    
C11   C176  A    
C21   C93   A    
C17   C144  A    
C1    C74   S    
Cu7   O15   S    
C154  N3    S    
C78   C118  A    
Cu9   O40   S    
C149  C151  A    
Cu10  O39   S    
C66   C74   A    
C7    O23   A    
C49   C57   A    
C194  H51   S    
C124  C132  A    
N9    H62   S    
C52   C60   A    
C59   C67   A    
C53   C61   A    
C141  C159  A    
C20   C174  A    
C124  H24   S    
C92   O3    A    
N22   H88   S    
N30   H103  S    
C192  H47   S    
C55   C63   A    
C86   C181  S    
Cu3   O27   S    
C56   C64   A    
Cu1   O9    S    
C3    O16   A    
Cu12  O42   S    
C90   O30   A    
C45   C53   A    
C140  O38   A    
C113  N21   S    
C22   C94   A    
C171  C179  A    
C169  C177  A    
N26   H96   S    
C50   C98   A    
N30   H104  S    
C105  N13   S    
C65   C73   A    
C7    C72   S    
C104  C112  A    
N12   H67   S    
C145  C163  A    
Cu4   O28   S    
C146  C164  A    
C14   C147  A    
C52   C100  A    
N18   H80   S    
C16   C145  A    
N7    H38   S    
N6    H36   S    
C178  C186  A    
C104  N12   S    
C25   C38   A    
N16   H76   S    
C46   C94   A    
C27   C40   A    
C10   C166  A    
Cu5   O13   S    
C91   C180  S    
C62   H10   S    
C182  C188  A    
C89   C178  S    
Cu6   O14   S    
N20   H84   S    
C2    O18   A    
C28   C36   A    
C2    C73   S    
C25   C97   A    
N19   H82   S    
C138  O40   A    
C192  H46   S    
C5    O10   A    
C139  O37   A    
Cu6   O22   S    
C67   C75   A    
C126  N26   S    
N31   H106  S    
Cu5   O21   S    
C22   C30   A    
C153  N4    S    
Cu2   O2    S    
C20   C141  A    
C63   H11   S    
N10   H63   S    
C15   C146  A    
C2    O13   A    
Cu11  O44   S    
C103  C111  A    
C68   C76   A    
N4    H32   S    
C184  C187  A    
C195  H60   S    
C136  O44   A    
C32   C128  A    
C17   H5    S    
C144  C152  A    
C14   H2    S    
N1    H26   S    
C129  N29   S    
Cu9   Cu10  S    
Cu10  O46   S    
C13   C171  A    
N2    H27   S    
C132  N32   S    
C4    O20   A    
C25   C33   A    
C119  C127  A    
C128  N28   S    
C86   O26   A    
N28   H99   S    
C119  H19   S    
Cu7   O31   S    
Cu5   O5    S    
C193  C194  S    
C157  C167  A    
C80   C120  A    
C158  C168  A    
N27   H97   S    
N21   H86   S    
C52   C108  A    
C164  C165  A    
N14   H72   S    
N25   H94   S    
N8    H39   S    
C116  N24   S    
C22   C41   A    
C101  C109  A    
C87   O8    A    
C177  C185  A    
C57   C139  S    
Cu1   O25   S    
C4    C75   S    
Cu9   O37   S    
Cu2   Cu5   S    
C162  C166  A    
C79   C119  A    
C118  H18   S    
Cu3   O3    S    
N3    H29   S    
C153  C155  A    
C154  C156  A    
C172  C180  A    
C173  C181  A    
C157  C159  A    
C83   C99   A    
C158  C160  A    
C190  H42   S    
C74   C82   A    
N13   H70   S    
Cu4   O12   S    
C191  H49   S    
C135  O33   A    
C47   C103  A    
C50   C58   A    
C163  C166  A    
C147  C161  A    
C38   C113  A    
C152  N5    S    
C49   C105  A    
C54   C62   A    
C28   C39   A    
C23   C44   A    
Cu6   O30   S    
C190  H43   S    
C66   H14   S    
N11   H65   S    
C19   C173  A    
C79   C95   A    
N5    H33   S    
C92   C179  S    
Cu11  O33   S    
C120  H20   S    
C46   C54   A    
C189  H45   S    
N23   H90   S    
C61   H9    S    
N32   H108  S    
C115  N23   S    
C156  N1    S    
C45   C101  A    
C92   O32   A    
Cu2   O18   S    
C19   C142  A    
C102  C110  A    
C35   C131  A    
C107  N15   S    
Cu12  O35   S    
N29   H101  S    
C33   C129  A    
C18   C143  A    
C114  N22   S    
C36   C132  A    
C123  C131  A    
C85   O6    A    
C57   C65   A    
N24   H92   S    
C120  C128  A    
C26   C37   A    
C10   C170  A    
Cu8   O32   S    
C33   C41   A    
C142  C150  A    
C9    C165  A    
C75   C83   A    
Cu7   O23   S    
N15   H74   S    
C193  H55   S    
C77   C93   A    
C194  H52   S    
C185  C189  S    
N9    H61   S    
C68   H16   S    
C196  H56   S    
C44   C111  A    
C16   C170  A    
C133  O35   A    
C88   O7    A    
C109  N17   S    
C60   C68   A    
C72   C80   A    
C39   C116  A    
C29   C37   A    
C50   C106  A    
C121  H21   S    
C9    C172  A    
C148  C156  A    
C83   C123  A    
C23   C31   A    
C134  O42   A    
N15   H73   S    
C30   C126  A    
Cu4   O20   S    
C70   C78   A    
C189  C190  S    
C90   O1    A    
C67   H15   S    
N23   H89   S    
C151  N6    S    
C141  C149  A    
N31   H105  S    
N22   H87   S    
C46   C102  A    
C106  C114  A    
C77   C117  A    
N12   H68   S    
N27   H98   S    
C59   C137  S    
C48   C104  A    
C5    O21   A    
C159  C168  A    
C15   C169  A    
C160  C167  A    
C26   C34   A    
C31   C39   A    
C105  C113  A    
Cu2   O10   S    
C102  N10   S    
C80   C96   A    
C145  C153  A    
C28   C100  A    
C32   C40   A    
C196  H58   S    
N17   H78   S    
C89   O29   A    
C193  H54   S    
C8    O24   A    
C135  O43   A    
C150  N7    S    
C58   C66   A    
C143  C157  A    
C51   C99   A    
C101  N9    S    
C11   C173  A    
Cu8   O8    S    
C188  C195  S    
C87   C184  S    
Cu10  O38   S    
C88   C183  S    
C139  O47   A    
C140  O48   A    
C187  C193  S    
C195  C196  S    
C192  H48   S    
C54   C136  S    
N1    H25   S    
Cu7   O7    S    
C3    O19   A    
Cu9   O48   S    
C3    C76   S    
N11   H66   S    
C107  C115  A    
Cu10  O47   S    
C1    O17   A    
C26   C98   A    
C12   C175  A    
C191  C192  S    
C6    O9    A    
N2    H28   S    
C41   C110  A    
C136  O34   A    
C150  C152  A    
C51   C59   A    
C43   C112  A    
C20   H8    S    
C144  C158  A    
C137  O39   A    
C35   C43   A    
N26   H95   S    
C47   C55   A    
Cu8   O16   S    
C61   C69   A    
C48   C56   A    
N28   H100  S    
Cu1   O1    S    
C142  C160  A    
C12   C168  A    
Cu12  O34   S    
C1    O14   A    
C84   C124  A    
N21   H85   S    
C127  N27   S    
C18   H6    S    
N6    H35   S    
N25   H93   S    
N8    H40   S    
N16   H75   S    
C81   C97   A    
C194  H53   S    
C13   H1    S    
C64   C72   A    
N20   H83   S    
C180  C185  A    
Cu4   O4    S    
C106  N14   S    
C34   C130  A    
C134  O36   A    
C47   C95   A    
C118  C126  A    
C13   C148  A    
C117  C125  A    
C122  C130  A    
