data_mof_unit_42701.cif
_audit_creation_date              2013-03-05T16:45:08-0500
_audit_creation_method            fapswitch 2.2
_symmetry_space_group_name_H-M    P1
_symmetry_Int_Tables_number       1
_space_group_crystal_system       triclinic
_cell_length_a                    15.033211
_cell_length_b                    14.988033
_cell_length_c                    9.965923
_cell_angle_alpha                 89.946305
_cell_angle_beta                  89.711046
_cell_angle_gamma                 90.34712
_cell_volume                      2245.433639

loop_
_atom_site_label
_atom_site_type_symbol
_atom_site_description
_atom_site_fract_x
_atom_site_fract_y
_atom_site_fract_z
_atom_type_partial_charge
O1    O     O_R   0.408400 0.908380 0.614690 -0.665717
O2    O     O_R   0.408400 0.091620 0.614690 -0.648711
O3    O     O_R   0.908400 0.408380 0.614690 -0.663476
O4    O     O_R   0.908400 0.591620 0.614690 -0.647377
O5    O     O_R   0.408370 0.908370 0.385350 -0.544964
O6    O     O_R   0.408370 0.091630 0.385350 -0.569632
O7    O     O_R   0.908370 0.408370 0.385350 -0.549064
O8    O     O_R   0.908370 0.591630 0.385350 -0.566237
C1    C     C_R   0.380845 0.880239 0.500313 0.872933
C2    C     C_R   0.385318 0.125197 0.499925 0.873865
C3    C     C_R   0.883912 0.377035 0.500050 0.867540
C4    C     C_R   0.880674 0.620211 0.500031 0.868019
Zn1   Zn    Zn3+2 0.500010 1.000000 0.653130 0.909423
Zn2   Zn    Zn3+2 0.000010 0.500000 0.653130 0.914996
Zn3   Zn    Zn3+2 0.499980 1.000000 0.346870 1.020598
Zn4   Zn    Zn3+2 0.999980 0.500000 0.346870 1.017793
O9    O     O_R   0.591610 0.091610 0.614650 -0.636729
O10   O     O_R   0.591610 0.908390 0.614650 -0.612252
O11   O     O_R   0.091610 0.591610 0.614650 -0.638839
O12   O     O_R   0.091610 0.408390 0.614650 -0.609692
O13   O     O_R   0.591590 0.091600 0.385310 -0.618073
O14   O     O_R   0.591590 0.908400 0.385310 -0.619176
O15   O     O_R   0.091590 0.591600 0.385310 -0.616433
O16   O     O_R   0.091590 0.408400 0.385310 -0.625293
C5    C     C_R   0.616304 0.122139 0.500004 0.871530
C6    C     C_R   0.620742 0.881414 0.499637 0.863789
C7    C     C_R   0.119173 0.619599 0.499789 0.865687
C8    C     C_R   0.124167 0.384851 0.499235 0.861829
C9    C     C_R   0.326226 0.264685 0.604561 0.116874
C10   C     C_R   0.333763 0.728095 0.526733 0.064906
C11   C     C_R   0.821477 0.757781 0.593276 0.039416
C12   C     C_R   0.834018 0.223089 0.521558 0.122044
C13   C     C_R   0.335237 0.206567 0.495199 -0.146998
C14   C     C_R   0.313758 0.816088 0.500876 -0.050616
C15   C     C_R   0.819025 0.690653 0.496989 -0.124382
C16   C     C_R   0.816413 0.312706 0.498820 -0.062065
C17   C     C_R   0.295782 0.230975 0.373042 -0.177324
C18   C     C_R   0.225628 0.840779 0.474866 -0.119665
C19   C     C_R   0.761359 0.696895 0.387745 -0.171483
C20   C     C_R   0.728739 0.340240 0.474104 -0.110964
H1    H     H_    0.308452 0.195312 0.281061 0.241803
H2    H     H_    0.208221 0.909756 0.457178 0.173340
H3    H     H_    0.761108 0.648013 0.308458 0.245710
H4    H     H_    0.713301 0.409893 0.458063 0.172619
C21   C     C_R   0.697888 0.762411 0.386390 -0.230537
C22   C     C_R   0.660601 0.276850 0.471809 -0.206496
C23   C     C_R   0.230470 0.295348 0.371938 -0.236604
C24   C     C_R   0.159700 0.774990 0.472961 -0.193218
H5    H     H_    0.650190 0.763331 0.305194 0.183735
H6    H     H_    0.592937 0.296867 0.450806 0.139646
H7    H     H_    0.195208 0.307182 0.279114 0.190961
H8    H     H_    0.091335 0.792839 0.452550 0.139292
C25   C     C_R   0.691438 0.820359 0.495842 -0.080857
C26   C     C_R   0.681194 0.188034 0.500654 -0.060690
C27   C     C_R   0.203588 0.333699 0.493756 -0.095483
C28   C     C_R   0.183392 0.686404 0.499522 -0.058597
C29   C     C_R   0.757529 0.822244 0.593138 0.065176
C30   C     C_R   0.766936 0.164479 0.529301 0.092824
C31   C     C_R   0.257791 0.324385 0.604928 0.078412
C32   C     C_R   0.270392 0.665531 0.527323 0.080177
C33   C     C_3   0.752518 0.825506 0.742923 -0.468120
C34   C     C_3   0.820956 0.087477 0.572017 -0.569286
C35   C     C_3   0.239803 0.315859 0.751229 -0.525180
C36   C     C_3   0.331942 0.591612 0.562081 -0.509613
C37   C     C_3   0.320093 0.253769 0.754132 -0.041069
C38   C     C_3   0.405778 0.664035 0.562068 -0.083470
C39   C     C_3   0.823870 0.753431 0.743158 -0.024190
C40   C     C_3   0.900494 0.152526 0.560370 -0.087610
H9    H     H_    0.774576 0.891285 0.782645 0.200606
H10   H     H_    0.819165 0.032479 0.497135 0.206309
H11   H     H_    0.248339 0.380398 0.804788 0.203707
H12   H     H_    0.337007 0.541495 0.480216 0.210502
H13   H     H_    0.687403 0.801483 0.782737 0.198338
H14   H     H_    0.805607 0.066964 0.676850 0.192567
H15   H     H_    0.175930 0.280602 0.772470 0.199760
H16   H     H_    0.317641 0.563542 0.663253 0.183815
H17   H     H_    0.302723 0.185203 0.785898 0.172146
H18   H     H_    0.434300 0.677441 0.662854 0.156864
H19   H     H_    0.799592 0.688387 0.782785 0.175628
H20   H     H_    0.933370 0.165516 0.658243 0.157006
C41   C     C_R   0.449911 0.939968 0.071845 0.071776
C42   C     C_R   0.953779 0.436970 0.071845 0.068433
N1    N     N_R   0.499140 0.000000 0.142800 -0.094833
N2    N     N_R   0.999140 0.500000 0.142800 -0.093052
C43   C     C_R   0.557764 0.052019 0.071092 -0.061185
C44   C     C_R   0.050756 0.558961 0.070948 -0.075314
H21   H     H_    0.603379 0.095603 0.123486 0.162114
H22   H     H_    0.090879 0.607684 0.123359 0.163320
C45   C     C_R   0.558733 0.050937 0.928020 -0.136510
C46   C     C_R   0.050760 0.558982 0.927880 -0.113252
H23   H     H_    0.605733 0.093156 0.875032 0.151815
H24   H     H_    0.090869 0.607712 0.874713 0.149322
N3    N     N_R   0.499160 1.000000 0.857150 -0.103940
N4    N     N_R   0.999160 0.500000 0.857150 -0.098955
C47   C     C_R   0.449459 0.939329 0.930851 0.014427
C48   C     C_R   0.953140 0.436491 0.930616 0.008681
C49   C     C_3   0.350670 0.914428 0.925969 0.063721
C50   C     C_3   0.854967 0.408838 0.926193 0.067145
C51   C     C_3   0.351954 0.922378 0.082739 0.459121
C52   C     C_3   0.856558 0.415241 0.082855 0.468372
N5    N     N_R   0.305288 0.000127 0.139840 0.204469
O17   O     O_R   0.243521 0.989809 0.230478 -0.397820
O18   O     O_R   0.327614 0.080855 0.104326 -0.471509
N6    N     N_R   0.330538 0.838672 0.154163 0.201192
O19   O     O_R   0.393158 0.784074 0.190337 -0.459797
O20   O     O_R   0.248049 0.814143 0.170502 -0.394653
N7    N     N_R   0.806539 0.490273 0.141542 0.201701
O21   O     O_R   0.826990 0.572345 0.110836 -0.479047
O22   O     O_R   0.740263 0.475942 0.223257 -0.417664
N8    N     N_R   0.839213 0.330167 0.153119 0.198812
O23   O     O_R   0.758050 0.301615 0.170041 -0.389301
O24   O     O_R   0.904494 0.278947 0.189595 -0.453636
C53   C     C_3   0.399485 0.296166 0.828893 -0.368072
C54   C     C_3   0.487540 0.253342 0.790725 -0.822233
H25   H     H_    0.481669 0.180436 0.802527 0.292447
H26   H     H_    0.505342 0.269154 0.684975 0.243716
H27   H     H_    0.541166 0.278680 0.857031 0.240454
H28   H     H_    0.404847 0.368875 0.806921 0.211561
H29   H     H_    0.388351 0.288096 0.938633 0.227419
C55   C     C_3   0.475377 0.654249 0.449867 -0.285961
C56   C     C_3   0.545022 0.584802 0.486587 -0.885615
H30   H     H_    0.581344 0.605634 0.578312 0.254069
H31   H     H_    0.513012 0.518822 0.504334 0.265314
H32   H     H_    0.593667 0.578110 0.403060 0.274937
H33   H     H_    0.443223 0.634982 0.353798 0.251144
H34   H     H_    0.509111 0.719556 0.434421 0.202929
C57   C     C_3   0.914598 0.783280 0.798558 -0.385763
C58   C     C_3   0.914577 0.783071 0.951561 -0.817543
H35   H     H_    0.863513 0.829569 0.990997 0.265227
H36   H     H_    0.900705 0.714824 0.989891 0.292962
H37   H     H_    0.980885 0.804707 0.988377 0.247401
H38   H     H_    0.966628 0.736434 0.762843 0.223942
H39   H     H_    0.932550 0.851137 0.761539 0.208942
C59   C     C_3   0.963529 0.123371 0.446844 -0.329416
C60   C     C_3   0.041715 0.186642 0.431282 -0.814091
H40   H     H_    0.017421 0.252692 0.398819 0.287443
H41   H     H_    0.077904 0.192682 0.527771 0.234350
H42   H     H_    0.087951 0.160693 0.353555 0.272011
H43   H     H_    0.989698 0.056021 0.470888 0.206315
H44   H     H_    0.927480 0.118886 0.349797 0.256218
C61   C     C_3   0.293658 0.984748 0.850002 -0.266030
C62   C     C_3   0.195261 0.988851 0.892853 -0.817346
H45   H     H_    0.151529 0.970604 0.807432 0.218396
H46   H     H_    0.179516 0.943290 0.977446 0.297013
H47   H     H_    0.178141 0.057854 0.923969 0.263634
H48   H     H_    0.324197 0.051345 0.863030 0.215214
H49   H     H_    0.294942 0.971997 0.741058 0.224650
C63   C     C_3   0.340768 0.816222 0.872956 -0.337801
C64   C     C_3   0.245462 0.784587 0.846327 -0.817587
H50   H     H_    0.202779 0.790975 0.936379 0.291799
H51   H     H_    0.215839 0.822642 0.762558 0.255375
H52   H     H_    0.246237 0.713113 0.817170 0.233491
H53   H     H_    0.379224 0.807208 0.780188 0.210973
H54   H     H_    0.372500 0.767861 0.941594 0.222648
C65   C     C_3   0.795337 0.478684 0.852596 -0.264945
C66   C     C_3   0.697038 0.479613 0.896578 -0.817301
H55   H     H_    0.681966 0.429520 0.975332 0.298429
H56   H     H_    0.679399 0.546454 0.936336 0.268784
H57   H     H_    0.653142 0.465750 0.809552 0.219238
H58   H     H_    0.823674 0.546551 0.865595 0.213755
H59   H     H_    0.795816 0.466811 0.743565 0.224780
C67   C     C_3   0.847524 0.310904 0.871134 -0.337565
C68   C     C_3   0.752896 0.276827 0.845835 -0.827960
H60   H     H_    0.711097 0.280569 0.937113 0.291055
H61   H     H_    0.721170 0.315040 0.763978 0.259226
H62   H     H_    0.755393 0.205797 0.814887 0.234785
H63   H     H_    0.885517 0.303609 0.777436 0.211463
H64   H     H_    0.881138 0.262938 0.938383 0.221767

loop_
_geom_bond_atom_site_label_1
_geom_bond_atom_site_label_2
_geom_bond_distance
_ccdc_geom_bond_type
C30   C34   1.478709 S    
C60   H42   1.110335 S    
C35   C37   1.528943 S    
C52   N8    1.475343 S    
N5    O17   1.300619 A    
C27   C31   1.386060 A    
C68   H60   1.104646 S    
O10   C6    1.291128 A    
C12   C30   1.335285 A    
C58   H35   1.110580 S    
N6    O20   1.300694 A    
C54   H25   1.101880 S    
C60   H40   1.105914 S    
C65   H59   1.101222 S    
O7    C3    1.286503 A    
Zn1   O10   1.986746 S    
C17   H1    1.078273 S    
C12   C16   1.389196 A    
C66   H55   1.107288 S    
C68   H61   1.107866 S    
N2    C44   1.371387 A    
C67   C68   1.530744 S    
C24   H8    1.083771 S    
C64   H51   1.107484 S    
C59   H44   1.112916 S    
C41   C47   1.405221 A    
C55   H34   1.109897 S    
C9    C13   1.402392 A    
Zn4   N2    2.033850 S    
C34   H10   1.112758 S    
C60   H41   1.110707 S    
O2    Zn1   1.989059 S    
C57   H38   1.111668 S    
C56   H32   1.110262 S    
C50   C67   1.571085 S    
O6    Zn3   1.987058 S    
C53   H29   1.111936 S    
C66   H56   1.110790 S    
Zn3   O14   1.988851 S    
C9    C31   1.367545 A    
C10   C32   1.332665 A    
N7    O21   1.301944 A    
O15   C7    1.285784 A    
C17   C23   1.380805 A    
C56   H31   1.110786 S    
O11   C7    1.284607 A    
C18   C24   1.394034 A    
C12   C40   1.510883 S    
C53   H28   1.113707 S    
C51   N6    1.474937 S    
C21   C25   1.398317 A    
Zn4   O16   1.988851 S    
C38   C55   1.535237 S    
O4    Zn2   1.989059 S    
N7    O22   1.300361 A    
C62   H47   1.111318 S    
C63   H54   1.107886 S    
N6    O19   1.303067 A    
C49   C51   1.567209 S    
C8    C27   1.423655 S    
C46   N4    1.370573 A    
C43   H21   1.080942 S    
C38   H18   1.112103 S    
C42   C48   1.407582 A    
C10   C14   1.378825 A    
C61   H49   1.102686 S    
Zn2   O12   1.986746 S    
C16   C20   1.406362 A    
C68   H62   1.109451 S    
C39   H19   1.110444 S    
C63   C64   1.530967 S    
C44   C46   1.425807 A    
C64   H52   1.110350 S    
C59   H43   1.111964 S    
C43   C45   1.425949 A    
C7    C28   1.386667 S    
C19   H3    1.078074 S    
O12   C8    1.297765 A    
C33   H13   1.112142 S    
C13   C17   1.405985 A    
N8    O23   1.300673 A    
C48   C50   1.531386 S    
C54   H26   1.111040 S    
C36   C38   1.547827 S    
C15   C19   1.398531 A    
O5    C1    1.286020 A    
C39   C57   1.538159 S    
C37   H17   1.104454 S    
C33   C39   1.526958 S    
C46   H24   1.080961 S    
C21   H5    1.084024 S    
O8    C4    1.288940 A    
C22   C26   1.398450 A    
C26   C30   1.369910 A    
C36   H16   1.111637 S    
O1    C1    1.285437 A    
C5    C26   1.384005 S    
C4    C15   1.409473 S    
N4    C48   1.380702 A    
C49   C61   1.560305 S    
C56   H30   1.111197 S    
C10   C38   1.494554 S    
O3    Zn2   1.978004 S    
C61   H48   1.104202 S    
C9    C37   1.501723 S    
O7    Zn4   1.974992 S    
C51   N5    1.476828 S    
C35   H11   1.112306 S    
Zn4   O15   1.977797 S    
C42   N2    1.362282 A    
C1    C14   1.389188 S    
C49   C63   1.570800 S    
C67   H64   1.108281 S    
O4    C4    1.291945 A    
C63   H53   1.096814 S    
C20   C22   1.393179 A    
C57   C58   1.524814 S    
O2    C2    1.298784 A    
C6    C25   1.407042 S    
C62   H46   1.108151 S    
C55   C56   1.526396 S    
O16   C8    1.288573 A    
C23   C27   1.402414 A    
C53   C54   1.521395 S    
N5    O18   1.301917 A    
C33   H9    1.112088 S    
C24   C28   1.402066 A    
O13   C5    1.287350 A    
C50   C65   1.566527 S    
C3    C16   1.395608 S    
C52   N7    1.476226 S    
C25   C29   1.391977 A    
N1    C43   1.370969 A    
C65   H58   1.108364 S    
C14   C18   1.403091 A    
C37   C53   1.544044 S    
Zn2   O11   1.974680 S    
C66   H57   1.111436 S    
C57   H39   1.112784 S    
C58   H36   1.109779 S    
C41   N1    1.362243 A    
C23   H7    1.083518 S    
C47   C49   1.530126 S    
C29   C33   1.495122 S    
C59   C60   1.513040 S    
Zn1   O9    1.974680 S    
C41   C51   1.497841 S    
C22   H6    1.083624 S    
C31   C35   1.486795 S    
C19   C21   1.373436 A    
C32   C36   1.489478 S    
O9    C5    1.282688 A    
C11   C29   1.367079 A    
C40   C59   1.537560 S    
C61   C62   1.539178 S    
C40   H20   1.112491 S    
N3    C47   1.381896 A    
Zn3   O13   1.977797 S    
C35   H15   1.112506 S    
Zn3   N1    2.033850 S    
C11   C15   1.391469 A    
C42   C52   1.498912 S    
C55   H33   1.112289 S    
C2    C13   1.437985 S    
C44   H22   1.080965 S    
C34   C40   1.542074 S    
C36   H12   1.112149 S    
C45   N3    1.372170 A    
C50   C52   1.564613 S    
N8    O24   1.302624 A    
O5    Zn3   1.974992 S    
C54   H27   1.110378 S    
O3    C3    1.290217 A    
O6    C2    1.294691 A    
C11   C39   1.495693 S    
C67   H63   1.098047 S    
C18   H2    1.082475 S    
C28   C32   1.376116 A    
C20   H4    1.082711 S    
O1    Zn1   1.978005 S    
O8    Zn4   1.987058 S    
C45   H23   1.081071 S    
O14   C6    1.288473 A    
Zn1   N3    2.033224 S    
C65   C66   1.539419 S    
C62   H45   1.111581 S    
C34   H14   1.111486 S    
C64   H50   1.105169 S    
C58   H37   1.110592 S    
Zn2   N4    2.033224 S    
