data_mof_unit_61000.cif
_audit_creation_date              2013-03-05T15:51:25-0500
_audit_creation_method            fapswitch 2.2
_symmetry_space_group_name_H-M    P1
_symmetry_Int_Tables_number       1
_space_group_crystal_system       triclinic
_cell_length_a                    37.115433
_cell_length_b                    30.066721
_cell_length_c                    21.534215
_cell_angle_alpha                 90.000402
_cell_angle_beta                  54.173288
_cell_angle_gamma                 90.000205
_cell_volume                      19484.0202363

loop_
_atom_site_label
_atom_site_type_symbol
_atom_site_description
_atom_site_fract_x
_atom_site_fract_y
_atom_site_fract_z
_atom_type_partial_charge
O1    O     O_R   0.933920 0.537280 0.566050 -0.611432
O2    O     O_R   0.066080 0.537280 0.433950 -0.611509
O3    O     O_R   0.433920 0.037280 0.566050 -0.611553
O4    O     O_R   0.566080 0.037280 0.433950 -0.611510
O5    O     O_R   0.933880 0.462680 0.566080 -0.607546
O6    O     O_R   0.066120 0.462680 0.433920 -0.607464
O7    O     O_R   0.433880 0.962680 0.566080 -0.607614
O8    O     O_R   0.566120 0.962680 0.433920 -0.607664
C1    C     C_R   0.913198 0.499974 0.586789 0.908598
C2    C     C_R   0.086802 0.499974 0.413211 0.908890
C3    C     C_R   0.413199 0.999974 0.586791 0.910431
C4    C     C_R   0.586801 0.999974 0.413209 0.910202
O9    O     O_R   0.999990 0.537270 0.407410 -0.625458
O10   O     O_R   0.000010 0.537270 0.592590 -0.625813
O11   O     O_R   0.499990 0.037270 0.407410 -0.626598
O12   O     O_R   0.500010 0.037270 0.592590 -0.626346
O13   O     O_R   0.999940 0.462670 0.407440 -0.587793
O14   O     O_R   0.000060 0.462670 0.592560 -0.588070
O15   O     O_R   0.499940 0.962670 0.407440 -0.588732
O16   O     O_R   0.500060 0.962670 0.592560 -0.588520
C5    C     C_R   0.000373 0.500255 0.378159 0.868312
C6    C     C_R   0.999600 0.500255 0.621867 0.869043
C7    C     C_R   0.500459 0.000256 0.378074 0.870613
C8    C     C_R   0.499562 0.000256 0.621905 0.870070
Zn1   Zn    Zn3+2 0.000000 0.549780 0.500000 1.071834
Zn2   Zn    Zn3+2 0.500000 0.049780 0.500000 1.070437
Zn3   Zn    Zn3+2 0.000000 0.450160 0.500000 1.062830
Zn4   Zn    Zn3+2 0.500000 0.950160 0.500000 1.061672
C9    C     C_3   0.009991 0.549793 0.272721 0.534727
C10   C     C_3   0.989703 0.549745 0.727575 0.534465
C11   C     C_3   0.510937 0.049632 0.271811 0.534066
C12   C     C_3   0.489289 0.049673 0.727972 0.534227
C13   C     C_3   0.018378 0.544850 0.193364 0.135818
C14   C     C_3   0.981343 0.544758 0.806905 0.136000
C15   C     C_3   0.519232 0.044559 0.192542 0.136431
C16   C     C_3   0.480971 0.044630 0.807262 0.136294
H1    H     H_    0.054990 0.543782 0.148515 0.135338
H2    H     H_    0.944737 0.543474 0.851740 0.135400
H3    H     H_    0.555820 0.042840 0.147724 0.135569
H4    H     H_    0.444376 0.043065 0.852088 0.135513
H5    H     H_    0.068708 0.476398 0.228387 0.211572
H6    H     H_    0.931408 0.476000 0.771524 0.211591
H7    H     H_    0.568344 0.975160 0.228679 0.211658
H8    H     H_    0.431567 0.975457 0.771393 0.211624
H9    H     H_    0.064259 0.464462 0.128727 0.202163
H10   H     H_    0.935942 0.464105 0.871105 0.202025
H11   H     H_    0.563642 0.963382 0.129243 0.201769
H12   H     H_    0.436209 0.963637 0.870880 0.201860
C17   C     C_3   0.034385 0.466692 0.250443 -0.407139
C18   C     C_3   0.965789 0.466499 0.749402 -0.406986
C19   C     C_3   0.533846 0.966097 0.250923 -0.406854
C20   C     C_3   0.466024 0.966239 0.749192 -0.406932
C21   C     C_3   0.952428 0.487578 0.334754 0.144549
C22   C     C_3   0.047623 0.487865 0.665178 0.144368
C23   C     C_3   0.452282 0.988463 0.334955 0.144024
C24   C     C_3   0.547685 0.988251 0.665091 0.144155
C25   C     C_3   0.999765 0.501168 0.310387 -0.170867
C26   C     C_3   0.000206 0.501176 0.689640 -0.170674
C27   C     C_3   0.499859 0.001188 0.310299 -0.170116
C28   C     C_3   0.500164 0.001184 0.689679 -0.170287
H13   H     H_    0.927899 0.512155 0.377510 0.131573
H14   H     H_    0.072006 0.512584 0.622560 0.131852
H15   H     H_    0.428206 0.013476 0.377280 0.132529
H16   H     H_    0.571870 0.013161 0.622662 0.132288
C29   C     C_3   0.999516 0.499262 0.189593 -0.099345
C30   C     C_3   0.000477 0.499283 0.810410 -0.099256
C31   C     C_3   0.499537 0.999325 0.189580 -0.099132
C32   C     C_3   0.500468 0.999310 0.810417 -0.099179
C33   C     C_3   0.030448 0.462213 0.183577 -0.481639
C34   C     C_3   0.969761 0.462051 0.816232 -0.482031
C35   C     C_3   0.529810 0.961725 0.184155 -0.482833
C36   C     C_3   0.470038 0.961840 0.815982 -0.482549
C37   C     C_3   0.951730 0.490239 0.263844 -0.385592
C38   C     C_3   0.048314 0.490537 0.736095 -0.385416
C39   C     C_3   0.451605 0.991149 0.264022 -0.385105
C40   C     C_3   0.548367 0.990932 0.736018 -0.385214
H17   H     H_    0.928497 0.517000 0.272851 0.223649
H18   H     H_    0.071391 0.517434 0.727242 0.223573
H19   H     H_    0.428853 0.018324 0.272556 0.223444
H20   H     H_    0.571235 0.018009 0.727371 0.223496
H21   H     H_    0.938285 0.458928 0.257226 0.210055
H22   H     H_    0.061947 0.459306 0.742518 0.210240
H23   H     H_    0.437593 0.960082 0.257998 0.210675
H24   H     H_    0.562245 0.959806 0.742183 0.210525
H25   H     H_    0.029800 0.433390 0.276408 0.248160
H26   H     H_    0.970566 0.433219 0.723257 0.248263
H27   H     H_    0.528658 0.932868 0.277445 0.248476
H28   H     H_    0.471067 0.932992 0.722803 0.248395
H29   H     H_    0.016978 0.428901 0.184752 0.227404
H30   H     H_    0.983428 0.428820 0.814862 0.227454
H31   H     H_    0.515738 0.928668 0.185916 0.227537
H32   H     H_    0.483966 0.928721 0.814359 0.227504
C41   C     C_R   0.656433 0.464574 0.875928 0.382411
C42   C     C_R   0.343566 0.464575 0.124070 0.382399
C43   C     C_R   0.156434 0.964584 0.875951 0.382429
C44   C     C_R   0.843566 0.964584 0.124049 0.382441
C45   C     C_R   0.634371 0.498091 0.865010 -0.105474
C46   C     C_R   0.365628 0.498090 0.134990 -0.105476
C47   C     C_R   0.134372 0.998089 0.865009 -0.105484
C48   C     C_R   0.865628 0.998089 0.134990 -0.105483
C49   C     C_R   0.657379 0.529796 0.807338 -0.343149
C50   C     C_R   0.342620 0.529794 0.192667 -0.343168
C51   C     C_R   0.157381 0.029779 0.807311 -0.343112
C52   C     C_R   0.842619 0.029781 0.192686 -0.343096
C53   C     C_R   0.703416 0.529878 0.760839 0.125595
C54   C     C_R   0.296584 0.529875 0.239167 0.125603
C55   C     C_R   0.203417 0.029861 0.760812 0.125617
C56   C     C_R   0.796583 0.029864 0.239184 0.125611
C57   C     C_R   0.726541 0.497467 0.772291 0.013263
C58   C     C_R   0.273459 0.497465 0.227712 0.013256
C59   C     C_R   0.226542 0.997464 0.772289 0.013343
C60   C     C_R   0.773458 0.997466 0.227708 0.013348
C61   C     C_R   0.703265 0.464608 0.830085 0.003777
C62   C     C_R   0.296735 0.464608 0.169914 0.003784
C63   C     C_R   0.203266 0.964619 0.830108 0.003783
C64   C     C_R   0.796734 0.964619 0.169890 0.003776
C65   C     C_R   0.726619 0.562370 0.703921 -0.177559
C66   C     C_R   0.273381 0.562365 0.296089 -0.177565
C67   C     C_R   0.226620 0.062339 0.703867 -0.177502
C68   C     C_R   0.773379 0.062343 0.296126 -0.177493
C69   C     C_R   0.772819 0.563182 0.658427 -0.194974
C70   C     C_R   0.227180 0.563177 0.341584 -0.195012
C71   C     C_R   0.272821 0.063151 0.658372 -0.194903
C72   C     C_R   0.727179 0.063155 0.341620 -0.194880
C73   C     C_R   0.796179 0.531431 0.669359 0.114269
C74   C     C_R   0.203821 0.531427 0.330648 0.114221
C75   C     C_R   0.296181 0.031414 0.669331 0.114175
C76   C     C_R   0.703819 0.031417 0.330663 0.114215
C77   C     C_R   0.773064 0.498303 0.726223 0.087528
C78   C     C_R   0.226936 0.498301 0.273780 0.087538
C79   C     C_R   0.273065 0.998300 0.726222 0.087517
C80   C     C_R   0.726935 0.998302 0.273775 0.087511
C81   C     C_R   0.796535 0.466201 0.737217 0.120990
C82   C     C_R   0.203465 0.466201 0.262783 0.121065
C83   C     C_R   0.296536 0.966213 0.737243 0.121088
C84   C     C_R   0.703464 0.966214 0.262755 0.121028
C85   C     C_R   0.773605 0.434328 0.794982 -0.191252
C86   C     C_R   0.226395 0.434329 0.205016 -0.191351
C87   C     C_R   0.273606 0.934353 0.795031 -0.191098
C88   C     C_R   0.726394 0.934353 0.204968 -0.191016
C89   C     C_R   0.727407 0.433797 0.841655 -0.191534
C90   C     C_R   0.272593 0.433798 0.158342 -0.191575
C91   C     C_R   0.227408 0.933822 0.841703 -0.191542
C92   C     C_R   0.772592 0.933821 0.158296 -0.191505
C93   C     C_R   0.842355 0.532192 0.624382 -0.215764
C94   C     C_R   0.157645 0.532190 0.375624 -0.215350
C95   C     C_R   0.342356 0.032178 0.624356 -0.214373
C96   C     C_R   0.657644 0.032180 0.375640 -0.214701
C97   C     C_R   0.865326 0.499785 0.634792 -0.035923
C98   C     C_R   0.134674 0.499785 0.365209 -0.035829
C99   C     C_R   0.365327 0.999785 0.634795 -0.035223
C100  C     C_R   0.634673 0.999786 0.365204 -0.035290
C101  C     C_R   0.842683 0.466847 0.690651 -0.216218
C102  C     C_R   0.157316 0.466847 0.309349 -0.216659
C103  C     C_R   0.342685 0.966860 0.690678 -0.216082
C104  C     C_R   0.657315 0.966860 0.309322 -0.215735
H33   H     H_    0.639221 0.554898 0.799796 0.167700
H34   H     H_    0.360779 0.554894 0.200211 0.167696
H35   H     H_    0.139223 0.054872 0.799750 0.167721
H36   H     H_    0.860777 0.054874 0.200246 0.167724
H37   H     H_    0.709003 0.587317 0.694975 0.154767
H38   H     H_    0.290997 0.587311 0.305038 0.154743
H39   H     H_    0.209005 0.087275 0.694900 0.154720
H40   H     H_    0.790996 0.087280 0.305092 0.154738
H41   H     H_    0.790270 0.588651 0.614869 0.160815
H42   H     H_    0.209730 0.588645 0.385144 0.160752
H43   H     H_    0.290272 0.088610 0.614794 0.160626
H44   H     H_    0.709728 0.088615 0.385197 0.160670
H45   H     H_    0.860485 0.557370 0.580380 0.157301
H46   H     H_    0.139515 0.557366 0.419629 0.157263
H47   H     H_    0.360486 0.057344 0.580333 0.157155
H48   H     H_    0.639513 0.057348 0.419662 0.157177
H49   H     H_    0.861057 0.442225 0.698538 0.151702
H50   H     H_    0.138943 0.442226 0.301458 0.151667
H51   H     H_    0.361058 0.942249 0.698585 0.151575
H52   H     H_    0.638942 0.942248 0.301415 0.151604
H53   H     H_    0.791431 0.410042 0.804628 0.153199
H54   H     H_    0.208568 0.410044 0.195367 0.153185
H55   H     H_    0.291432 0.910079 0.804698 0.153161
H56   H     H_    0.708568 0.910078 0.195303 0.153178
H57   H     H_    0.711203 0.409467 0.887201 0.166011
H58   H     H_    0.288797 0.409469 0.112793 0.166000
H59   H     H_    0.211203 0.909503 0.887268 0.165998
H60   H     H_    0.788797 0.909501 0.112733 0.166011
O17   O     O_R   0.962660 0.566020 0.037320 -0.603872
O18   O     O_R   0.037340 0.566020 0.962680 -0.604252
O19   O     O_R   0.462660 0.066020 0.037320 -0.604039
O20   O     O_R   0.537340 0.066020 0.962680 -0.603767
C105  C     C_R   1.000000 0.586703 0.999995 0.991766
C106  C     C_R   0.500000 0.086701 0.000003 0.991671
O21   O     O_R   0.962680 0.499950 0.129900 -0.611057
O22   O     O_R   0.037320 0.499950 0.870100 -0.611366
O23   O     O_R   0.462680 0.999950 0.129900 -0.612057
O24   O     O_R   0.537320 0.999950 0.870100 -0.611835
O25   O     O_R   0.037280 0.499990 0.055330 -0.631141
O26   O     O_R   0.962720 0.499990 0.944670 -0.630981
O27   O     O_R   0.537280 0.999990 0.055330 -0.630617
O28   O     O_R   0.462720 0.999990 0.944670 -0.630731
C107  C     C_R   0.999790 0.498277 0.121373 0.915390
C108  C     C_R   0.000211 0.498300 0.878624 0.915580
C109  C     C_R   0.499788 0.998349 0.121380 0.915883
C110  C     C_R   0.500211 0.998332 0.878621 0.915758
Zn5   Zn    Zn3+2 0.950160 0.499940 0.049810 1.016683
Zn6   Zn    Zn3+2 0.049840 0.499940 0.950190 1.016184
Zn7   Zn    Zn3+2 0.450160 0.999940 0.049810 1.016397
Zn8   Zn    Zn3+2 0.549840 0.999940 0.950190 1.016760
O29   O     O_R   0.962680 0.433880 0.037290 -0.628185
O30   O     O_R   0.037320 0.433880 0.962710 -0.628150
O31   O     O_R   0.462680 0.933880 0.037290 -0.628061
O32   O     O_R   0.537320 0.933880 0.962710 -0.628087
C111  C     C_R   0.000000 0.413236 1.000000 0.862961
C112  C     C_R   0.500000 0.913236 0.000000 0.863101
O33   O     O_R   0.499930 0.433870 0.947760 -0.609077
O34   O     O_R   0.500070 0.433870 0.052240 -0.609075
O35   O     O_R   0.999930 0.933870 0.947760 -0.609014
O36   O     O_R   0.000070 0.933870 0.052240 -0.609015
C113  C     C_R   0.500000 0.413305 0.000000 0.911094
C114  C     C_R   0.000000 0.913307 0.999999 0.910979
O37   O     O_R   0.566010 0.499970 0.881660 -0.638271
O38   O     O_R   0.433990 0.499970 0.118340 -0.638273
O39   O     O_R   0.066010 0.999970 0.881660 -0.638268
O40   O     O_R   0.933990 0.999970 0.118340 -0.638267
O41   O     O_R   0.566080 0.499950 0.986150 -0.578345
O42   O     O_R   0.433920 0.499950 0.013850 -0.578354
O43   O     O_R   0.066080 0.999950 0.986150 -0.578303
O44   O     O_R   0.933920 0.999950 0.013850 -0.578296
C115  C     C_R   0.586599 0.499603 0.913154 0.945424
C116  C     C_R   0.413401 0.499603 0.086846 0.945419
C117  C     C_R   0.086600 0.999602 0.913154 0.945344
C118  C     C_R   0.913401 0.999602 0.086846 0.945352
Zn9   Zn    Zn3+2 0.499930 0.499950 0.930250 1.009759
Zn10  Zn    Zn3+2 0.500070 0.499950 0.069750 1.009764
Zn11  Zn    Zn3+2 0.999930 0.999950 0.930250 1.009924
Zn12  Zn    Zn3+2 0.000070 0.999950 0.069750 1.009925
O45   O     O_R   0.499950 0.566010 0.947790 -0.628251
O46   O     O_R   0.500050 0.566010 0.052210 -0.628255
O47   O     O_R   0.999950 0.066010 0.947790 -0.628235
O48   O     O_R   0.000050 0.066010 0.052210 -0.628232
C119  C     C_R   0.500000 0.586661 0.000000 0.863535
C120  C     C_R   1.000000 0.086661 0.000000 0.863518
C121  C     C_R   0.530177 0.342861 0.932018 -0.203665
C122  C     C_R   0.469822 0.342862 0.067985 -0.203671
C123  C     C_R   0.030273 0.842868 0.932068 -0.203647
C124  C     C_R   0.969725 0.842868 0.067925 -0.203637
C125  C     C_R   0.499999 0.365571 0.000001 -0.054576
C126  C     C_R   0.000000 0.865575 0.999998 -0.054472
C127  C     C_R   0.469095 0.296645 0.068219 0.092640
C128  C     C_R   0.530907 0.296644 0.931788 0.092644
C129  C     C_R   0.968996 0.796651 0.068149 0.092668
C130  C     C_R   0.030999 0.796651 0.931838 0.092664
C131  C     C_R   0.500002 0.273348 0.000004 0.063652
C132  C     C_R   0.999996 0.773354 0.999992 0.063651
C133  C     C_R   0.437920 0.273583 0.135433 -0.320860
C134  C     C_R   0.562083 0.273581 0.864576 -0.320852
C135  C     C_R   0.937727 0.773589 0.135295 -0.320806
C136  C     C_R   0.062265 0.773590 0.864689 -0.320819
C137  C     C_R   0.936621 0.726956 0.135719 0.470165
C138  C     C_R   0.063369 0.726957 0.864261 0.470119
C139  C     C_R   0.436812 0.226951 0.135866 0.470123
C140  C     C_R   0.563193 0.226949 0.864145 0.470157
C141  C     C_R   0.967872 0.703661 0.067890 0.080114
C142  C     C_R   0.032117 0.703660 0.932089 0.080209
C143  C     C_R   0.467970 0.203654 0.067975 0.080275
C144  C     C_R   0.532036 0.203654 0.932038 0.080202
C145  C     C_R   0.999995 0.726905 0.999990 -0.100090
C146  C     C_R   0.500003 0.226899 0.000006 -0.100076
C147  C     C_R   0.967777 0.657364 0.066469 -0.090148
C148  C     C_R   0.032215 0.657364 0.933509 -0.090697
C149  C     C_R   0.467866 0.157358 0.066556 -0.091004
C150  C     C_R   0.532139 0.157358 0.933458 -0.090594
C151  C     C_R   0.999997 0.634616 0.999990 -0.119510
C152  C     C_R   0.500002 0.134611 0.000006 -0.119248
H61   H     H_    0.553574 0.361276 0.879959 0.151064
H62   H     H_    0.446425 0.361278 0.120043 0.151063
H63   H     H_    0.053743 0.861286 0.880057 0.150987
H64   H     H_    0.946257 0.861285 0.119937 0.150991
H65   H     H_    0.414287 0.291872 0.187424 0.151890
H66   H     H_    0.585716 0.291869 0.812583 0.151895
H67   H     H_    0.914021 0.791877 0.187240 0.151920
H68   H     H_    0.085972 0.791878 0.812746 0.151910
H69   H     H_    0.943322 0.638698 0.117336 0.229421
H70   H     H_    0.056671 0.638697 0.882645 0.229287
H71   H     H_    0.443468 0.138690 0.117466 0.229042
H72   H     H_    0.556536 0.138690 0.882547 0.229150
C153  C     C_R   0.526644 0.657326 0.015666 -0.247957
C154  C     C_R   0.473355 0.657325 0.984336 -0.247957
C155  C     C_R   0.026645 0.157326 0.015664 -0.247892
C156  C     C_R   0.973354 0.157325 0.984339 -0.247897
C157  C     C_R   0.500000 0.634536 0.000001 -0.054947
C158  C     C_R   1.000000 0.134536 0.000001 -0.054958
C159  C     C_R   0.472637 0.703538 0.985348 0.116853
C160  C     C_R   0.527362 0.703538 0.014654 0.116852
C161  C     C_R   0.972636 0.203538 0.985351 0.116828
C162  C     C_R   0.027363 0.203538 0.014651 0.116821
C163  C     C_R   0.500000 0.726772 0.000001 0.060636
C164  C     C_R   0.999999 0.226772 0.000001 0.060650
C165  C     C_R   0.445021 0.726852 0.972188 -0.202265
C166  C     C_R   0.554979 0.726853 0.027813 -0.202261
C167  C     C_R   0.945018 0.226852 0.972194 -0.202186
C168  C     C_R   0.054981 0.226853 0.027808 -0.202179
C169  C     C_R   0.944344 0.273163 0.973750 -0.198944
C170  C     C_R   0.055656 0.273164 0.026252 -0.198881
C171  C     C_R   0.444346 0.773164 0.973744 -0.199069
C172  C     C_R   0.555653 0.773164 0.026258 -0.199110
C173  C     C_R   0.971713 0.296476 0.987475 0.120144
C174  C     C_R   0.028286 0.296476 0.012527 0.120136
C175  C     C_R   0.471714 0.796476 0.987471 0.120166
C176  C     C_R   0.528285 0.796477 0.012530 0.120170
C177  C     C_R   1.000000 0.273241 0.000001 0.059229
C178  C     C_R   0.500000 0.773241 0.000001 0.059254
C179  C     C_R   0.971450 0.342687 0.988737 -0.242837
C180  C     C_R   0.028550 0.342687 0.011264 -0.242767
C181  C     C_R   0.471451 0.842687 0.988734 -0.242916
C182  C     C_R   0.528549 0.842687 0.011267 -0.242964
C183  C     C_R   1.000000 0.365431 0.000000 -0.048107
C184  C     C_R   0.500000 0.865431 0.000000 -0.048105
H73   H     H_    0.547374 0.639008 0.027085 0.154920
H74   H     H_    0.452625 0.639008 0.972916 0.154913
H75   H     H_    0.047376 0.139008 0.027081 0.154938
H76   H     H_    0.952623 0.139007 0.972921 0.154944
H77   H     H_    0.423834 0.709276 0.961102 0.156073
H78   H     H_    0.576166 0.709278 0.038900 0.156083
H79   H     H_    0.923830 0.209276 0.961110 0.156129
H80   H     H_    0.076169 0.209277 0.038893 0.156125
H81   H     H_    0.922636 0.290740 0.963866 0.154499
H82   H     H_    0.077363 0.290742 0.036135 0.154512
H83   H     H_    0.422640 0.790741 0.963858 0.154452
H84   H     H_    0.577360 0.790742 0.036143 0.154447
H85   H     H_    0.949803 0.361048 0.979478 0.147278
H86   H     H_    0.050197 0.361048 0.020522 0.147282
H87   H     H_    0.449805 0.861048 0.979472 0.147260
H88   H     H_    0.550195 0.861049 0.020528 0.147259
N1    N     N_R   0.049247 0.570982 0.262285 0.207231
O49   O     O_R   0.046313 0.610839 0.288545 -0.310147
O50   O     O_R   0.088110 0.552066 0.221546 -0.439239
N2    N     N_R   0.950328 0.570701 0.738112 0.206877
O51   O     O_R   0.953022 0.610584 0.712124 -0.310380
O52   O     O_R   0.911580 0.551548 0.778704 -0.439403
N3    N     N_R   0.550565 0.070093 0.261045 0.206061
O53   O     O_R   0.548389 0.110026 0.286440 -0.311151
O54   O     O_R   0.589062 0.050438 0.220746 -0.439918
N4    N     N_R   0.449750 0.070309 0.738658 0.206341
O55   O     O_R   0.452109 0.110225 0.713054 -0.310949
O56   O     O_R   0.411163 0.050832 0.779062 -0.439789
O57   O     O_3   0.631191 0.432480 0.930847 -0.759459
H89   H     H_    0.646534 0.403517 0.911390 0.327877
O58   O     O_3   0.368809 0.432482 0.069147 -0.759470
H90   H     H_    0.353466 0.403519 0.088601 0.327877
O59   O     O_3   0.131192 0.932500 0.930892 -0.759437
H91   H     H_    0.146536 0.903537 0.911456 0.327849
O60   O     O_3   0.868808 0.932499 0.069110 -0.759426
H92   H     H_    0.853464 0.903535 0.088547 0.327853
O61   O     O_3   0.972515 0.577850 0.318131 -0.720196
H93   H     H_    0.968067 0.584594 0.367113 0.363091
O62   O     O_3   0.027023 0.578013 0.682337 -0.720304
H94   H     H_    0.031369 0.584896 0.633478 0.363503
O63   O     O_3   0.473951 0.078342 0.316705 -0.720630
H95   H     H_    0.469857 0.085553 0.365250 0.364468
O64   O     O_3   0.526394 0.078227 0.682956 -0.720511
H96   H     H_    0.530577 0.085324 0.634299 0.364129
O65   O     O_3   0.905680 0.703663 0.201500 -0.737267
H97   H     H_    0.886484 0.725028 0.243486 0.344059
O66   O     O_3   0.094309 0.703664 0.798479 -0.737490
H98   H     H_    0.113505 0.725029 0.756494 0.344021
O67   O     O_3   0.405961 0.203659 0.201715 -0.737678
H99   H     H_    0.386828 0.225023 0.243741 0.343977
O68   O     O_3   0.594044 0.203656 0.798297 -0.737508
H100  H     H_    0.613177 0.225019 0.756270 0.344003
N5    N     N_R   0.001488 0.583117 0.174694 0.237528
O69   O     O_R   0.029421 0.610284 0.120279 -0.376613
O70   O     O_R   0.959080 0.589833 0.210215 -0.348134
N6    N     N_R   0.998007 0.583124 0.825805 0.237528
O71   O     O_R   0.969916 0.610097 0.880443 -0.376186
O72   O     O_R   0.040376 0.590088 0.790324 -0.348548
N7    N     N_R   0.503024 0.083126 0.173189 0.237483
O73   O     O_R   0.531426 0.109707 0.118116 -0.375370
O74   O     O_R   0.460740 0.090604 0.208626 -0.349394
N8    N     N_R   0.497342 0.083126 0.826454 0.237485
O75   O     O_R   0.469051 0.109846 0.881376 -0.375692
O76   O     O_R   0.539657 0.090424 0.790996 -0.349103
N9    N     N_R   0.938049 0.443577 0.371543 0.232057
O77   O     O_R   0.953983 0.407079 0.331784 -0.391472
O78   O     O_R   0.905955 0.440868 0.444247 -0.384122
N10   N     N_R   0.062250 0.443948 0.628131 0.231879
O79   O     O_R   0.046543 0.407358 0.667680 -0.391377
O80   O     O_R   0.094337 0.441426 0.555398 -0.384437
N11   N     N_R   0.437134 0.944728 0.372543 0.231510
O81   O     O_R   0.452358 0.907951 0.333434 -0.391229
O82   O     O_R   0.405061 0.942599 0.445327 -0.385220
N12   N     N_R   0.562649 0.944451 0.627693 0.231647
O83   O     O_R   0.547254 0.907739 0.666958 -0.391291
O84   O     O_R   0.594727 0.942183 0.554927 -0.384980

loop_
_geom_bond_atom_site_label_1
_geom_bond_atom_site_label_2
_geom_bond_distance
_ccdc_geom_bond_type
C47   C51   1.392415 A    
C135  C137  1.402552 A    
C81   C85   1.396679 A    
O63   H95   0.988423 S    
C23   C27   1.564896 S    
C56   C68   1.400940 A    
O35   Zn11  2.022278 S    
C84   C88   1.396680 A    
C92   H60   1.080865 S    
N1    O49   1.302156 A    
C83   C87   1.396681 A    
C153  C160  1.389640 A    
C1    C97   1.440633 S    
O44   Zn11  2.019898 S    
C154  C159  1.389640 A    
C137  C141  1.409287 A    
C113  C125  1.435220 S    
C139  C143  1.409293 A    
C43   C47   1.402388 A    
C96   C100  1.396531 A    
C130  C132  1.411275 A    
C101  H49   1.085144 S    
C48   C52   1.392414 A    
O23   C109  1.279501 A    
N6    O71   1.301159 A    
C11   C27   1.605799 S    
Zn11  O47   2.021878 S    
C72   H44   1.083763 S    
O40   Zn12  2.026277 S    
C100  C104  1.396617 A    
C99   C103  1.396618 A    
O4    C4    1.283340 A    
C140  C144  1.409293 A    
C123  C130  1.389804 A    
C17   C33   1.535947 S    
C54   C66   1.400939 A    
O27   Zn8   2.026795 S    
C78   C82   1.409946 A    
O21   Zn5   2.031905 S    
O42   C116  1.284352 A    
C37   H21   1.113025 S    
O48   C120  1.285317 A    
C122  C125  1.394406 A    
H9    C33   1.113225 S    
C19   H27   1.110262 S    
C9    N1    1.481865 S    
C74   C78   1.413423 A    
C102  H50   1.085141 S    
N4    O55   1.302133 A    
N12   O84   1.301346 A    
O16   Zn4   2.029663 S    
C46   C50   1.392413 A    
O13   C5    1.289581 A    
O7    Zn4   2.025082 S    
C159  C163  1.412114 A    
C29   C107  1.463427 S    
C20   C36   1.535931 S    
C15   N7    1.474346 S    
O62   H94   0.988517 S    
C169  C173  1.400731 A    
C32   C36   1.549436 S    
O22   Zn6   2.031911 S    
O9    C5    1.274794 A    
H11   C35   1.113236 S    
C77   C81   1.409948 A    
C90   H58   1.080864 S    
C129  C135  1.397841 A    
N9    O77   1.301636 A    
O8    Zn4   2.025080 S    
C121  C125  1.394403 A    
O42   Zn9   2.019898 S    
C14   N6    1.474297 S    
N11   O81   1.301606 A    
O41   Zn10  2.019902 S    
C66   H38   1.083838 S    
C154  C157  1.397062 A    
C105  C151  1.440590 S    
O3    Zn2   2.023785 S    
C106  C152  1.440497 S    
N2    O51   1.302176 A    
O11   Zn2   2.029232 S    
N10   O80   1.301356 A    
C6    C26   1.472963 S    
N7    O73   1.301117 A    
C16   C32   1.562853 S    
C67   C71   1.390736 A    
C170  C174  1.400733 A    
C74   C94   1.390189 A    
C44   O60   1.382189 S    
C18   C34   1.535924 S    
O67   H99   0.991748 S    
O17   Zn5   2.022109 S    
C30   C34   1.549598 S    
C139  O67   1.382587 S    
C88   H56   1.083963 S    
C89   H57   1.080864 S    
O22   C108  1.279536 A    
C75   C79   1.413425 A    
H10   C34   1.113226 S    
O3    C3    1.283340 A    
C73   C77   1.413424 A    
C164  C177  1.397179 A    
O64   H96   0.988458 S    
C37   H17   1.110311 S    
C149  H71   1.083861 S    
C51   C55   1.385376 A    
C150  H72   1.083861 S    
N8    O75   1.301129 A    
C39   H19   1.110309 S    
C30   C108  1.463457 S    
C16   N8    1.474325 S    
C124  C126  1.394370 A    
C161  C167  1.400840 A    
O59   H91   0.989359 S    
C9    C13   1.554510 S    
C4    C100  1.440618 S    
O60   H92   0.989361 S    
C39   H23   1.113012 S    
C14   C30   1.562784 S    
C12   O64   1.417924 S    
C82   C102  1.388879 A    
C7    C27   1.472905 S    
O43   Zn12  2.019902 S    
C12   C16   1.554551 S    
O36   C114  1.284987 A    
C23   N11   1.472304 S    
O41   C115  1.284349 A    
C30   C38   1.567233 S    
C153  C157  1.397060 A    
C138  O66   1.382580 S    
Zn10  O46   2.021884 S    
C17   C25   1.565283 S    
O20   C106  1.284263 A    
C66   C70   1.390736 A    
C97   C101  1.396624 A    
C20   C28   1.565534 S    
O5    Zn3   2.025082 S    
C21   H13   1.114146 S    
C136  C138  1.402555 A    
O28   C110  1.282495 A    
C24   H16   1.114163 S    
Zn7   O31   2.021623 S    
C58   C62   1.418677 A    
O33   Zn9   2.022278 S    
O8    C4    1.282459 A    
C23   C39   1.544434 S    
H8    C20   1.106895 S    
C22   C38   1.544376 S    
O29   C111  1.283198 A    
C138  C142  1.409286 A    
H12   C36   1.113232 S    
C33   H29   1.113072 S    
C47   C117  1.438337 S    
C176  C178  1.412290 A    
O25   C107  1.282485 A    
C130  C136  1.397842 A    
O23   Zn7   2.031905 S    
C124  C129  1.389802 A    
C10   C14   1.554518 S    
O13   Zn3   2.029673 S    
Zn6   O30   2.021625 S    
C20   H28   1.110278 S    
C87   H55   1.083967 S    
O35   C114  1.284980 A    
O44   C118  1.284353 A    
C156  C158  1.397060 A    
C95   C99   1.396532 A    
O5    C1    1.282461 A    
C31   C109  1.463473 S    
Zn8   O32   2.021625 S    
C71   C75   1.399076 A    
C15   C31   1.562896 S    
C80   C84   1.409949 A    
C123  C126  1.394373 A    
O19   Zn7   2.022109 S    
O15   Zn4   2.029673 S    
C171  H83   1.083720 S    
C133  H65   1.084239 S    
H6    C18   1.106932 S    
C59   C79   1.400367 A    
C42   O58   1.382190 S    
O32   C112  1.283192 A    
C57   C77   1.400363 A    
C168  H80   1.083708 S    
C31   C39   1.567330 S    
C41   C45   1.402379 A    
C60   C64   1.418678 A    
C11   N3    1.481967 S    
C3    C99   1.440618 S    
C53   C57   1.412409 A    
C129  C132  1.411280 A    
C144  C150  1.392363 A    
O39   Zn11  2.026273 S    
O14   C6    1.289590 A    
C55   C59   1.412409 A    
C44   C64   1.409619 A    
C40   H20   1.110317 S    
O37   Zn9   2.026273 S    
C50   H34   1.085509 S    
N11   O82   1.301344 A    
O17   C105  1.284280 A    
C127  C131  1.411277 A    
C32   C40   1.567296 S    
C69   H41   1.083762 S    
C5    C25   1.472980 S    
C180  C183  1.396503 A    
C175  C178  1.412291 A    
C10   N2    1.481892 S    
O10   C6    1.274779 A    
C154  H74   1.085038 S    
C73   C93   1.390188 A    
C173  C177  1.412292 A    
C44   C48   1.402385 A    
N6    O72   1.301516 A    
C170  H82   1.083723 S    
C68   H40   1.083837 S    
C172  C176  1.400731 A    
O40   C118  1.284825 A    
O47   C120  1.285319 A    
C124  H64   1.085233 S    
Zn9   O45   2.021878 S    
C10   O62   1.417877 S    
N5    O70   1.301500 A    
O2    C2    1.283350 A    
C123  H63   1.085233 S    
C29   C37   1.567160 S    
O36   Zn12  2.022274 S    
C160  C166  1.400836 A    
O34   Zn10  2.022274 S    
C40   H24   1.113014 S    
C142  C145  1.416717 A    
O61   H93   0.988502 S    
O20   Zn8   2.022109 S    
C19   C35   1.535934 S    
C70   H42   1.083764 S    
C38   H22   1.113014 S    
C161  C164  1.412114 A    
C179  C183  1.396504 A    
C54   C58   1.412411 A    
C36   H32   1.113080 S    
N4    O56   1.300893 A    
C163  C178  1.397179 A    
C42   C46   1.402380 A    
C182  C184  1.396504 A    
O24   C110  1.279512 A    
O31   C112  1.283196 A    
O38   C116  1.284820 A    
Zn12  O48   2.021884 S    
C121  H61   1.085236 S    
O19   C106  1.284275 A    
C147  C151  1.393970 A    
O66   H98   0.991761 S    
C175  C181  1.389586 A    
C13   C29   1.562699 S    
C9    O61   1.417835 S    
C72   C76   1.399078 A    
C49   H33   1.085507 S    
O28   Zn7   2.026796 S    
C53   C65   1.400941 A    
C172  H84   1.083720 S    
C55   C67   1.400942 A    
C168  C170  1.392699 A    
C93   H45   1.085031 S    
N1    O50   1.300904 A    
O12   Zn2   2.029235 S    
C153  H73   1.085035 S    
C174  C177  1.412287 A    
C169  H81   1.083722 S    
C18   C26   1.565408 S    
C155  H75   1.085042 S    
O1    C1    1.283348 A    
C156  H76   1.085040 S    
N2    O52   1.300911 A    
C86   C90   1.390322 A    
O58   H90   0.989358 S    
C21   C25   1.565194 S    
C76   C96   1.390186 A    
O25   Zn6   2.026795 S    
C22   H14   1.114156 S    
C173  C179  1.389586 A    
C32   C110  1.463470 S    
C13   H1    1.115314 S    
C56   C60   1.412407 A    
C148  H70   1.083864 S    
C91   H59   1.080865 S    
C15   H3    1.115337 S    
C141  C145  1.416709 A    
C133  C139  1.402554 A    
N3    O53   1.302116 A    
C119  C157  1.439432 S    
C134  C140  1.402550 A    
C165  C171  1.392701 A    
C155  C158  1.397060 A    
C41   C61   1.409618 A    
C156  C161  1.389640 A    
C60   C80   1.400367 A    
O26   Zn5   2.026796 S    
C176  C182  1.389590 A    
C11   O63   1.417941 S    
C45   C115  1.438321 S    
C140  O68   1.382587 S    
C9    C25   1.605941 S    
C11   C15   1.554563 S    
C12   C28   1.605835 S    
N8    O76   1.301485 A    
C62   C90   1.408743 A    
C52   C56   1.385379 A    
C103  H51   1.085138 S    
C85   C89   1.390322 A    
C104  H52   1.085144 S    
O45   C119  1.285320 A    
C88   C92   1.390325 A    
O6    C2    1.282459 A    
C165  H77   1.083706 S    
O46   C119  1.285319 A    
C94   C98   1.396537 A    
N12   O83   1.301620 A    
C181  H87   1.085165 S    
O18   C105  1.284302 A    
C48   C118  1.438340 S    
C2    C98   1.440631 S    
C134  H66   1.084241 S    
C111  C183  1.437346 S    
C43   O59   1.382189 S    
H7    C19   1.106880 S    
O30   C111  1.283193 A    
C29   C33   1.549694 S    
C58   C78   1.400366 A    
O2    Zn1   2.023782 S    
C31   C35   1.549349 S    
O10   Zn1   2.029235 S    
O43   C117  1.284353 A    
C179  H85   1.085163 S    
C24   C28   1.564967 S    
C35   H31   1.113067 S    
C144  C146  1.416724 A    
C38   H18   1.110342 S    
C149  C152  1.393939 A    
O39   C117  1.284832 A    
N9    O78   1.301350 A    
O37   C115  1.284828 A    
C93   C97   1.396535 A    
C137  O65   1.382579 S    
C143  C146  1.416729 A    
C24   C40   1.544414 S    
C121  C128  1.389807 A    
O15   C7    1.289601 A    
O68   H100  0.991753 S    
O26   C108  1.282493 A    
C12   N4    1.481939 S    
N10   O79   1.301649 A    
C42   C62   1.409617 A    
C182  H88   1.085165 S    
O7    C3    1.282459 A    
C21   N9    1.472315 S    
C81   C101  1.388879 A    
C114  C126  1.435133 S    
O21   C107  1.279562 A    
C141  C147  1.392358 A    
C79   C83   1.409949 A    
C142  C148  1.392368 A    
C84   C104  1.388879 A    
C128  C134  1.397856 A    
C147  H69   1.083868 S    
C83   C103  1.388879 A    
C65   C69   1.390736 A    
C69   C73   1.399077 A    
H5    C17   1.106930 S    
O16   C8    1.289596 A    
C43   C63   1.409618 A    
C24   N12   1.472309 S    
O27   C109  1.282495 A    
C13   N5    1.474281 S    
C128  C131  1.411278 A    
C57   C61   1.418679 A    
C71   H43   1.083763 S    
O11   C7    1.274763 A    
O12   C8    1.274768 A    
C64   C92   1.408742 A    
O1    Zn1   2.023785 S    
O9    Zn1   2.029232 S    
C34   H30   1.113108 S    
C87   C91   1.390322 A    
C76   C80   1.413424 A    
C95   H47   1.085029 S    
C46   C116  1.438325 S    
N7    O74   1.301473 A    
C49   C53   1.385376 A    
O24   Zn8   2.031911 S    
C63   C91   1.408740 A    
O4    Zn2   2.023782 S    
C180  H86   1.085164 S    
O38   Zn10  2.026277 S    
C17   H25   1.110287 S    
C16   H4    1.115332 S    
C122  H62   1.085234 S    
C41   O57   1.382188 S    
C67   H39   1.083831 S    
O33   C113  1.285009 A    
C181  C184  1.396502 A    
C171  C175  1.400727 A    
C65   H37   1.083833 S    
Zn5   O29   2.021623 S    
C174  C180  1.389590 A    
C23   H15   1.114166 S    
C70   C74   1.399077 A    
C162  C168  1.400835 A    
O6    Zn3   2.025080 S    
C148  C151  1.393969 A    
C143  C149  1.392374 A    
C8    C28   1.472925 S    
C52   H36   1.085511 S    
O18   Zn6   2.022109 S    
C166  C172  1.392699 A    
C167  C169  1.392698 A    
C131  C146  1.396557 A    
C127  C133  1.397856 A    
N3    O54   1.300882 A    
C94   H46   1.085027 S    
C112  C184  1.437346 S    
C19   C27   1.565603 S    
C86   H54   1.083967 S    
C166  H78   1.083707 S    
N5    O69   1.301124 A    
C22   C26   1.565114 S    
C135  H67   1.084234 S    
C14   H2    1.115320 S    
C136  H68   1.084234 S    
C160  C163  1.412121 A    
C21   C37   1.544376 S    
O14   Zn3   2.029663 S    
O34   C113  1.285005 A    
C82   C86   1.396680 A    
C120  C158  1.439432 S    
O65   H97   0.991758 S    
C122  C127  1.389805 A    
C155  C162  1.389640 A    
C162  C164  1.412118 A    
C51   H35   1.085508 S    
C10   C26   1.605917 S    
C96   H48   1.085029 S    
C50   C54   1.385376 A    
C150  C152  1.393945 A    
C61   C89   1.408742 A    
C159  C165  1.400840 A    
C18   H26   1.110301 S    
C132  C145  1.396563 A    
C85   H53   1.083966 S    
C167  H79   1.083704 S    
C98   C102  1.396622 A    
C59   C63   1.418676 A    
O57   H89   0.989360 S    
C22   N10   1.472314 S    
C45   C49   1.392412 A    
C68   C72   1.390734 A    
C75   C95   1.390183 A    
