data_mof_unit_60153.cif
_audit_creation_date              2012-12-10T17:57:00-0500
_audit_creation_method            fapswitch 2.2
_symmetry_space_group_name_H-M    P1
_symmetry_Int_Tables_number       1
_space_group_crystal_system       triclinic
_cell_length_a                    18.60621
_cell_length_b                    18.657262
_cell_length_c                    18.689425
_cell_angle_alpha                 109.265805
_cell_angle_beta                  109.42259
_cell_angle_gamma                 109.241472
_cell_volume                      5023.94772674

loop_
_atom_site_label
_atom_site_type_symbol
_atom_type_description
_atom_site_fract_x
_atom_site_fract_y
_atom_site_fract_z
_atom_type_partial_charge
C1    C     C_R   0.379896 0.379926 0.500255 0.857887
C2    C     C_R   0.314002 0.314016 0.500654 -0.004171
C3    C     C_R   0.319794 0.579479 0.320255 -0.185074
C4    C     C_R   0.619091 0.498162 0.620603 0.828952
C5    C     C_R   0.256341 0.579379 0.255220 -0.192168
C6    C     C_R   0.184618 0.499860 0.184736 -0.009982
C7    C     C_R   0.176551 0.420431 0.178018 -0.163482
C8    C     C_R   0.241416 0.420516 0.241645 -0.184296
C9    C     C_R   0.312419 0.500042 0.312842 -0.013153
C10   C     C_R   0.757748 0.757020 0.579407 -0.186796
C11   C     C_R   0.822293 0.820471 0.579390 -0.199495
C12   C     C_3   0.808775 0.501724 0.810445 0.183116
C13   C     C_R   0.813919 0.813336 0.499906 -0.016024
C14   C     C_R   0.742686 0.742488 0.420419 -0.158908
C15   C     C_R   0.679499 0.677682 0.420437 -0.202166
C16   C     C_R   0.620415 0.620061 0.500004 0.864061
C17   C     C_R   0.686890 0.685802 0.499933 -0.009614
C18   C     C_R   0.999378 0.380012 0.878861 0.966253
C19   C     C_R   0.876646 0.501947 0.878352 0.828929
C20   C     C_R   0.996676 0.620398 0.117328 0.923786
C21   C     C_R   0.118203 0.499817 0.118138 0.887990
C22   C     C_R   0.000726 0.880021 0.380834 1.024728
C23   C     C_3   0.847107 0.583819 0.801139 -0.375669
C24   C     C_R   0.120168 0.119532 0.499260 0.870498
C25   C     C_R   0.999981 0.120941 0.619337 0.905362
C26   C     C_R   0.879869 0.879671 0.499917 0.881214
C27   C     C_R   0.082718 0.323017 0.824089 0.386267
C28   C     C_R   0.379061 0.500063 0.379200 0.861393
C29   C     C_R   0.083522 0.261054 0.757543 0.375797
C30   C     C_R   0.002742 0.190823 0.684673 -0.196193
C31   C     C_R   0.923209 0.185625 0.674961 -0.246753
C32   C     C_R   0.922692 0.247814 0.739557 -0.273953
C33   C     C_R   0.001690 0.315193 0.813766 -0.182389
C34   C     C_3   0.735404 0.500605 0.832893 -0.396074
C35   C     C_R   0.045313 0.774531 0.208614 -0.304845
C36   C     C_R   0.045169 0.839033 0.272531 0.407194
C37   C     C_R   0.001208 0.814511 0.315482 -0.210027
C38   C     C_R   0.955485 0.727628 0.294582 0.399502
C39   C     C_R   0.951664 0.663345 0.226811 -0.294904
C40   C     C_3   0.698758 0.417923 0.650094 -0.373398
C41   C     C_R   0.997522 0.686945 0.184936 -0.148692
C42   C     C_3   0.769287 0.418930 0.722884 -0.419228
C43   C     C_3   0.774359 0.582743 0.730479 -0.417804
C44   C     C_3   0.662050 0.496052 0.759389 -0.400030
C45   C     C_R   0.240193 0.320242 0.496755 -0.190166
C46   C     C_3   0.686951 0.498306 0.688449 0.180932
C47   C     C_3   0.214162 0.450622 0.897290 0.144797
C48   C     C_3   0.269620 0.533911 0.985360 -0.809047
C49   C     C_3   0.184265 0.296750 0.713409 0.089522
C50   C     C_3   0.275270 0.311446 0.731001 -0.786889
C51   C     C_3   0.063609 0.942313 0.228960 0.095262
C52   C     C_3   0.098226 0.039837 0.264222 -0.798892
C53   C     C_3   0.943272 0.669597 0.383135 0.099375
C54   C     C_3   0.904967 0.664638 0.442811 -0.805057
C55   C     C_R   0.175275 0.255056 0.494633 -0.219084
C56   C     C_R   0.186266 0.185872 0.499336 -0.011802
C57   C     C_R   0.260838 0.180496 0.504730 -0.163802
C58   C     C_R   0.324404 0.244201 0.503997 -0.209684
H1    H     H_    0.718609 0.418919 0.600262 0.182292
H2    H     H_    0.262281 0.640891 0.260415 0.144322
H3    H     H_    0.121087 0.358864 0.123075 0.147899
H4    H     H_    0.635770 0.356376 0.617486 0.163851
H5    H     H_    0.235723 0.359004 0.236215 0.144247
H6    H     H_    0.763459 0.762666 0.640901 0.138758
H7    H     H_    0.877684 0.875618 0.640876 0.146424
H8    H     H_    0.736973 0.736867 0.358937 0.162814
H9    H     H_    0.624318 0.622326 0.358956 0.148136
H10   H     H_    0.861415 0.132101 0.618391 0.178045
H11   H     H_    0.860763 0.243424 0.731901 0.170035
H12   H     H_    0.762846 0.560405 0.895475 0.156192
H13   H     H_    0.082531 0.792768 0.177644 0.171056
H14   H     H_    0.739733 0.359256 0.727467 0.174744
H15   H     H_    0.913316 0.595468 0.207294 0.173829
H16   H     H_    0.821464 0.417548 0.706741 0.157620
H17   H     H_    0.792179 0.586523 0.680028 0.158215
H18   H     H_    0.898638 0.585270 0.783011 0.181925
H19   H     H_    0.651866 0.552057 0.787588 0.185732
H20   H     H_    0.599582 0.435043 0.730096 0.155623
H21   H     H_    0.707113 0.443267 0.841223 0.186862
H22   H     H_    0.177859 0.465222 0.848172 0.102680
H23   H     H_    0.768028 0.641212 0.760114 0.174882
H24   H     H_    0.259754 0.432374 0.880619 0.177766
H25   H     H_    0.227481 0.558058 0.002734 0.277238
H26   H     H_    0.304989 0.521454 0.036643 0.262802
H27   H     H_    0.318268 0.585051 0.982338 0.187562
H28   H     H_    0.184427 0.359500 0.726323 0.088789
H29   H     H_    0.137409 0.248776 0.643321 0.128883
H30   H     H_    0.276123 0.248988 0.715054 0.268838
H31   H     H_    0.293700 0.336882 0.690120 0.213908
H32   H     H_    0.324095 0.359567 0.800730 0.239265
H33   H     H_    0.990600 0.908789 0.191349 0.137571
H34   H     H_    0.877983 0.644256 0.864345 0.162380
H35   H     H_    0.088774 0.920384 0.184564 0.139065
H36   H     H_    0.170920 0.075715 0.302903 0.263641
H37   H     H_    0.077587 0.053162 0.209277 0.199315
H38   H     H_    0.071648 0.063434 0.306331 0.264331
H39   H     H_    0.016001 0.710150 0.424619 0.140743
H40   H     H_    0.925391 0.602214 0.338325 0.139367
H41   H     H_    0.832326 0.625764 0.403914 0.262894
H42   H     H_    0.929548 0.633084 0.478446 0.198419
H43   H     H_    0.924841 0.731307 0.491017 0.263418
H44   H     H_    0.232366 0.374421 0.493807 0.141567
H45   H     H_    0.117592 0.259284 0.491074 0.140817
H46   H     H_    0.268876 0.126485 0.507916 0.160053
H47   H     H_    0.381984 0.239893 0.507240 0.139390
H48   H     H_    0.375147 0.641043 0.375314 0.143982
O1    O     O_R   0.408680 0.356690 0.448540 -0.622671
O2    O     O_R   0.052580 0.908350 0.460820 -0.626609
O3    O     O_R   0.039640 0.091520 0.447910 -0.634449
O4    O     O_R   0.408060 0.460070 0.551440 -0.624985
O5    O     O_R   0.143620 0.091540 0.551930 -0.624912
O6    O     O_R   0.947420 0.091470 0.539000 -0.641229
O7    O     O_R   0.051410 0.091490 0.643030 -0.576413
O8    O     O_R   0.856380 0.908290 0.447890 -0.625196
O9    O     O_R   0.960370 0.908300 0.551910 -0.632989
O10   O     O_R   0.592410 0.448290 0.540650 -0.632794
O11   O     O_R   0.591790 0.551670 0.643550 -0.631828
O12   O     O_R   0.049540 0.460010 0.906120 -0.618601
O13   O     O_R   0.591940 0.539930 0.448560 -0.620644
O14   O     O_R   0.591320 0.643310 0.551460 -0.622699
O15   O     O_R   0.408210 0.448330 0.356450 -0.618521
O16   O     O_R   0.407590 0.551710 0.459350 -0.623057
O17   O     O_R   0.946090 0.356640 0.906180 -0.626208
O18   O     O_3   0.158220 0.383628 0.904099 -0.592001
O19   O     O_3   0.162454 0.266077 0.767283 -0.580562
O20   O     O_3   0.093439 0.926804 0.299432 -0.617773
O21   O     O_3   0.908460 0.706364 0.335474 -0.618935
O22   O     O_R   0.853500 0.448290 0.905220 -0.632780
O23   O     O_R   0.956960 0.551660 0.905160 -0.637831
O24   O     O_R   0.945110 0.539900 0.088450 -0.629344
O25   O     O_R   0.048570 0.643270 0.088390 -0.633048
O26   O     O_R   0.037700 0.448250 0.089410 -0.626937
O27   O     O_R   0.141150 0.551620 0.089350 -0.629061
O28   O     O_R   0.948590 0.908340 0.356800 -0.623670
Zn1   Zn    Zn3+2 0.500420 0.430970 0.431290 0.946309
Zn2   Zn    Zn3+2 0.499580 0.569030 0.568710 0.938340
Zn3   Zn    Zn3+2 0.928250 0.430930 0.997320 0.941375
Zn4   Zn    Zn3+2 0.066410 0.568980 0.997240 0.921950
Zn5   Zn    Zn3+2 0.930570 0.999900 0.430450 0.948668
Zn6   Zn    Zn3+2 0.069430 0.999920 0.569370 0.977808

loop_
_geom_bond_atom_site_label_1
_geom_bond_atom_site_label_2
_ccdc_geom_bond_type
C19   O23   A    
C55   C56   A    
C13   C26   S    
C29   O19   S    
C27   C29   A    
C11   C13   A    
C49   H29   S    
C54   H43   S    
O4    Zn2   S    
C35   C36   A    
C23   H18   S    
C38   O21   S    
C47   O18   S    
C23   C43   S    
C7    C8    A    
C39   C41   A    
O10   Zn1   S    
C4    C46   S    
C53   C54   S    
C27   C33   A    
C40   C46   S    
C12   C23   S    
C29   C30   A    
C22   O28   A    
C36   C37   A    
C16   O14   A    
C30   C31   A    
C34   H21   S    
C28   O16   A    
C10   C17   A    
C55   H45   S    
C19   O22   A    
C40   H4    S    
C56   C57   A    
C52   H37   S    
C1    C2    S    
C47   H24   S    
C26   O9    A    
C7    H3    S    
O1    Zn1   S    
C53   O21   S    
C25   O6    A    
C51   H33   S    
C50   H32   S    
O23   Zn4   S    
C47   C48   S    
C8    C9    A    
C12   C42   S    
C52   H36   S    
C34   H12   S    
C23   H34   S    
C50   H30   S    
C18   O17   A    
C40   C42   S    
C35   H13   S    
O27   Zn4   S    
C2    C45   A    
C40   H1    S    
C13   C14   A    
O6    Zn5   S    
C54   H42   S    
C24   O5    A    
C47   H22   S    
C35   C41   A    
C21   O27   A    
C43   C46   S    
C44   C46   S    
O5    Zn6   S    
C20   C41   S    
C3    H48   S    
C43   H17   S    
C31   H10   S    
C10   H6    S    
C42   H16   S    
C51   C52   S    
C34   C44   S    
C10   C11   A    
C16   O13   A    
O28   Zn5   S    
O2    Zn6   S    
C28   O15   A    
C16   C17   S    
C53   H39   S    
O26   Zn3   S    
C6    C21   S    
O13   Zn1   S    
C48   H26   S    
O14   Zn2   S    
C38   C39   A    
O22   Zn3   S    
C26   O8    A    
C21   O26   A    
C37   C38   A    
C3    C9    A    
C25   O7    A    
C1    O4    A    
C50   H31   S    
C31   C32   A    
C15   H9    S    
C42   H14   S    
C14   H8    S    
O7    Zn6   S    
O8    Zn5   S    
O15   Zn1   S    
O16   Zn2   S    
C6    C7    A    
C51   H35   S    
C1    O1    A    
C43   H23   S    
C4    O11   A    
C20   O25   A    
C12   C34   S    
C25   C30   S    
C15   C17   A    
C57   H46   S    
C18   O12   A    
C44   H19   S    
C5    H2    S    
C14   C15   A    
C51   O20   S    
C49   H28   S    
C4    O10   A    
C36   O20   S    
C24   O3    A    
C20   O24   A    
C3    C5    A    
C27   O18   S    
C2    C58   A    
C32   H11   S    
C53   H40   S    
C24   C56   S    
C49   O19   S    
O17   Zn3   S    
C48   H25   S    
O3    Zn5   S    
C58   H47   S    
C32   C33   A    
C44   H20   S    
O25   Zn4   S    
C22   C37   S    
C57   C58   A    
C5    C6    A    
C22   O2    A    
C12   C19   S    
C52   H38   S    
C39   H15   S    
C54   H41   S    
C18   C33   S    
C45   H44   S    
O24   Zn3   S    
C8    H5    S    
O9    Zn6   S    
C45   C55   A    
C49   C50   S    
C48   H27   S    
O12   Zn4   S    
O11   Zn2   S    
C11   H7    S    
C9    C28   S    
