data_mof_unit_11461.cif
_audit_creation_date              2013-03-05T16:44:38-0500
_audit_creation_method            fapswitch 2.2
_symmetry_space_group_name_H-M    P1
_symmetry_Int_Tables_number       1
_space_group_crystal_system       triclinic
_cell_length_a                    27.666281
_cell_length_b                    10.655434
_cell_length_c                    9.883704
_cell_angle_alpha                 89.38433
_cell_angle_beta                  89.710507
_cell_angle_gamma                 90.639777
_cell_volume                      2913.2898612

loop_
_atom_site_label
_atom_site_type_symbol
_atom_site_description
_atom_site_fract_x
_atom_site_fract_y
_atom_site_fract_z
_atom_type_partial_charge
O1    O     O_R   0.500010 0.316790 0.614690 -0.582397
O2    O     O_R   0.500000 0.316760 0.385350 -0.629888
C1    C     C_R   0.502930 0.260596 0.500645 0.906004
O3    O     O_R   0.428760 0.500040 0.614660 -0.611679
O4    O     O_R   0.428750 0.500000 0.385310 -0.635468
C2    C     C_R   0.406041 0.499519 0.500211 0.915354
Zn1   Zn    Zn3+2 0.500000 0.500020 0.653130 1.008498
Zn2   Zn    Zn3+2 0.500000 0.499980 0.346870 0.965351
O5    O     O_R   0.500000 0.683240 0.614650 -0.591685
O6    O     O_R   0.499990 0.683210 0.385310 -0.645848
O7    O     O_R   0.571250 0.500000 0.614690 -0.584196
O8    O     O_R   0.571240 0.499960 0.385340 -0.617579
C3    C     C_R   0.500706 0.739860 0.499546 0.933155
C4    C     C_R   0.593893 0.497966 0.499931 0.989876
C5    C     C_R   0.177197 0.384232 0.463468 0.557786
O9    O     O_2   0.203002 0.285159 0.421318 -0.515658
N1    N     N_R   0.200980 0.490511 0.501899 -0.349371
C6    C     C_R   0.177300 0.595213 0.542092 0.555672
C7    C     C_R   0.277371 0.531023 0.383635 0.517498
C8    C     C_R   0.327986 0.533422 0.384058 -0.338411
C9    C     C_R   0.327985 0.457978 0.616672 -0.177470
C10   C     C_R   0.277785 0.455178 0.617756 0.060251
C11   C     C_R   0.252532 0.492038 0.500969 0.234691
C12   C     C_R   0.101125 0.482088 0.520972 -0.140247
C13   C     C_R   0.126458 0.377829 0.470013 -0.026839
C14   C     C_R   0.100254 0.272709 0.423977 0.128728
C15   C     C_R   0.126581 0.594410 0.551025 -0.022394
C16   C     C_R   0.353289 0.497342 0.500461 -0.122785
H1    H     H_    0.347092 0.427769 0.706250 0.174961
C17   C     C_R   0.646535 0.487858 0.501479 -0.177034
C18   C     C_R   0.973859 0.355793 0.525758 0.096257
C19   C     C_R   0.974370 0.573164 0.608838 -0.158022
C20   C     C_R   0.948823 0.465710 0.564214 0.005874
C21   C     C_R   0.946519 0.242623 0.511434 0.064322
C22   C     C_R   0.896384 0.247464 0.500469 -0.167526
C23   C     C_R   0.872061 0.360070 0.518166 -0.013427
C24   C     C_R   0.897742 0.467797 0.559058 -0.107118
C25   C     C_R   0.872363 0.577496 0.593747 -0.237451
C26   C     C_R   0.821680 0.577081 0.579643 0.641087
N2    N     N_R   0.798278 0.473760 0.530519 -0.314312
C27   C     C_R   0.822051 0.365757 0.502106 0.562761
C28   C     C_R   0.718517 0.409789 0.609965 -0.299938
C29   C     C_R   0.668240 0.412659 0.601881 0.367004
C30   C     C_R   0.675001 0.556272 0.407032 0.234990
C31   C     C_R   0.725977 0.546235 0.411893 0.399980
C32   C     C_R   0.746972 0.476549 0.516863 0.190755
O10   O     O_2   0.797224 0.264441 0.458081 -0.537895
C33   C     C_R   0.024723 0.363425 0.505572 0.044590
C34   C     C_R   0.050230 0.474790 0.539663 0.085642
C35   C     C_R   0.025044 0.580631 0.587504 0.057533
C36   C     C_R   0.050207 0.268645 0.438314 -0.246114
H2    H     H_    0.735900 0.355269 0.688666 0.179081
H3    H     H_    0.876455 0.161054 0.482819 0.195493
H4    H     H_    0.031961 0.192550 0.388331 0.172281
O11   O     O_2   0.203203 0.698434 0.574941 -0.518189
C37   C     C_R   0.100510 0.702442 0.585347 0.137654
H5    H     H_    0.347476 0.564651 0.294349 0.158589
C38   C     C_R   0.947672 0.670270 0.671817 0.382360
C39   C     C_R   0.898115 0.679330 0.650420 0.459483
O12   O     O_2   0.795513 0.677179 0.616747 -0.507569
C40   C     C_R   0.050493 0.695259 0.598290 -0.283770
H6    H     H_    0.032016 0.782861 0.612417 0.197220
C41   C     C_R   0.495929 0.062799 0.619033 -0.006336
C42   C     C_R   0.510973 0.129467 0.504287 -0.202993
C43   C     C_R   0.533033 0.065370 0.395535 0.425666
C44   C     C_R   0.529079 0.935366 0.393135 -0.177598
H7    H     H_    0.543143 0.885061 0.307039 0.216705
C45   C     C_R   0.506461 0.871592 0.501115 -0.221142
C46   C     C_R   0.494498 0.935142 0.618219 0.009806
C47   C     C_3   0.450536 0.928276 0.708790 0.503587
C48   C     C_3   0.452265 0.073060 0.709675 -0.206941
H8    H     H_    0.461387 0.114052 0.809466 0.183671
C49   C     C_R   0.474872 0.409850 0.072966 0.122422
N3    N     N_R   0.499670 0.499140 0.142800 -0.183686
C50   C     C_R   0.528305 0.582594 0.068049 0.458865
C51   C     C_R   0.527926 0.581801 0.925110 -0.038247
H9    H     H_    0.549799 0.649114 0.868548 0.176014
N4    N     N_R   0.499670 0.499180 0.857150 -0.142789
C52   C     C_R   0.474568 0.410554 0.930302 0.157811
C53   C     C_3   0.421234 0.388972 0.925650 -0.476975
C54   C     C_3   0.421486 0.387211 0.079444 -0.116528
H10   H     H_    0.401942 0.471275 0.883280 0.204329
H11   H     H_    0.411481 0.297724 0.879251 0.211748
H12   H     H_    0.400950 0.465177 0.125420 0.184604
O13   O     O_3   0.251284 0.566369 0.271040 -0.740332
H13   H     H_    0.274100 0.590750 0.197380 0.335707
N5    N     N_3   0.124091 0.821603 0.603193 -0.364907
H14   H     H_    0.109688 0.885202 0.533402 0.179256
H15   H     H_    0.115936 0.853336 0.700337 0.197627
O14   O     O_3   0.967883 0.753512 0.761931 -0.728597
H16   H     H_    0.994535 0.710020 0.809256 0.336603
O15   O     O_3   0.652231 0.635669 0.316817 -0.738137
H17   H     H_    0.674533 0.705660 0.292285 0.363372
O16   O     O_3   0.875570 0.785714 0.694982 -0.657030
H18   H     H_    0.860596 0.824649 0.614076 0.356423
O17   O     O_3   0.756249 0.601803 0.316691 -0.734620
H19   H     H_    0.738491 0.610590 0.230452 0.354632
O18   O     O_3   0.556771 0.124998 0.289537 -0.731305
H20   H     H_    0.570929 0.204441 0.323250 0.348782
N6    N     N_3   0.408409 0.869158 0.644772 -0.402650
H21   H     H_    0.377329 0.893855 0.698335 0.205010
H22   H     H_    0.404723 0.899355 0.544428 0.145424
N7    N     N_3   0.252918 0.414422 0.738116 -0.438956
H23   H     H_    0.231054 0.337221 0.714259 0.206727
H24   H     H_    0.230546 0.486896 0.769990 0.208484
O19   O     O_3   0.459901 0.872745 0.835830 -0.731594
H25   H     H_    0.490695 0.908120 0.870997 0.335936
N8    N     N_3   0.411747 0.137118 0.644281 -0.458843
H26   H     H_    0.380163 0.116594 0.698958 0.199983
H27   H     H_    0.407109 0.107492 0.544671 0.188098
O20   O     O_3   0.557461 0.671535 0.126854 -0.743210
H28   H     H_    0.558971 0.653733 0.223946 0.406302
N9    N     N_3   0.408709 0.263988 0.137110 -0.413597
H29   H     H_    0.432120 0.195630 0.100238 0.211359
H30   H     H_    0.413891 0.268047 0.241685 0.219148
N10   N     N_3   0.123709 0.171202 0.356927 -0.363344
H31   H     H_    0.109355 0.163680 0.259636 0.189942
H32   H     H_    0.115467 0.088209 0.409877 0.186675
O21   O     O_3   0.639665 0.342757 0.690508 -0.729012
H33   H     H_    0.660639 0.295457 0.753658 0.351709
N11   N     N_3   0.968295 0.121446 0.522369 -0.471296
H34   H     H_    0.953538 0.075002 0.606967 0.230231
H35   H     H_    0.958918 0.069758 0.436834 0.187506

loop_
_geom_bond_atom_site_label_1
_geom_bond_atom_site_label_2
_geom_bond_distance
_ccdc_geom_bond_type
C44   C45   1.400177 A    
N5    H14   1.045282 S    
C22   H3    1.084105 S    
C49   N3    1.362576 A    
C7    C8    1.400305 A    
C12   C15   1.416888 A    
C19   C38   1.424763 A    
C1    C42   1.417404 S    
N8    H26   1.044908 S    
Zn1   O7    2.005619 S    
N1    C11   1.426148 S    
C23   C24   1.407288 A    
C51   N4    1.356456 A    
C43   O18   1.379119 S    
N9    H29   1.047255 S    
C53   H11   1.110598 S    
O4    C2    1.295003 A    
O7    C4    1.293465 A    
C5    C13   1.405784 A    
O19   H25   0.993660 S    
C5    O9    1.349428 S    
N10   H31   1.045764 S    
C5    N1    1.361911 A    
C21   C22   1.393297 A    
C28   C32   1.392354 A    
O5    C3    1.281945 A    
N6    H21   1.045154 S    
C33   C36   1.408733 A    
C2    C16   1.459386 S    
C41   C46   1.360485 A    
N10   H32   1.045123 S    
C45   C46   1.387690 A    
C18   C20   1.421619 A    
C47   C48   1.543055 S    
C39   O16   1.375414 S    
C30   O15   1.381663 S    
C44   H7    1.083491 S    
C48   N8    1.468066 S    
C17   C30   1.410027 A    
C23   C27   1.395357 A    
C46   C47   1.507177 S    
C4    C17   1.461735 S    
O3    Zn1   2.009174 S    
C49   C54   1.494852 S    
C47   N6    1.468062 S    
C10   C11   1.406889 A    
C27   O10   1.350246 S    
C29   O21   1.383089 S    
N3    C50   1.388690 A    
C41   C42   1.391187 A    
C51   H9    1.082348 S    
C53   H10   1.110918 S    
C47   O19   1.408752 S    
C26   N2    1.365907 A    
C15   C37   1.408876 A    
C37   N5    1.434012 S    
C8    C16   1.402191 A    
C38   C39   1.392574 A    
O13   H13   0.991773 S    
C9    H1    1.081362 S    
C20   C24   1.414817 A    
C10   N7    1.432135 S    
C52   C53   1.491866 S    
O1    C1    1.284625 A    
C22   C23   1.394440 A    
C7    C11   1.401752 A    
C50   C51   1.412966 A    
C24   C25   1.414708 A    
Zn2   O8    2.009174 S    
O17   H19   0.990058 S    
Zn2   N3    2.017150 S    
N1    C6    1.361938 A    
C49   C52   1.410055 A    
C18   C21   1.425034 A    
O16   H18   0.991576 S    
N7    H24   1.045288 S    
C12   C13   1.415936 A    
C38   O14   1.379714 S    
C19   C35   1.417884 A    
N11   H34   1.045890 S    
C6    O11   1.349481 S    
Zn1   N4    2.016371 S    
O3    C2    1.296885 A    
N2    C27   1.363023 A    
C9    C16   1.400077 A    
C41   C48   1.505974 S    
C34   C35   1.416579 A    
C21   N11   1.434179 S    
C18   C33   1.421577 A    
N5    H15   1.045756 S    
C17   C29   1.409638 A    
C28   C29   1.394312 A    
N2    C32   1.427145 S    
C54   H12   1.111528 S    
C30   C31   1.416579 A    
N6    H22   1.045198 S    
C12   C34   1.420385 A    
Zn1   O5    1.984973 S    
C33   C34   1.418429 A    
O20   H28   0.977387 S    
O1    Zn1   1.993025 S    
O2    Zn2   1.984974 S    
C6    C15   1.405461 A    
O8    C4    1.297271 A    
C53   C54   1.520015 S    
C7    O13   1.380696 S    
O6    C3    1.286147 A    
O4    Zn2   2.005622 S    
O21   H33   0.991842 S    
C50   O20   1.373366 S    
C36   H4    1.076247 S    
C42   C43   1.418719 A    
O2    C1    1.284768 A    
C13   C14   1.408320 A    
C48   H8    1.112017 S    
C14   C36   1.391277 A    
C19   C20   1.414557 A    
N4    C52   1.364708 A    
O14   H16   0.991829 S    
C25   C26   1.409780 A    
C26   O12   1.348756 S    
O15   H17   0.989964 S    
N8    H27   1.045191 S    
C43   C44   1.388814 A    
C40   H6    1.079268 S    
C14   N10   1.434181 S    
N11   H35   1.046129 S    
C25   C39   1.413725 A    
C31   C32   1.401541 A    
Zn2   O6    1.993024 S    
O18   H20   0.990452 S    
C54   N9    1.464681 S    
N7    H23   1.045306 S    
C35   C40   1.408295 A    
C37   C40   1.390222 A    
C8    H5    1.082808 S    
C9    C10   1.388819 A    
C31   O17   1.380722 S    
C28   H2    1.083585 S    
N9    H30   1.045491 S    
C3    C45   1.411164 S    
