data_mof_unit_41956.cif
_audit_creation_date              2012-12-10T17:32:17-0500
_audit_creation_method            fapswitch 2.2
_symmetry_space_group_name_H-M    P1
_symmetry_Int_Tables_number       1
_space_group_crystal_system       triclinic
_cell_length_a                    12.324242
_cell_length_b                    13.28607
_cell_length_c                    15.046024
_cell_angle_alpha                 74.807853
_cell_angle_beta                  101.500478
_cell_angle_gamma                 116.975755
_cell_volume                      2109.56522253

loop_
_atom_site_label
_atom_site_type_symbol
_atom_type_description
_atom_site_fract_x
_atom_site_fract_y
_atom_site_fract_z
_atom_type_partial_charge
C1    C     C_R   0.855796 0.287678 0.501695 0.787733
C2    C     C_R   0.059237 0.608723 0.074587 0.025116
C3    C     C_R   0.864509 0.295215 0.079242 -0.265171
C4    C     C_R   0.859864 0.286738 0.987921 -0.021128
C5    C     C_R   0.928037 0.385939 0.923165 0.025915
C6    C     C_R   0.990147 0.494019 0.952328 0.033527
C7    C     C_R   0.049172 0.595821 0.888633 0.104549
C8    C     C_R   0.107733 0.701723 0.915570 -0.264126
C9    C     C_R   0.111708 0.710568 0.006342 -0.018234
C10   C     C_R   0.937495 0.383217 0.830791 -0.083066
C11   C     C_R   0.992648 0.488089 0.768348 -0.089807
C12   C     C_R   0.995551 0.492674 0.671426 0.814115
C13   C     C_R   0.046238 0.592409 0.797033 -0.245058
C14   C     C_R   0.268147 0.033736 0.409586 -0.225672
C15   C     C_R   0.227338 0.836127 0.479051 -0.043616
C16   C     C_R   0.822236 0.081155 0.514399 0.009369
C17   C     C_R   0.740804 0.964839 0.529709 -0.204339
C18   C     C_R   0.615688 0.931262 0.521167 -0.219435
C19   C     C_R   0.566362 0.013185 0.488692 0.069078
C20   C     C_R   0.648043 0.130915 0.464829 0.062423
C21   C     C_R   0.438290 0.981410 0.474672 0.076546
C22   C     C_R   0.394050 0.064927 0.427741 0.150664
C23   C     C_R   0.144989 0.713492 0.489686 0.805969
C24   C     C_R   0.475625 0.177169 0.394789 -0.270654
C25   C     C_R   0.600397 0.209110 0.411352 -0.188481
C26   C     C_R   0.352395 0.868147 0.503045 -0.247751
C27   C     C_R   0.184883 0.920134 0.436032 -0.187567
C28   C     C_R   0.775549 0.166167 0.491201 -0.171582
C29   C     C_R   0.352378 0.338013 0.658661 -0.314365
C30   C     C_R   0.760789 0.646649 0.372589 0.078299
C31   C     C_R   0.664846 0.679289 0.343620 -0.266430
C32   C     C_R   0.560808 0.624079 0.391542 -0.203747
C33   C     C_R   0.551855 0.535338 0.469555 -0.003622
C34   C     C_R   0.002510 0.504363 0.328546 0.800161
C35   C     C_R   0.652752 0.505118 0.496559 0.287165
C36   C     C_R   0.447846 0.476504 0.522362 -0.041346
C37   C     C_R   0.449913 0.393150 0.603128 0.166728
C38   C     C_R   0.548500 0.364149 0.627422 -0.293579
C39   C     C_R   0.646801 0.417800 0.574205 -0.180115
C40   C     C_R   0.341153 0.496371 0.498999 0.009282
C41   C     C_R   0.250746 0.361970 0.632196 0.109508
C42   C     C_R   0.070385 0.608548 0.170790 -0.074254
C43   C     C_R   0.002538 0.506705 0.231280 -0.089140
C44   C     C_R   0.932557 0.404448 0.199694 -0.263405
C45   C     C_R   0.931104 0.399951 0.108214 0.109789
C46   C     C_R   0.993537 0.501042 0.045051 0.031806
Cu1   Cu    Cu3+1 0.098270 0.475420 0.521130 0.946127
Cu2   Cu    Cu3+1 0.901730 0.524580 0.478870 0.918600
H1    H     H_    0.234173 0.096085 0.370237 0.135812
H2    H     H_    0.380402 0.802188 0.542305 0.149337
H3    H     H_    0.560218 0.839698 0.534293 0.142717
H4    H     H_    0.774360 0.898760 0.547869 0.148330
H5    H     H_    0.658202 0.294341 0.377000 0.182619
H6    H     H_    0.174452 0.318924 0.674212 0.133063
H7    H     H_    0.549104 0.298545 0.687892 0.143625
H8    H     H_    0.353676 0.275146 0.721085 0.131893
H9    H     H_    0.881305 0.327147 0.247632 0.119360
H10   H     H_    0.841358 0.689940 0.335089 0.118604
H11   H     H_    0.671235 0.747689 0.284024 0.137036
H12   H     H_    0.717606 0.389454 0.596034 0.201788
H13   H     H_    0.147860 0.779627 0.864257 0.142690
H14   H     H_    0.088250 0.897052 0.416998 0.153851
N1    N     N_R   0.246280 0.438190 0.553160 -0.180126
N2    N     N_R   0.754320 0.561190 0.447410 -0.209132
O1    O     O_R   0.972510 0.318130 0.526570 -0.561269
O2    O     O_R   0.806530 0.359650 0.490890 -0.607489
O3    O     O_R   0.082980 0.479210 0.647590 -0.580047
O4    O     O_R   0.917000 0.520730 0.611900 -0.593762
O5    O     O_R   0.193470 0.640350 0.509110 -0.583678
O6    O     O_R   0.027490 0.681870 0.473430 -0.590996
O7    O     O_R   0.083000 0.479270 0.388100 -0.584608
O8    O     O_R   0.917020 0.520790 0.352410 -0.593885
C47   C     C_R   0.165312 0.707046 0.210644 0.110200
C48   C     C_R   0.136706 0.791255 0.226310 -0.143663
C49   C     C_R   0.230773 0.894795 0.245555 -0.092851
C50   C     C_R   0.352497 0.910343 0.257984 -0.077177
C51   C     C_R   0.380532 0.822695 0.249710 -0.163869
C52   C     C_R   0.287339 0.721704 0.224848 -0.156300
H15   H     H_    0.042924 0.780794 0.215822 0.113851
H16   H     H_    0.209163 0.964155 0.248012 0.132175
H17   H     H_    0.425176 0.990833 0.272596 0.132759
H18   H     H_    0.474758 0.834826 0.259113 0.127574
H19   H     H_    0.310410 0.656625 0.213809 0.124129
H20   H     H_    0.442859 0.240289 0.354639 0.144494
C53   C     C_R   0.953908 0.109347 0.516664 0.137385
C54   C     C_R   0.013182 0.060056 0.592692 -0.164402
C55   C     C_R   0.137058 0.087362 0.594377 -0.142397
C56   C     C_R   0.202729 0.164000 0.520417 -0.099388
C57   C     C_R   0.144169 0.211206 0.443507 -0.139775
C58   C     C_R   0.019754 0.182346 0.440716 -0.080835
H21   H     H_    0.964031 0.000939 0.650807 0.117518
H22   H     H_    0.182540 0.050142 0.653470 0.126613
H23   H     H_    0.299233 0.186701 0.522654 0.148620
H24   H     H_    0.195215 0.269982 0.385994 0.120258
H25   H     H_    0.975235 0.218754 0.380327 0.102415
H26   H     H_    0.331131 0.557311 0.438450 0.127563
H27   H     H_    0.489712 0.653337 0.366774 0.134294
H28   H     H_    0.812511 0.219198 0.127932 0.145232
C59   C     C_R   0.769961 0.175763 0.963047 0.149260
C60   C     C_R   0.655656 0.165557 0.916744 -0.159442
C61   C     C_R   0.567975 0.059295 0.897085 -0.162362
C62   C     C_R   0.593003 0.962396 0.925067 -0.109562
C63   C     C_R   0.705524 0.971462 0.973164 -0.127287
C64   C     C_R   0.793451 0.077573 0.992924 -0.136796
H29   H     H_    0.635035 0.239939 0.895403 0.120620
H30   H     H_    0.480532 0.052014 0.860402 0.125087
H31   H     H_    0.524983 0.880208 0.909872 0.118410
H32   H     H_    0.724530 0.896242 0.995323 0.116245
H33   H     H_    0.879930 0.083598 0.030881 0.108597
C65   C     C_R   0.903883 0.274033 0.800978 0.116195
C66   C     C_R   0.794211 0.225234 0.746311 -0.141142
C67   C     C_R   0.759547 0.118951 0.723105 -0.100350
C68   C     C_R   0.835516 0.061923 0.752747 -0.092849
C69   C     C_R   0.947273 0.112039 0.804292 -0.162242
C70   C     C_R   0.981506 0.217840 0.828539 -0.144321
H34   H     H_    0.732768 0.266342 0.726403 0.104157
H35   H     H_    0.672880 0.079960 0.683458 0.134386
H36   H     H_    0.807351 0.978649 0.736078 0.119957
H37   H     H_    0.006516 0.068172 0.826489 0.132334
H38   H     H_    0.067151 0.254959 0.870005 0.119326
H39   H     H_    0.088750 0.671583 0.747541 0.130383
C71   C     C_R   0.156040 0.829613 0.019879 0.144375
C72   C     C_R   0.071470 0.873891 0.018518 -0.158000
C73   C     C_R   0.112191 0.989942 0.021423 -0.165601
C74   C     C_R   0.237160 0.062809 0.024037 -0.127944
C75   C     C_R   0.321608 0.019876 0.023348 -0.136847
C76   C     C_R   0.281263 0.903896 0.020314 -0.127596
H40   H     H_    0.974306 0.818646 0.014811 0.121126
H41   H     H_    0.046849 0.023553 0.020994 0.123354
H42   H     H_    0.268495 0.152622 0.026183 0.119970
H43   H     H_    0.418264 0.076558 0.024898 0.134568
H44   H     H_    0.347200 0.871868 0.018278 0.127057

loop_
_geom_bond_atom_site_label_1
_geom_bond_atom_site_label_2
_ccdc_geom_bond_type
C16   C28   A    
C21   C26   A    
C61   C62   A    
C30   N2    A    
C47   C48   A    
C23   O5    A    
C66   C67   A    
C55   C56   A    
C69   C70   A    
C72   C73   A    
C51   C52   A    
C2    C46   A    
C12   O4    A    
C60   H29   S    
C75   C76   A    
C40   N1    A    
C75   H43   S    
C36   C37   A    
C19   C21   A    
C25   H5    S    
C16   C53   S    
C54   H21   S    
C26   H2    S    
Cu1   N1    S    
C5    C6    A    
Cu2   N2    S    
C14   H1    S    
C20   C25   A    
C57   H24   S    
C33   C36   A    
C32   H27   S    
C17   C18   A    
C18   C19   A    
C31   H11   S    
C71   C76   A    
C65   C66   A    
Cu1   O5    S    
C76   H44   S    
C52   H19   S    
C38   H7    S    
Cu1   Cu2   S    
C8    C9    A    
C1    C28   S    
C1    O1    A    
C47   C52   A    
C63   H32   S    
C14   C27   A    
C49   H16   S    
C69   H37   S    
C8    H13   S    
C15   C23   S    
C59   C64   A    
C21   C22   A    
C23   O6    A    
Cu2   O8    S    
C74   H42   S    
C17   H4    S    
Cu1   O3    S    
C67   C68   A    
C18   H3    S    
C1    O2    A    
C50   C51   A    
C12   O3    A    
C65   C70   A    
C48   C49   A    
C36   C40   A    
C24   C25   A    
C54   C55   A    
C16   C17   A    
C15   C26   A    
C20   C28   A    
C53   C54   A    
C3    C45   A    
C35   C39   A    
C49   C50   A    
C37   C38   A    
C27   H14   S    
C13   H39   S    
C15   C27   A    
C59   C60   A    
C44   H9    S    
C53   C58   A    
C9    C71   S    
C62   H31   S    
Cu2   O4    S    
Cu1   O7    S    
C35   N2    A    
C30   C31   A    
C48   H15   S    
C43   C44   A    
C74   C75   A    
C22   C24   A    
C42   C43   A    
C41   N1    A    
C3    C4    A    
C57   C58   A    
C34   O8    A    
C44   C45   A    
C68   C69   A    
C61   H30   S    
C56   H23   S    
C42   C47   S    
C6    C46   A    
C29   C41   A    
C31   C32   A    
C34   C43   S    
Cu2   O6    S    
C4    C5    A    
C58   H25   S    
C50   H17   S    
C11   C12   S    
C6    C7    A    
C29   H8    S    
C67   H35   S    
C66   H34   S    
C32   C33   A    
C14   C22   A    
C19   C20   A    
C40   H26   S    
C5    C10   A    
C11   C13   A    
C3    H28   S    
C72   H40   S    
C38   C39   A    
C51   H18   S    
C2    C42   A    
C39   H12   S    
C30   H10   S    
C60   C61   A    
C33   C35   A    
C73   H41   S    
C10   C65   S    
C24   H20   S    
C62   C63   A    
C41   H6    S    
C7    C8    A    
C10   C11   A    
C68   H36   S    
C45   C46   A    
C7    C13   A    
C56   C57   A    
C70   H38   S    
C4    C59   S    
C29   C37   A    
C63   C64   A    
C64   H33   S    
Cu2   O2    S    
C71   C72   A    
C55   H22   S    
C2    C9    A    
C34   O7    A    
Cu1   O1    S    
C73   C74   A    
