data_mof_unit_50717.cif
_audit_creation_date              2012-12-10T20:27:55-0500
_audit_creation_method            fapswitch 2.2
_symmetry_space_group_name_H-M    P1
_symmetry_Int_Tables_number       1
_space_group_crystal_system       triclinic
_cell_length_a                    12.788658
_cell_length_b                    10.678978
_cell_length_c                    9.867524
_cell_angle_alpha                 89.848708
_cell_angle_beta                  97.891785
_cell_angle_gamma                 89.872184
_cell_volume                      1334.83356633

loop_
_atom_site_label
_atom_site_type_symbol
_atom_type_description
_atom_site_fract_x
_atom_site_fract_y
_atom_site_fract_z
_atom_type_partial_charge
C1    C     C_R   0.502353 0.259954 0.500465 0.889363
C2    C     C_R   0.533778 0.935556 0.383093 -0.223451
C3    C     C_R   0.518873 0.871354 0.503044 -0.091278
C4    C     C_R   0.298254 0.499590 0.472324 1.031831
C5    C     C_R   0.522372 0.935731 0.626098 0.100745
C6    C     C_3   0.450844 0.927960 0.733650 -0.434598
C7    C     C_3   0.449753 0.069873 0.733194 -0.479525
C8    C     C_R   0.450700 0.406542 0.062820 0.176760
C9    C     C_R   0.556543 0.585722 0.081800 -0.117301
C10   C     C_R   0.556598 0.585691 0.937839 -0.121850
C11   C     C_R   0.450404 0.406765 0.920245 0.205680
C12   C     C_R   0.025004 0.543072 0.537848 0.027835
C13   C     C_3   0.335704 0.375791 0.894988 -0.524522
C14   C     C_3   0.336387 0.374721 0.048947 -0.410760
C15   C     C_R   0.503065 0.739983 0.500360 0.896206
C16   C     C_R   0.701644 0.498135 0.527826 0.847817
C17   C     C_R   0.814011 0.499023 0.547436 -0.046937
C18   C     C_R   0.186229 0.489884 0.454099 -0.321139
C19   C     C_R   0.032025 0.367122 0.381479 -0.309314
C20   C     C_R   0.137151 0.392687 0.375433 0.538586
C21   C     C_R   0.130474 0.567232 0.531679 0.468964
C22   C     C_3   0.820497 0.284748 0.434172 -0.428584
C23   C     C_R   0.975360 0.438724 0.466347 -0.015111
C24   C     C_3   0.873239 0.177054 0.522606 -0.346953
C25   C     C_3   0.823525 0.050922 0.480369 -0.864716
C26   C     C_R   0.870274 0.410406 0.480661 0.093813
C27   C     C_R   0.863368 0.600258 0.618437 -0.274010
C28   C     C_R   0.969335 0.620620 0.616448 -0.121976
C29   C     C_R   0.521617 0.063506 0.626003 0.124021
C30   C     C_R   0.517395 0.128411 0.502920 -0.091496
C31   C     C_R   0.532601 0.064852 0.382865 -0.227430
F1    F     F_    0.192741 0.317061 0.300794 -0.673630
F2    F     F_    0.180279 0.663594 0.604015 -0.679080
H1    H     H_    0.491209 0.887159 0.830794 0.195267
H2    H     H_    0.818658 0.666528 0.670814 0.153079
H3    H     H_    0.996981 0.290006 0.320945 0.191064
H4    H     H_    0.006252 0.700205 0.671523 0.197800
H5    H     H_    0.537453 0.113902 0.287689 0.175121
H6    H     H_    0.539091 0.886980 0.288019 0.170671
H7    H     H_    0.372841 0.886064 0.695335 0.240977
H8    H     H_    0.740852 0.048535 0.502090 0.268450
H9    H     H_    0.825374 0.033869 0.369726 0.266031
H10   H     H_    0.868048 0.974882 0.540012 0.253558
H11   H     H_    0.958772 0.171582 0.514361 0.239062
H12   H     H_    0.371186 0.110408 0.694003 0.210173
H13   H     H_    0.864895 0.194235 0.631718 0.227600
H14   H     H_    0.735140 0.281824 0.443517 0.203514
H15   H     H_    0.825534 0.269186 0.324081 0.200573
H16   H     H_    0.489158 0.111227 0.830205 0.200316
H17   H     H_    0.600543 0.656444 0.143713 0.143441
H18   H     H_    0.600667 0.656337 0.891167 0.139503
H19   H     H_    0.286993 0.452813 0.842899 0.248060
H20   H     H_    0.321054 0.282037 0.847835 0.198987
H21   H     H_    0.287883 0.450766 0.085654 0.241912
H22   H     H_    0.323113 0.280114 0.090518 0.236662
N1    N     N_R   0.499290 0.499140 0.142710 -0.106619
N2    N     N_R   0.499290 0.499180 0.857070 -0.099421
O1    O     O_R   0.500010 0.316790 0.614690 -0.625932
O2    O     O_R   0.500000 0.316760 0.385350 -0.620317
O3    O     O_R   0.346360 0.499990 0.595720 -0.593077
O4    O     O_R   0.346350 0.499960 0.366370 -0.591071
O5    O     O_R   0.500000 0.683240 0.614650 -0.615332
O6    O     O_R   0.499990 0.683210 0.385310 -0.630838
O7    O     O_R   0.653650 0.500040 0.633630 -0.622177
O8    O     O_R   0.653640 0.500010 0.404280 -0.624144
Zn1   Zn    Zn3+2 0.500010 0.500020 0.653130 0.966329
Zn2   Zn    Zn3+2 0.499990 0.499980 0.346870 0.962818

loop_
_geom_bond_atom_site_label_1
_geom_bond_atom_site_label_2
_ccdc_geom_bond_type
C25   H9    S    
C22   H15   S    
C13   H20   S    
C4    C18   S    
C6    C7    S    
C7    C29   S    
C25   H10   S    
N1    Zn2   S    
C9    C10   A    
O4    Zn2   S    
C19   C23   A    
C19   C20   A    
O8    Zn2   S    
C31   H5    S    
N2    Zn1   S    
C24   H13   S    
C8    N1    A    
C14   H22   S    
O3    Zn1   S    
C9    N1    A    
C11   N2    A    
C13   C14   S    
C11   C13   S    
C12   C23   A    
C4    O3    A    
C22   H14   S    
C29   C30   A    
C12   C21   A    
C28   H4    S    
C12   C28   A    
C8    C11   A    
C17   C26   A    
C2    H6    S    
C22   C24   S    
C1    C30   S    
C14   H21   S    
C15   O5    A    
C2    C3    A    
C6    H7    S    
C19   H3    S    
C1    O2    A    
C22   C26   S    
C5    C6    S    
C24   H11   S    
O6    Zn2   S    
C21   F2    S    
O5    Zn1   S    
C13   H19   S    
C18   C21   A    
C5    C29   A    
C7    H12   S    
C10   H18   S    
C10   N2    A    
O2    Zn2   S    
C24   C25   S    
C7    H16   S    
C18   C20   A    
C20   F1    S    
C23   C26   A    
C25   H8    S    
C27   C28   A    
C15   O6    A    
C30   C31   A    
C16   C17   S    
C3    C15   S    
C8    C14   S    
C16   O8    A    
C16   O7    A    
C27   H2    S    
C1    O1    A    
C4    O4    A    
O1    Zn1   S    
C9    H17   S    
C6    H1    S    
O7    Zn1   S    
C2    C31   A    
C3    C5    A    
C17   C27   A    
