data_mof_unit_45178.cif
_audit_creation_date              2012-12-10T16:56:09-0500
_audit_creation_method            fapswitch 2.2
_symmetry_space_group_name_H-M    P1
_symmetry_Int_Tables_number       1
_space_group_crystal_system       triclinic
_cell_length_a                    9.892356
_cell_length_b                    10.944349
_cell_length_c                    13.827073
_cell_angle_alpha                 92.750333
_cell_angle_beta                  83.468642
_cell_angle_gamma                 92.211873
_cell_volume                      1484.736054

loop_
_atom_site_label
_atom_site_type_symbol
_atom_type_description
_atom_site_fract_x
_atom_site_fract_y
_atom_site_fract_z
_atom_type_partial_charge
C1    C     C_R   0.503244 0.733785 0.503121 0.830931
C2    C     C_1   0.460928 0.506382 0.786472 -0.203861
C3    C     C_2   0.552226 0.062140 0.428644 0.484276
C4    C     C_2   0.481207 0.134849 0.494216 -0.410669
C5    C     C_2   0.512052 0.930573 0.428287 0.019278
C6    C     C_2   0.519902 0.866237 0.509026 -0.018061
C7    C     C_2   0.074746 0.586245 0.542613 0.515027
C8    C     C_2   0.919280 0.570054 0.558408 0.160520
C9    C     C_R   0.476486 0.501339 0.682654 0.789223
C10   C     C_R   0.496808 0.266334 0.497263 0.888439
C11   C     C_R   0.523574 0.499908 0.317350 0.821592
C12   C     C_1   0.539473 0.500244 0.213594 -0.194652
C13   C     C_2   0.557724 0.500284 0.020513 0.465106
C14   C     C_2   0.442869 0.517897 0.978921 0.057694
C15   C     C_1   0.450931 0.511620 0.873898 0.094593
C16   C     C_1   0.549725 0.500421 0.126226 -0.145016
Cu1   Cu    Cu3+1 0.361370 0.499980 0.499980 0.946388
Cu2   Cu    Cu3+1 0.638630 0.500020 0.500020 0.939515
H1    H     H_    0.396911 0.096163 0.541994 0.129398
H2    H     H_    0.117546 0.413948 0.514567 0.148799
N1    N     N_2   0.152970 0.501340 0.501040 -0.342300
N2    N     N_2   0.846830 0.501370 0.501060 -0.157994
O1    O     O_R   0.382960 0.678040 0.499980 -0.519401
O2    O     O_R   0.617100 0.678080 0.500020 -0.614055
O3    O     O_R   0.366380 0.499950 0.637830 -0.588608
O4    O     O_R   0.600520 0.499990 0.637860 -0.569303
O5    O     O_R   0.382900 0.321920 0.499980 -0.591658
O6    O     O_R   0.617040 0.321960 0.500020 -0.548436
O7    O     O_R   0.399480 0.500010 0.362140 -0.561014
O8    O     O_R   0.633620 0.500050 0.362170 -0.575192
C17   C     C_3   0.306990 0.540880 0.039844 -0.433073
C18   C     C_3   0.191187 0.568492 0.980408 -0.856825
H3    H     H_    0.217930 0.650768 0.937237 0.251784
H4    H     H_    0.169767 0.489105 0.930681 0.251010
H5    H     H_    0.097489 0.586562 0.030502 0.236652
H6    H     H_    0.276072 0.459065 0.082744 0.213246
H7    H     H_    0.319971 0.620035 0.091843 0.210594
C19   C     C_3   0.920397 0.420329 0.424643 -0.204033
C20   C     C_3   0.853991 0.374121 0.335069 -0.682603
H8    H     H_    0.758844 0.320740 0.352537 0.311611
H9    H     H_    0.844466 0.449278 0.285279 0.230934
H10   H     H_    0.923932 0.309420 0.292202 0.170183
H11   H     H_    0.008607 0.470652 0.386863 0.162215
H12   H     H_    0.946751 0.335880 0.458820 0.156029
O9    O     O_3   0.678262 0.478376 0.959497 -0.584886
C21   C     C_3   0.793804 0.476796 0.010543 -0.318416
H13   H     H_    0.786878 0.398362 0.059330 0.178046
H14   H     H_    0.808476 0.564993 0.052115 0.161299
H15   H     H_    0.885017 0.464739 0.956833 0.185846
O10   O     O_3   0.645931 0.111551 0.357223 -0.593317
C22   C     C_3   0.763030 0.040268 0.342444 -0.349183
H16   H     H_    0.741947 0.950702 0.304901 0.166861
H17   H     H_    0.805459 0.026668 0.412260 0.165201
H18   H     H_    0.842366 0.089442 0.294476 0.184972
C23   C     C_3   0.460736 0.874195 0.336055 -0.407036
C24   C     C_3   0.305906 0.877629 0.342298 -0.786421
H19   H     H_    0.257150 0.826684 0.405140 0.297195
H20   H     H_    0.273021 0.973858 0.350433 0.242134
H21   H     H_    0.271000 0.835058 0.274551 0.230304
H22   H     H_    0.503948 0.926431 0.272115 0.224983
H23   H     H_    0.494309 0.778823 0.321120 0.184429
C25   C     C_3   0.589275 0.918059 0.596647 -0.451865
C26   C     C_3   0.496777 0.906173 0.691941 -0.862037
H24   H     H_    0.397482 0.948151 0.687014 0.253812
H25   H     H_    0.480502 0.808293 0.709168 0.230830
H26   H     H_    0.545697 0.953900 0.752259 0.253059
H27   H     H_    0.683330 0.867859 0.601510 0.204473
H28   H     H_    0.625411 0.014589 0.591345 0.215381
O11   O     O_3   0.131779 0.700173 0.565276 -0.569269
C27   C     C_3   0.164428 0.705849 0.662576 -0.240593
H29   H     H_    0.161573 0.616158 0.697604 0.149145
H30   H     H_    0.095955 0.768855 0.708118 0.139772
H31   H     H_    0.268208 0.745995 0.664037 0.184994
C28   C     C_3   0.848077 0.648737 0.640727 -0.362770
C29   C     C_3   0.842487 0.588318 0.738784 -0.792561
H32   H     H_    0.801414 0.492716 0.733684 0.284380
H33   H     H_    0.944459 0.586288 0.763943 0.217452
H34   H     H_    0.775655 0.640807 0.794603 0.257819
H35   H     H_    0.897309 0.741026 0.645147 0.187600
H36   H     H_    0.744672 0.668927 0.627990 0.250086

loop_
_geom_bond_atom_site_label_1
_geom_bond_atom_site_label_2
_ccdc_geom_bond_type
C10   O5    A    
C23   C24   S    
C26   H25   S    
Cu1   O7    S    
Cu2   O4    S    
C14   C17   S    
C9    O3    A    
C7    C8    S    
C20   H9    S    
O9    C21   S    
C21   H15   S    
Cu1   O1    S    
C25   H27   S    
Cu2   O2    S    
C19   C20   S    
N2    C19   S    
C24   H19   S    
C4    H1    S    
C12   C16   T    
C11   O8    A    
C8    N2    D    
C27   H29   S    
Cu2   O8    S    
C26   H26   S    
C28   H36   S    
C23   H22   S    
C3    O10   S    
C9    O4    A    
Cu1   Cu2   S    
C20   H10   S    
C21   H14   S    
C28   C29   S    
C22   H16   S    
Cu1   O5    S    
C18   H5    S    
Cu2   O6    S    
C20   H8    S    
C7    N1    D    
Cu1   N1    S    
C17   H7    S    
C22   H17   S    
C18   H4    S    
C29   H32   S    
C19   H12   S    
C25   C26   S    
C17   C18   S    
C14   C15   S    
C27   H31   S    
C8    C28   S    
O10   C22   S    
C2    C15   T    
C29   H33   S    
C1    O1    A    
C28   H35   S    
C4    C10   S    
C3    C4    D    
C10   O6    A    
C21   H13   S    
Cu2   N2    S    
C5    C23   S    
C3    C5    S    
C7    O11   S    
C11   C12   S    
C24   H21   S    
C25   H28   S    
C22   H18   S    
Cu1   O3    S    
C18   H3    S    
C6    C25   S    
C19   H11   S    
C13   O9    S    
C5    C6    D    
C23   H23   S    
C24   H20   S    
O11   C27   S    
C29   H34   S    
C26   H24   S    
H2    N1    S    
C11   O7    A    
C1    O2    A    
C13   C16   S    
C1    C6    S    
C17   H6    S    
C27   H30   S    
C13   C14   D    
C2    C9    S    
