data_mof_unit_36638.cif
_audit_creation_date              2012-12-11T15:55:59-0500
_audit_creation_method            fapswitch 2.2
_symmetry_space_group_name_H-M    P1
_symmetry_Int_Tables_number       1
_space_group_crystal_system       triclinic
_cell_length_a                    11.016229
_cell_length_b                    11.037646
_cell_length_c                    18.707898
_cell_angle_alpha                 90.424438
_cell_angle_beta                  91.106432
_cell_angle_gamma                 59.409275
_cell_volume                      1957.79083535

loop_
_atom_site_label
_atom_site_type_symbol
_atom_type_description
_atom_site_fract_x
_atom_site_fract_y
_atom_site_fract_z
_atom_type_partial_charge
C1    C     C_R   0.360674 0.765858 0.395236 0.535944
C2    C     C_R   0.243312 0.447896 0.194933 -0.155155
C3    C     C_R   0.236394 0.446946 0.269302 -0.043038
C4    C     C_R   0.385556 0.357107 0.386301 0.542787
C5    C     C_R   0.809416 0.755616 0.328096 -0.097094
C6    C     C_R   0.835237 0.653396 0.277205 -0.099433
C7    C     C_R   0.973488 0.543950 0.264648 -0.097276
C8    C     C_R   0.090264 0.541510 0.298484 0.016210
C9    C     C_R   0.365414 0.356199 0.308049 0.000141
C10   C     C_R   0.866430 0.326433 0.183887 0.021226
C11   C     C_R   0.961531 0.227790 0.233828 0.001638
C12   C     C_R   0.623299 0.164782 0.157801 0.045657
C13   C     C_R   0.932511 0.243811 0.306058 -0.011832
C14   C     C_R   0.710608 0.455343 0.279136 -0.143075
C15   C     C_R   0.739800 0.440298 0.206490 -0.180121
C16   C     C_R   0.774169 0.380205 0.402691 0.554272
C17   C     C_3   0.010296 0.074473 0.237778 -0.249611
C18   C     C_3   0.977533 0.092910 0.316330 -0.285315
C19   C     C_R   0.808787 0.358949 0.328885 0.043123
C20   C     C_R   0.369473 0.827224 0.171918 0.004922
C21   C     C_R   0.418459 0.890180 0.220699 0.002228
C22   C     C_R   0.417321 0.870835 0.293786 -0.005415
C23   C     C_R   0.361233 0.346385 0.158227 -0.010780
C24   C     C_R   0.335861 0.709401 0.270730 -0.167001
C25   C     C_R   0.338998 0.727058 0.197257 -0.169818
C26   C     C_3   0.371709 0.041727 0.229679 -0.250743
C27   C     C_3   0.372345 0.020483 0.309551 -0.289705
C28   C     C_R   0.345378 0.768744 0.604606 0.541644
C29   C     C_R   0.361121 0.792162 0.319517 0.008451
C30   C     C_R   0.301773 0.314309 0.810003 -0.009451
C31   C     C_R   0.367005 0.194336 0.766589 0.010593
C32   C     C_R   0.371478 0.202114 0.693904 0.003733
C33   C     C_R   0.226307 0.454702 0.702061 -0.163680
C34   C     C_R   0.491412 0.276705 0.269354 -0.152983
C35   C     C_R   0.222415 0.447391 0.776807 -0.003874
C36   C     C_3   0.511037 0.066338 0.771147 -0.254301
C37   C     C_3   0.513087 0.070652 0.690321 -0.268956
C38   C     C_R   0.314564 0.332931 0.661501 -0.010780
C39   C     C_R   0.790383 0.352628 0.840286 0.015205
C40   C     C_R   0.368526 0.350455 0.594988 0.553299
C41   C     C_R   0.771234 0.471847 0.803524 0.012074
C42   C     C_R   0.740690 0.489149 0.731932 -0.000692
C43   C     C_R   0.711801 0.287997 0.731544 -0.152434
C44   C     C_R   0.746396 0.267792 0.805459 -0.163559
C45   C     C_R   0.491509 0.268474 0.194924 -0.035833
C46   C     C_3   0.867365 0.530320 0.797189 -0.221875
C47   C     C_3   0.835080 0.546729 0.718249 -0.246017
C48   C     C_R   0.720979 0.392885 0.693179 0.014213
C49   C     C_R   0.301382 0.834622 0.827445 0.041533
C50   C     C_R   0.186049 0.862855 0.783322 0.074196
C51   C     C_R   0.198261 0.849879 0.710075 0.045461
C52   C     C_R   0.700680 0.412112 0.615785 0.563357
C53   C     C_R   0.443427 0.778966 0.722267 -0.170571
C54   C     C_R   0.432985 0.784352 0.796508 -0.163788
C55   C     C_3   0.045987 0.995007 0.777456 -0.246693
C56   C     C_R   0.059721 0.653686 0.344422 -0.080442
C57   C     C_3   0.058440 0.979569 0.697252 -0.271996
C58   C     C_R   0.325108 0.814755 0.678269 0.004312
C59   C     C_R   0.911075 0.314634 0.111396 0.536029
C60   C     C_R   0.330592 0.297597 0.090570 0.538650
C61   C     C_R   0.311292 0.894845 0.103701 0.541270
C62   C     C_R   0.876486 0.313311 0.906318 0.523691
C63   C     C_R   0.295266 0.288822 0.885309 0.574074
C64   C     C_R   0.842799 0.955597 0.076125 -0.092170
C65   C     C_R   0.275269 0.893119 0.898575 0.554822
C66   C     C_R   0.816445 0.922899 0.143839 -0.131207
C67   C     C_R   0.922330 0.756028 0.361797 -0.123519
C68   C     C_R   0.707965 0.026837 0.184710 -0.114768
C69   C     C_2   0.145177 0.580359 0.817676 0.563780
C70   C     C_R   0.655745 0.197784 0.090976 -0.056181
C71   C     C_R   0.761924 0.092598 0.049645 -0.066184
Cr1   Cr    Cr6+3 0.601740 0.606840 0.505840 1.011584
Cr2   Cr    Cr6+3 0.291500 0.601560 0.495070 0.997314
Cr3   Cr    Cr6+3 0.606780 0.291630 0.499130 0.996931
Cr4   Cr    Cr6+3 0.062440 0.063060 0.008240 0.993547
Cr5   Cr    Cr6+3 0.062950 0.375000 0.998920 1.028803
Cr6   Cr    Cr6+3 0.374550 0.061770 0.992470 1.014787
H1    H     H_    0.592027 0.217197 0.297254 0.141366
H2    H     H_    0.072447 0.037102 0.351628 0.143993
H3    H     H_    0.312423 0.632272 0.289489 0.136992
H4    H     H_    0.780284 0.117079 0.996642 0.125040
H5    H     H_    0.305054 0.672795 0.160908 0.135138
H6    H     H_    0.265352 0.114387 0.206375 0.144583
H7    H     H_    0.265856 0.080390 0.333113 0.140014
H8    H     H_    0.175385 0.557917 0.677258 0.181962
H9    H     H_    0.510163 0.973800 0.792355 0.153620
H10   H     H_    0.589469 0.087924 0.797407 0.133126
H11   H     H_    0.599023 0.084540 0.670343 0.154783
H12   H     H_    0.702687 0.838454 0.338546 0.111677
H13   H     H_    0.903845 0.840625 0.397912 0.104670
H14   H     H_    0.506364 0.983433 0.664318 0.137601
H15   H     H_    0.688410 0.216311 0.703791 0.128345
H16   H     H_    0.750726 0.179972 0.833158 0.106960
H17   H     H_    0.979306 0.450793 0.808930 0.169799
H18   H     H_    0.825802 0.632282 0.825670 0.158252
H19   H     H_    0.778342 0.658323 0.700572 0.144339
H20   H     H_    0.928099 0.474919 0.685750 0.161606
H21   H     H_    0.543532 0.747939 0.698963 0.135681
H22   H     H_    0.524654 0.760905 0.829198 0.124059
H23   H     H_    0.747654 0.663519 0.245712 0.125969
H24   H     H_    0.049213 0.088424 0.797519 0.142651
H25   H     H_    0.925684 0.874814 0.044127 0.118411
H26   H     H_    0.960260 0.981830 0.798685 0.139744
H27   H     H_    0.980651 0.955709 0.672182 0.157133
H28   H     H_    0.066612 0.065041 0.670806 0.137393
H29   H     H_    0.879608 0.816861 0.164524 0.122191
H30   H     H_    0.687433 0.997871 0.236200 0.095828
H31   H     H_    0.140167 0.670170 0.361928 0.185717
H32   H     H_    0.593304 0.303031 0.069084 0.096084
H33   H     H_    0.454855 0.060718 0.212267 0.163601
H34   H     H_    0.990748 0.467460 0.223993 0.134567
H35   H     H_    0.455352 0.030881 0.338740 0.143578
H36   H     H_    0.972659 0.773388 0.823330 0.322740
H37   H     H_    0.148460 0.519008 0.164756 0.138808
H38   H     H_    0.613209 0.543948 0.297097 0.139080
H39   H     H_    0.665795 0.517749 0.168666 0.120660
H40   H     H_    0.123751 0.008279 0.227859 0.163157
H41   H     H_    0.942963 0.046320 0.205894 0.173998
H42   H     H_    0.888933 0.076806 0.330140 0.143954
O1    O     O_R   0.748670 0.497520 0.427970 -0.502449
O2    O     O_R   0.417470 0.174910 0.067830 -0.507030
O3    O     O_R   0.375160 0.946380 0.070880 -0.494228
O4    O     O_R   0.476470 0.723930 0.429450 -0.493588
O5    O     O_R   0.160500 0.919670 0.926690 -0.501646
O6    O     O_R   0.933140 0.190380 0.936050 -0.526194
O7    O     O_R   0.909010 0.403210 0.925030 -0.522603
O8    O     O_R   0.179590 0.361290 0.918480 -0.476354
O9    O     O_R   0.391360 0.170840 0.907510 -0.529667
O10   O     O_R   0.350950 0.942600 0.922260 -0.517230
O11   O     O_3   0.166650 0.166610 0.999880 -0.254172
O12   O     O_R   0.300170 0.471020 0.567120 -0.506613
O13   O     O_R   0.264730 0.744140 0.416740 -0.558342
O14   O     O_R   0.309440 0.472410 0.418220 -0.515721
O15   O     O_R   0.501630 0.260530 0.414310 -0.529399
O16   O     O_R   0.727920 0.305730 0.428950 -0.509052
O17   O     O_R   0.738670 0.496020 0.588600 -0.519681
O18   O     O_R   0.467190 0.722540 0.578350 -0.523800
O19   O     O_R   0.254720 0.742640 0.577370 -0.511285
O20   O     O_2   0.188264 0.591883 0.876597 -0.512049
O21   O     O_R   0.023215 0.693871 0.787997 -0.740588
O22   O     O_R   0.491630 0.259030 0.574940 -0.528904
O23   O     O_R   0.718640 0.304340 0.577850 -0.507687
O24   O     O_3   0.500010 0.500010 0.500020 -0.270593
O25   O     O_R   0.186620 0.923750 0.087000 -0.522531
O26   O     O_R   0.957350 0.194160 0.084660 -0.501809
O27   O     O_R   0.935120 0.407280 0.085350 -0.526653
O28   O     O_R   0.203800 0.365060 0.067090 -0.503141

loop_
_geom_bond_atom_site_label_1
_geom_bond_atom_site_label_2
_ccdc_geom_bond_type
C69   O20   D    
Cr1   O24   S    
C66   C68   A    
C21   C26   S    
Cr2   O12   S    
C26   H6    S    
C23   C45   A    
C22   C29   A    
Cr5   O7    S    
C41   C42   A    
C37   H11   S    
C57   H28   S    
C5    C67   A    
C1    O13   A    
C8    C56   A    
C7    C8    A    
C39   C41   A    
C53   C54   A    
Cr4   O26   S    
C64   H25   S    
C12   C68   A    
C26   C27   S    
C49   C65   S    
C13   C18   S    
C15   H39   S    
C36   C37   S    
C10   C15   A    
C16   O1    A    
C30   C31   A    
C64   C71   A    
Cr2   O19   S    
C14   H38   S    
C55   H26   S    
C11   C13   A    
C27   H7    S    
C65   O5    A    
C20   C61   S    
C39   C62   S    
C33   H8    S    
C24   C29   A    
C56   H31   S    
Cr6   O3    S    
Cr5   O11   S    
C24   H3    S    
C46   H18   S    
Cr5   O28   S    
C18   H2    S    
C41   C46   S    
C70   C71   A    
C51   C57   S    
C60   O28   A    
C32   C38   A    
C43   C48   A    
C26   H33   S    
C63   O9    A    
Cr4   O11   S    
C17   H40   S    
Cr6   O11   S    
C69   O21   S    
Cr3   O23   S    
Cr2   O13   S    
Cr5   O27   S    
C21   C22   A    
C66   H29   S    
C50   C51   A    
C36   H10   S    
C23   C60   S    
C37   H14   S    
Cr4   O5    S    
C28   O19   A    
C24   C25   A    
C3    C8    S    
C44   H16   S    
C62   O7    A    
Cr6   O2    S    
C13   C19   A    
C42   C48   A    
C36   H9    S    
C67   H13   S    
C52   O23   A    
C61   O3    A    
Cr4   O6    S    
C6    H23   S    
C43   C44   A    
C1    O4    A    
C3    C9    A    
C70   H32   S    
C40   O22   A    
C61   O25   A    
C31   C32   A    
C46   H17   S    
C47   H19   S    
C50   C55   S    
Cr3   O16   S    
Cr1   O1    S    
C1    C29   S    
C17   C18   S    
H36   O21   S    
C51   C58   A    
Cr6   O10   S    
C32   C37   S    
C6    C7    A    
Cr6   O9    S    
C34   C45   A    
C17   H41   S    
C30   C35   A    
Cr1   O18   S    
C68   H30   S    
C40   O12   A    
Cr2   O14   S    
C27   H35   S    
C22   C27   S    
C55   C57   S    
Cr1   O4    S    
C25   H5    S    
C52   O17   A    
C54   H22   S    
Cr3   O24   S    
C59   O26   A    
C4    O15   A    
Cr2   O24   S    
C57   H27   S    
C12   C70   A    
C46   C47   S    
C11   C17   S    
C14   C15   A    
C14   C19   A    
Cr3   O22   S    
C28   O18   A    
C33   C38   A    
C12   C45   S    
C62   O6    A    
C65   O10   A    
C53   C58   A    
C39   C44   A    
C28   C58   S    
C53   H21   S    
C56   C67   A    
C55   H24   S    
C43   H15   S    
C47   H20   S    
C2    C3    A    
C34   H1    S    
C38   C40   S    
C2    H37   S    
C5    C6    A    
C16   C19   S    
Cr3   O15   S    
C33   C35   A    
C7    H34   S    
C9    C34   A    
C10   C59   S    
C42   C47   S    
C60   O2    A    
C63   O8    A    
Cr1   O17   S    
C10   C11   A    
C59   O27   A    
C48   C52   S    
C20   C21   A    
C35   C69   S    
Cr4   O25   S    
C49   C50   A    
C20   C25   A    
C2    C23   A    
Cr5   O8    S    
C31   C36   S    
C4    C9    S    
C30   C63   S    
C16   O16   A    
C18   H42   S    
C5    H12   S    
C49   C54   A    
C64   C66   A    
C4    O14   A    
C71   H4    S    
