data_mof_unit_35732.cif
_audit_creation_date              2012-12-10T19:00:46-0500
_audit_creation_method            fapswitch 2.2
_symmetry_space_group_name_H-M    P1
_symmetry_Int_Tables_number       1
_space_group_crystal_system       triclinic
_cell_length_a                    14.972735
_cell_length_b                    10.954155
_cell_length_c                    9.533605
_cell_angle_alpha                 90.330637
_cell_angle_beta                  89.673313
_cell_angle_gamma                 91.705044
_cell_volume                      1562.89919394

loop_
_atom_site_label
_atom_site_type_symbol
_atom_type_description
_atom_site_fract_x
_atom_site_fract_y
_atom_site_fract_z
_atom_type_partial_charge
C1    C     C_R   0.503044 0.262138 0.498847 0.785197
C2    C     C_R   0.909382 0.615239 0.518787 0.040210
C3    C     C_R   0.946577 0.279867 0.522708 0.053943
C4    C     C_R   0.040263 0.279082 0.516932 -0.216392
C5    C     C_R   0.090342 0.388665 0.506768 0.091729
C6    C     C_R   0.046818 0.501055 0.509400 0.053023
C7    C     C_R   0.097131 0.611770 0.516392 0.097640
C8    C     C_R   0.053970 0.721808 0.534645 -0.235062
C9    C     C_R   0.960792 0.723853 0.539957 0.018392
C10   C     C_R   0.183566 0.388419 0.501084 -0.194281
C11   C     C_R   0.232648 0.498838 0.502056 -0.050203
C12   C     C_R   0.328932 0.498288 0.500429 0.825064
C13   C     C_R   0.190127 0.610034 0.512001 -0.204250
C14   C     C_R   0.496675 0.063412 0.619723 0.031523
C15   C     C_R   0.513077 0.128920 0.496128 -0.107327
C16   C     C_R   0.542047 0.061922 0.375260 0.081696
C17   C     C_R   0.539925 0.933142 0.380077 -0.187911
C18   C     C_R   0.512197 0.870392 0.501391 -0.112539
C19   C     C_R   0.498753 0.937623 0.623540 0.081534
C20   C     C_3   0.426077 0.927836 0.731569 -0.244963
C21   C     C_3   0.422660 0.067336 0.726551 -0.256344
C22   C     C_R   0.546706 0.588590 0.073861 0.290414
C23   C     C_R   0.502226 0.737600 0.500435 0.794149
C24   C     C_R   0.447415 0.419692 0.074428 -0.071812
C25   C     C_R   0.447421 0.419695 0.925457 -0.055935
C26   C     C_R   0.546952 0.588258 0.926463 0.319798
C27   C     C_3   0.645235 0.614247 0.920151 -0.515697
C28   C     C_3   0.644887 0.615302 0.079375 -0.526168
C29   C     C_R   0.671028 0.503731 0.499672 0.787769
C30   C     C_R   0.815533 0.614349 0.516362 -0.223696
C31   C     C_R   0.767340 0.504934 0.499383 -0.060772
C32   C     C_R   0.810227 0.394885 0.492859 -0.251807
C33   C     C_R   0.903097 0.391422 0.505080 0.103978
C34   C     C_R   0.953150 0.502706 0.508379 0.019291
Cu1   Cu    Cu3+1 0.500000 0.499980 0.640670 0.975623
Cu2   Cu    Cu3+1 0.500000 0.500020 0.359330 0.958254
H1    H     H_    0.778611 0.697230 0.526690 0.167209
H2    H     H_    0.557822 0.881370 0.287415 0.147595
H3    H     H_    0.365211 0.878062 0.692030 0.162422
H4    H     H_    0.444157 0.114833 0.824859 0.150338
H5    H     H_    0.406242 0.353127 0.130339 0.147675
H6    H     H_    0.406244 0.353235 0.869466 0.177658
H7    H     H_    0.682977 0.537282 0.875137 0.222607
H8    H     H_    0.661709 0.705093 0.873813 0.221465
H9    H     H_    0.682849 0.539499 0.124710 0.229411
H10   H     H_    0.769876 0.312078 0.484732 0.132228
H11   H     H_    0.660725 0.706921 0.125117 0.200244
H12   H     H_    0.074328 0.193439 0.524868 0.146649
H13   H     H_    0.218174 0.303128 0.497402 0.145962
H14   H     H_    0.229609 0.694634 0.517397 0.140247
H15   H     H_    0.092927 0.805958 0.549782 0.165642
N1    N     N_R   0.500570 0.500930 0.147930 -0.193072
N2    N     N_R   0.500570 0.500890 0.852020 -0.198224
O1    O     O_R   0.500000 0.319640 0.618810 -0.582444
O2    O     O_R   0.500010 0.319680 0.381230 -0.591218
O3    O     O_R   0.370250 0.499950 0.618800 -0.556028
O4    O     O_R   0.370260 0.499990 0.381220 -0.571507
O5    O     O_R   0.499990 0.680320 0.618770 -0.580060
O6    O     O_R   0.500000 0.680360 0.381190 -0.574864
O7    O     O_R   0.629740 0.500010 0.618780 -0.585075
O8    O     O_R   0.629750 0.500050 0.381200 -0.587065
C35   C     C_2   0.458730 0.879859 0.869063 0.874341
O9    O     O_2   0.410767 0.809520 0.936816 -0.592622
O10   O     O_R   0.543491 0.914789 0.918594 -0.788718
H16   H     H_    0.558205 0.873284 0.009962 0.307253
C36   C     C_2   0.335740 0.110851 0.668443 0.852548
O11   O     O_2   0.295154 0.189739 0.731017 -0.612726
O12   O     O_R   0.301195 0.059636 0.544579 -0.769335
H17   H     H_    0.240657 0.091999 0.519742 0.316943
C37   C     C_3   0.894468 0.163465 0.558077 -0.343933
C38   C     C_3   0.842179 0.175429 0.698336 -0.363548
C39   C     C_3   0.752994 0.103361 0.696433 -0.778819
H18   H     H_    0.710349 0.134769 0.609649 0.238372
H19   H     H_    0.763206 0.004257 0.683853 0.284981
H20   H     H_    0.716751 0.117878 0.796602 0.241575
H21   H     H_    0.883775 0.144626 0.786540 0.212991
H22   H     H_    0.827374 0.271708 0.723775 0.229804
H23   H     H_    0.849270 0.139403 0.469436 0.214267
H24   H     H_    0.941213 0.087587 0.567596 0.221668
C40   C     C_2   0.920413 0.835592 0.591558 0.793265
O13   O     O_2   0.864208 0.886278 0.522215 -0.644027
O14   O     O_R   0.945894 0.880053 0.723424 -0.756542
H25   H     H_    0.906044 0.945772 0.759829 0.330275
C41   C     C_3   0.573001 0.120621 0.238630 -0.363432
C42   C     C_3   0.662898 0.189554 0.255671 -0.345533
C43   C     C_3   0.693239 0.249131 0.118576 -0.808498
H26   H     H_    0.704520 0.178101 0.037537 0.252846
H27   H     H_    0.642120 0.312425 0.080817 0.257031
H28   H     H_    0.756815 0.301790 0.135597 0.240509
H29   H     H_    0.657445 0.261612 0.336448 0.227460
H30   H     H_    0.714384 0.125202 0.290018 0.216219
H31   H     H_    0.582130 0.049923 0.156360 0.204091
H32   H     H_    0.520998 0.180037 0.196444 0.219430

loop_
_geom_bond_atom_site_label_1
_geom_bond_atom_site_label_2
_ccdc_geom_bond_type
C24   N1    A    
C23   O5    A    
C36   O12   S    
C28   H11   S    
C21   C36   S    
C37   H23   S    
C19   C20   S    
Cu2   O6    S    
C42   H30   S    
C7    C8    A    
C42   C43   S    
C23   O6    A    
C26   C27   S    
Cu1   O5    S    
C5    C6    A    
C14   C21   S    
C25   N2    A    
C30   C31   A    
C43   H27   S    
Cu1   N2    S    
C3    C33   A    
C15   C16   A    
C16   C41   S    
C18   C19   A    
C35   O10   S    
O12   H17   S    
C27   H8    S    
Cu1   Cu2   S    
C8    C9    A    
C37   C38   S    
C1    C15   S    
Cu2   N1    S    
C41   H32   S    
C2    C34   A    
C36   O11   D    
C37   H24   S    
C22   C28   S    
Cu1   O1    S    
C24   H5    S    
C39   H20   S    
C33   C34   A    
C29   O8    A    
C28   H9    S    
C18   C23   S    
C3    C37   S    
C24   C25   A    
C40   O14   S    
Cu2   O4    S    
C20   H3    S    
C43   H26   S    
C40   O13   D    
C6    C34   A    
C30   H1    S    
Cu1   O7    S    
C9    C40   S    
C2    C9    A    
C1    O1    A    
C35   O9    D    
C31   C32   A    
C29   O7    A    
C7    C13   A    
C42   H29   S    
C17   C18   A    
C41   C42   S    
C8    H15   S    
C12   O3    A    
C12   O4    A    
C39   H19   S    
C3    C4    A    
C26   N2    A    
C38   H22   S    
C22   N1    A    
C4    H12   S    
Cu1   O3    S    
C32   H10   S    
C14   C19   A    
C39   H18   S    
C43   H28   S    
C25   H6    S    
C11   C12   S    
C6    C7    A    
C2    C30   A    
C32   C33   A    
C1    O2    A    
C5    C10   A    
C29   C31   S    
Cu2   O2    S    
O10   H16   S    
C11   C13   A    
C38   H21   S    
C21   H4    S    
C17   H2    S    
C20   C35   S    
C10   C11   A    
C13   H14   S    
C27   H7    S    
C4    C5    A    
C38   C39   S    
C20   C21   S    
O14   H25   S    
C22   C26   A    
C27   C28   S    
C14   C15   A    
C41   H31   S    
C10   H13   S    
Cu2   O8    S    
C16   C17   A    
