data_mof_unit_28859.cif
_audit_creation_date              2013-03-05T15:45:32-0500
_audit_creation_method            fapswitch 2.2
_symmetry_space_group_name_H-M    P1
_symmetry_Int_Tables_number       1
_space_group_crystal_system       triclinic
_cell_length_a                    10.951653
_cell_length_b                    10.882173
_cell_length_c                    18.760966
_cell_angle_alpha                 90.006795
_cell_angle_beta                  89.657785
_cell_angle_gamma                 60.107952
_cell_volume                      1938.39379551

loop_
_atom_site_label
_atom_site_type_symbol
_atom_site_description
_atom_site_fract_x
_atom_site_fract_y
_atom_site_fract_z
_atom_type_partial_charge
O1    O     O_R   0.507430 0.255570 0.581420 -0.517333
O2    O     O_R   0.280190 0.527390 0.578910 -0.499042
C1    C     C_R   0.233895 0.647855 0.608889 0.537529
O3    O     O_R   0.260310 0.739740 0.584580 -0.523084
O4    O     O_R   0.532250 0.695150 0.573830 -0.519007
C2    C     C_R   0.651296 0.617862 0.603256 0.532809
O5    O     O_R   0.744930 0.503430 0.576380 -0.450940
O6    O     O_R   0.699250 0.276390 0.571950 -0.469511
C3    C     C_R   0.626620 0.230350 0.603530 0.529871
O7    O     O_R   0.499020 0.256400 0.419850 -0.517523
O8    O     O_R   0.272400 0.528160 0.429140 -0.479492
C4    C     C_R   0.220820 0.649639 0.401636 0.554540
O9    O     O_R   0.251910 0.740570 0.423020 -0.522263
O10   O     O_R   0.524460 0.695920 0.424060 -0.516526
C5    C     C_R   0.645312 0.626498 0.393869 0.567959
O11   O     O_R   0.736530 0.504260 0.414810 -0.448070
O12   O     O_R   0.691460 0.277160 0.422180 -0.508626
C6    C     C_R   0.617669 0.229352 0.394894 0.536480
Cr1   Cr    Cr6+3 0.392930 0.397900 0.502230 1.065354
Cr2   Cr    Cr6+3 0.398240 0.708600 0.501260 1.029548
Cr3   Cr    Cr6+3 0.708800 0.393470 0.496460 1.108090
O13   O     O_3   0.499990 0.499990 0.499980 -0.278800
C7    C     C_3   0.535644 0.750574 0.796140 -0.260220
H1    H     H_    0.492115 0.865852 0.806180 0.157098
H2    H     H_    0.474058 0.715296 0.829157 0.155922
C8    C     C_3   0.520034 0.726965 0.716492 -0.268920
H3    H     H_    0.460341 0.669544 0.711303 0.139271
H4    H     H_    0.457876 0.831841 0.690177 0.156251
H5    H     H_    0.739797 0.835158 0.785714 0.121066
H6    H     H_    0.687264 0.827004 0.669198 0.113476
C9    C     C_3   0.774291 0.723666 0.770609 -0.217176
C10   C     C_3   0.748798 0.508369 0.799245 -0.212112
C11   C     C_3   0.693363 0.666596 0.816035 0.020760
H7    H     H_    0.857985 0.440170 0.818952 0.186832
H8    H     H_    0.682657 0.472103 0.827318 0.135901
C12   C     C_3   0.667664 0.637920 0.679969 0.029138
C13   C     C_3   0.749406 0.717404 0.690522 -0.232783
C14   C     C_3   0.744041 0.488968 0.718679 0.115445
H9    H     H_    0.679075 0.438617 0.709507 0.109276
H10   H     H_    0.888558 0.660111 0.781468 0.155900
H11   H     H_    0.851095 0.665815 0.660872 0.174483
C15   C     C_R   0.779697 0.082071 0.702084 -0.120034
H12   H     H_    0.858513 0.010057 0.664520 0.135443
C16   C     C_R   0.800870 0.057899 0.775002 -0.169763
H13   H     H_    0.892601 0.962868 0.793288 0.124314
C17   C     C_R   0.698109 0.149619 0.823927 0.043769
C18   C     C_R   0.577278 0.269526 0.800307 0.199263
C19   C     C_R   0.553717 0.291152 0.727609 -0.111996
H14   H     H_    0.460359 0.384770 0.709172 0.141673
C20   C     C_R   0.653655 0.196324 0.678446 0.007011
C21   C     C_R   0.177347 0.560772 0.719057 -0.131289
H15   H     H_    0.189556 0.468140 0.691333 0.192812
C22   C     C_R   0.161840 0.568825 0.792693 -0.084226
H16   H     H_    0.151593 0.486957 0.820299 0.182412
C23   C     C_R   0.159423 0.681966 0.830076 0.057654
C24   C     C_R   0.169784 0.787717 0.792839 -0.155454
H17   H     H_    0.165762 0.877742 0.819789 0.149599
C25   C     C_R   0.174804 0.784888 0.719628 -0.158035
H18   H     H_    0.180214 0.870278 0.692858 0.165816
C26   C     C_R   0.184274 0.668718 0.682192 -0.002884
C27   C     C_R   0.808061 0.605030 0.294838 0.224716
C28   C     C_R   0.823698 0.621659 0.222924 -0.105033
H19   H     H_    0.926688 0.559822 0.198699 0.157322
C29   C     C_R   0.708062 0.712249 0.181432 -0.021296
C30   C     C_R   0.575278 0.792794 0.213334 -0.149875
H20   H     H_    0.484596 0.864715 0.182213 0.147454
C31   C     C_R   0.557188 0.773657 0.285238 -0.180230
H21   H     H_    0.451865 0.829303 0.307736 0.149155
C32   C     C_R   0.672020 0.674961 0.325791 0.031509
C33   C     C_R   0.564284 0.132944 0.290572 -0.137746
H22   H     H_    0.496368 0.107403 0.321814 0.147328
C34   C     C_R   0.561242 0.125498 0.217728 -0.137595
H23   H     H_    0.495711 0.087731 0.194525 0.140631
C35   C     C_R   0.647911 0.157904 0.175918 0.029148
C36   C     C_R   0.732750 0.204702 0.207330 -0.146577
H24   H     H_    0.801686 0.227795 0.175469 0.144388
C37   C     C_R   0.733488 0.215343 0.280660 -0.144970
H25   H     H_    0.796760 0.255551 0.304268 0.169062
C38   C     C_R   0.648027 0.180593 0.322370 0.020063
C39   C     C_R   0.053249 0.806971 0.311839 -0.116200
H26   H     H_    0.013171 0.896180 0.348289 0.130243
C40   C     C_R   0.009747 0.828923 0.241586 -0.136427
H27   H     H_    0.935524 0.934578 0.224006 0.130979
C41   C     C_R   0.066705 0.715594 0.193381 0.017120
C42   C     C_R   0.163463 0.578537 0.215736 -0.114010
H28   H     H_    0.209313 0.490138 0.178734 0.144744
C43   C     C_R   0.206512 0.556246 0.285833 -0.074274
H29   H     H_    0.286568 0.450804 0.301746 0.153101
C44   C     C_R   0.153381 0.670885 0.333604 0.065356
O14   O     O_R   0.089490 0.825610 0.930610 -0.519965
O15   O     O_R   0.818370 0.054540 0.929880 -0.508730
C45   C     C_R   0.703687 0.100699 0.896109 0.598178
O16   O     O_R   0.605870 0.077310 0.915530 -0.471996
O17   O     O_R   0.646440 0.806700 0.917570 -0.501881
C46   C     C_R   0.718493 0.683814 0.890972 0.555865
O18   O     O_R   0.837200 0.593290 0.915250 -0.522289
O19   O     O_R   0.065330 0.635370 0.931590 -0.489445
C47   C     C_R   0.113760 0.708906 0.904070 0.590436
O20   O     O_R   0.068300 0.828790 0.091860 -0.490362
O21   O     O_R   0.798730 0.057480 0.079370 -0.523382
C48   C     C_R   0.673774 0.108060 0.103617 0.547878
O22   O     O_R   0.584680 0.080480 0.076790 -0.519769
O23   O     O_R   0.626790 0.809640 0.067050 -0.494432
C49   C     C_R   0.731882 0.718473 0.105319 0.545524
O24   O     O_R   0.816010 0.596460 0.076500 -0.508729
O25   O     O_R   0.045680 0.638310 0.081070 -0.514292
C50   C     C_R   0.030076 0.744682 0.119333 0.529735
Cr4   Cr    Cr6+3 0.937620 0.938540 0.007640 1.029125
Cr5   Cr    Cr6+3 0.625150 0.937450 0.994520 1.040693
Cr6   Cr    Cr6+3 0.937990 0.625080 0.001190 1.036363
O26   O     O_3   0.833590 0.833690 0.001120 -0.309108
N1    N     N_R   0.887175 0.391660 0.691743 0.098819
O27   O     O_R   0.989311 0.417862 0.701964 -0.396927
O28   O     O_R   0.917045 0.268707 0.665973 -0.323132
Cl1   Cl    Cl    0.458572 0.394012 0.861856 -0.658794
Cl2   Cl    Cl    0.962330 0.489982 0.342118 -0.615124

loop_
_geom_bond_atom_site_label_1
_geom_bond_atom_site_label_2
_geom_bond_distance
_ccdc_geom_bond_type
C23   C24   1.398094 A    
C48   O22   1.262207 A    
C22   C23   1.405552 A    
C46   O18   1.264388 A    
O24   Cr6   2.066419 S    
N1    O28   1.301036 A    
O19   C47   1.268122 A    
O4    Cr2   1.959288 S    
C42   H28   1.083342 S    
C24   H17   1.083484 S    
C18   Cl1   1.756401 S    
O20   Cr4   2.072427 S    
O8    Cr1   1.946565 S    
C8    H3    1.111393 S    
O11   Cr3   2.062067 S    
C45   O16   1.269747 A    
C12   C13   1.537075 S    
Cr5   O26   1.983825 S    
O4    C2    1.275798 A    
C39   H26   1.083630 S    
C17   C45   1.445600 S    
O25   C50   1.298326 A    
C25   C26   1.403725 A    
C5    O11   1.265732 A    
C41   C50   1.439159 S    
C9    H10   1.107374 S    
C7    C8    1.541053 S    
C39   C44   1.396138 A    
Cr6   O26   1.968168 S    
C49   O24   1.295648 A    
C28   C29   1.396127 A    
C2    C12   1.480929 S    
C6    C38   1.435968 S    
C7    C11   1.546732 S    
C7    H1    1.113210 S    
C9    C11   1.561170 S    
C33   H22   1.083933 S    
C10   C14   1.530922 S    
C37   H25   1.083322 S    
C1    C26   1.451258 S    
C19   C20   1.405520 A    
O2    Cr1   1.955453 S    
Cr3   O13   1.983326 S    
C27   C28   1.382217 A    
C15   C16   1.391940 A    
C31   H21   1.083170 S    
C11   C46   1.464024 S    
N1    O27   1.299887 A    
C16   C17   1.404673 A    
O12   C6    1.268745 A    
C37   C38   1.405497 A    
C5    C32   1.464373 S    
O21   Cr4   1.952617 S    
O1    Cr1   2.065325 S    
C35   C36   1.395714 A    
C42   C43   1.379885 A    
C21   H15   1.081314 S    
C10   H8    1.112771 S    
O10   Cr2   1.952810 S    
C4    C44   1.438455 S    
Cr1   O13   1.976988 S    
O1    C3    1.265177 A    
C41   C42   1.397656 A    
C34   C35   1.401923 A    
O15   C45   1.269622 A    
O6    C3    1.275300 A    
C30   C31   1.392968 A    
C25   H18   1.083435 S    
O5    Cr3   2.077295 S    
O18   Cr6   2.083123 S    
O12   Cr3   1.955098 S    
C9    C13   1.536172 S    
H6    C13   1.113565 S    
C31   C32   1.406870 A    
C10   H7    1.112731 S    
C36   H24   1.083589 S    
C28   H19   1.081135 S    
C18   C19   1.387769 A    
O7    Cr1   2.074706 S    
C27   Cl2   1.765939 S    
O6    Cr3   1.942041 S    
C36   C37   1.381002 A    
C15   C20   1.394533 A    
C35   C48   1.434021 S    
C8    C12   1.564466 S    
C19   H14   1.081191 S    
Cr2   O13   1.968262 S    
C30   H20   1.082598 S    
C40   C41   1.397924 A    
C43   C44   1.402879 A    
C15   H12   1.083616 S    
C14   N1    1.473032 S    
C1    O3    1.256324 A    
C16   H13   1.079381 S    
O25   Cr6   1.961595 S    
C27   C32   1.412632 A    
C29   C49   1.457703 S    
C17   C18   1.391466 A    
O9    Cr2   2.077577 S    
C33   C38   1.395098 A    
O15   Cr4   1.951236 S    
C3    C20   1.447764 S    
C34   H23   1.082183 S    
O8    C4    1.261843 A    
C22   H16   1.083326 S    
C2    O5    1.255928 A    
O20   C50   1.287654 A    
O17   Cr5   1.956479 S    
C8    H4    1.113296 S    
Cr4   O26   1.977917 S    
O23   Cr5   1.939646 S    
C10   C11   1.545391 S    
C12   C14   1.584488 S    
O2    C1    1.275089 A    
O14   Cr4   2.073311 S    
H5    C9    1.112140 S    
C29   C30   1.400076 A    
O19   Cr6   1.948424 S    
C14   H9    1.107277 S    
O7    C6    1.267192 A    
C23   C47   1.452114 S    
O21   C48   1.274497 A    
C39   C40   1.383950 A    
C24   C25   1.373997 A    
C7    H2    1.113167 S    
C13   H11   1.110941 S    
O17   C46   1.266214 A    
O3    Cr2   2.074023 S    
C4    O9    1.262299 A    
C43   H29   1.083928 S    
C40   H27   1.078521 S    
O23   C49   1.302422 A    
O10   C5    1.279696 A    
O22   Cr5   2.074851 S    
C33   C34   1.370608 A    
C21   C26   1.397270 A    
C21   C22   1.388284 A    
O14   C47   1.262239 A    
O16   Cr5   2.059389 S    
