data_mof_unit_6495.cif
_audit_creation_date              2012-10-26T19:03:31-0400
_audit_creation_method            fapswitch 2.2
_symmetry_space_group_name_H-M    P1
_symmetry_Int_Tables_number       1
_space_group_crystal_system       triclinic
_cell_length_a                    10.778756
_cell_length_b                    12.992802
_cell_length_c                    11.672279
_cell_angle_alpha                 99.593385
_cell_angle_beta                  92.657588
_cell_angle_gamma                 91.400526
_cell_volume                      1609.20610176

loop_
_atom_site_label
_atom_site_type_symbol
_atom_type_description
_atom_site_fract_x
_atom_site_fract_y
_atom_site_fract_z
_atom_type_partial_charge
C1    C     C_R   0.496985 0.299109 0.478833 0.541193
C2    C     C_R   0.463495 0.123573 0.357904 -0.136533
C3    C     C_R   0.511360 0.139088 0.565722 -0.125585
C4    C     C_R   0.262577 0.499002 0.501350 0.535668
C5    C     C_R   0.504741 0.031067 0.555993 0.054649
C6    C     C_R   0.476552 0.968777 0.446114 0.047846
C7    C     C_R   0.471124 0.860715 0.436240 -0.142275
C8    C     C_R   0.522736 0.876256 0.643425 -0.098857
C9    C     C_R   0.526759 0.984378 0.654296 -0.113207
C10   C     C_R   0.385611 0.398280 0.023704 -0.173261
C11   C     C_R   0.396244 0.408479 0.145629 0.048083
C12   C     C_R   0.072927 0.600086 0.544880 -0.029583
C13   C     C_R   0.549031 0.544413 0.155973 0.047051
C14   C     C_R   0.541430 0.537060 0.033446 0.008562
C15   C     C_R   0.458578 0.462875 0.966525 0.007867
C16   C     C_R   0.497816 0.700732 0.521412 0.588034
C17   C     C_R   0.451083 0.455433 0.843969 0.047684
C18   C     C_R   0.603624 0.591629 0.854401 0.048146
C19   C     C_R   0.614332 0.601738 0.976311 -0.174666
C20   C     C_R   0.737695 0.504416 0.498870 0.608980
C21   C     C_R   0.144118 0.691453 0.591938 -0.131518
C22   C     C_R   0.087145 0.786477 0.623607 -0.047718
C23   C     C_R   0.129470 0.504731 0.505250 0.016845
C24   C     C_R   0.959677 0.793035 0.602477 -0.106733
C25   C     C_R   0.887814 0.704294 0.551928 0.262284
C26   C     C_R   0.942122 0.604766 0.532436 0.019971
C27   C     C_1   0.160868 0.878877 0.671581 0.186909
C28   C     C_3   0.777428 0.744829 0.397725 -0.115888
C29   C     C_R   0.058504 0.414578 0.460947 -0.149388
C30   C     C_R   0.930351 0.416775 0.458604 -0.163577
C31   C     C_R   0.871753 0.510273 0.495122 0.011333
C32   C     C_R   0.496164 0.814108 0.534211 0.020980
C33   C     C_R   0.491180 0.185694 0.466959 -0.000198
C34   C     C_R   0.455824 0.015478 0.347608 -0.138996
Cu1   Cu    Cu3+1 0.509250 0.507730 0.615930 0.953027
Cu2   Cu    Cu3+1 0.490750 0.492270 0.384070 0.942933
H1    H     H_    0.102759 0.341823 0.430084 0.115546
H2    H     H_    0.612811 0.600791 0.208299 0.103090
H3    H     H_    0.244101 0.689929 0.604172 0.141162
H4    H     H_    0.916366 0.868115 0.619545 0.128446
H5    H     H_    0.876373 0.345061 0.428496 0.118196
H6    H     H_    0.449609 0.813015 0.351854 0.113134
H7    H     H_    0.542046 0.841422 0.720169 0.130224
H8    H     H_    0.434305 0.968542 0.262872 0.106197
H9    H     H_    0.822312 0.682745 0.337471 0.111901
H10   H     H_    0.827940 0.821190 0.401733 0.110408
H11   H     H_    0.682978 0.753180 0.360020 0.139187
H12   H     H_    0.548239 0.031306 0.739039 0.107205
H13   H     H_    0.446963 0.158444 0.280745 0.128745
H14   H     H_    0.532968 0.186640 0.650177 0.123240
H15   H     H_    0.387513 0.398809 0.791498 0.119970
H16   H     H_    0.659949 0.641899 0.811053 0.134201
H17   H     H_    0.320963 0.340338 0.974696 0.094479
H18   H     H_    0.678948 0.659694 0.025357 0.082358
H19   H     H_    0.339821 0.358292 0.188979 0.124301
N1    N     N_R   0.523180 0.519350 0.790130 -0.234029
N2    N     N_R   0.476820 0.480650 0.209890 -0.230801
N3    N     N_1   0.220018 0.953173 0.710092 -0.310606
O1    O     O_R   0.506570 0.354460 0.582000 -0.513072
O2    O     O_R   0.490940 0.341410 0.386200 -0.514095
O3    O     O_R   0.327470 0.506530 0.597920 -0.511271
O4    O     O_R   0.311840 0.493480 0.402120 -0.504304
O5    O     O_R   0.509060 0.658590 0.613800 -0.503330
O6    O     O_R   0.493430 0.645540 0.418000 -0.508535
O7    O     O_R   0.688160 0.506520 0.597880 -0.488873
O8    O     O_R   0.672530 0.493470 0.402080 -0.493995
O9    O     O_3   0.768876 0.717956 0.509692 -0.569144

loop_
_geom_bond_atom_site_label_1
_geom_bond_atom_site_label_2
_ccdc_geom_bond_type
C14   C19   A    
C28   H11   S    
C5    C9    A    
C6    C7    A    
C16   O5    A    
C16   C32   S    
Cu1   Cu2   S    
C25   O9    S    
C8    H7    S    
C18   N1    A    
C10   C15   A    
C11   H19   S    
C29   H1    S    
C17   H15   S    
C22   C24   A    
C25   C26   A    
C3    C5    A    
C1    C33   S    
C26   C31   A    
Cu1   O3    S    
Cu2   O6    S    
C13   C14   A    
C12   C23   A    
C28   H10   S    
C13   H2    S    
C29   C30   A    
C12   C21   A    
Cu2   O4    S    
C5    C6    A    
C23   C29   A    
C2    C33   A    
C21   C22   A    
C2    H13   S    
C3    H14   S    
Cu2   N2    S    
C17   N1    A    
C22   C27   S    
C1    O1    A    
C30   C31   A    
C2    C34   A    
Cu2   O8    S    
C28   H9    S    
C7    H6    S    
C30   H5    S    
C13   N2    A    
C10   C11   A    
C3    C33   A    
C18   H16   S    
C8    C32   A    
C4    O4    A    
C20   O7    A    
C28   O9    S    
C34   H8    S    
C24   C25   A    
C19   H18   S    
C9    H12   S    
Cu1   O1    S    
C18   C19   A    
C1    O2    A    
C20   O8    A    
C15   C17   A    
C4    C23   S    
Cu1   O7    S    
C14   C15   A    
C10   H17   S    
Cu1   O5    S    
C7    C32   A    
C16   O6    A    
C24   H4    S    
Cu1   N1    S    
C11   N2    A    
C4    O3    A    
C20   C31   S    
C6    C34   A    
C12   C26   A    
C8    C9    A    
Cu2   O2    S    
C27   N3    T    
C21   H3    S    
