data_mof_unit_18666.cif
_audit_creation_date              2012-12-11T16:17:47-0500
_audit_creation_method            fapswitch 2.2
_symmetry_space_group_name_H-M    P1
_symmetry_Int_Tables_number       1
_space_group_crystal_system       triclinic
_cell_length_a                    6.91821
_cell_length_b                    28.769119
_cell_length_c                    32.069239
_cell_angle_alpha                 101.072151
_cell_angle_beta                  89.429459
_cell_angle_gamma                 90.181398
_cell_volume                      6263.64282021

loop_
_atom_site_label
_atom_site_type_symbol
_atom_type_description
_atom_site_fract_x
_atom_site_fract_y
_atom_site_fract_z
_atom_type_partial_charge
O1    O     O_R   0.494350 0.453160 0.452490 -0.529708
O2    O     O_R   0.820990 0.455850 0.538220 -0.555369
O3    O     O_R   0.994300 0.546840 0.547510 -0.553191
C1    C     C_R   0.651548 0.444461 0.550743 0.687357
O4    O     O_R   0.823860 0.447580 0.452250 -0.540885
O5    O     O_R   0.997190 0.538510 0.460920 -0.533533
C2    C     C_R   0.655434 0.434042 0.436852 0.701431
O6    O     O_R   0.491450 0.461490 0.539080 -0.529187
O7    O     O_3   0.661790 0.529840 0.502950 -0.371388
V1    V     V_3+5 0.935470 0.494460 0.499450 1.437097
O8    O     O_R   0.327090 0.544150 0.461780 -0.534817
C3    C     C_R   0.158862 0.554286 0.448370 0.667700
O9    O     O_R   0.324210 0.552420 0.547750 -0.540434
C4    C     C_R   0.153822 0.565042 0.563984 0.696874
V2    V     V_3+5 0.435840 0.505540 0.500550 1.459170
O10   O     O_3   0.159650 0.470160 0.497050 -0.363042
C5    C     C_R   0.973948 0.611126 0.629847 -0.015679
C6    C     C_R   0.975707 0.647311 0.666145 -0.179716
H1    H     H_    0.847781 0.652578 0.686280 0.201988
C7    C     C_R   0.136344 0.676964 0.676832 -0.052882
C8    C     C_R   0.302494 0.669482 0.650452 0.420529
C9    C     C_R   0.302401 0.633084 0.613909 -0.208269
H2    H     H_    0.430073 0.628123 0.593742 0.113850
C10   C     C_R   0.140483 0.603625 0.602767 -0.156098
N1    N     N_R   0.284009 0.738538 0.733027 -0.186154
N2    N     N_R   0.270232 0.772566 0.767638 -0.274662
C11   C     C_R   0.095713 0.785172 0.786250 0.501744
N3    N     N_R   0.935754 0.762217 0.768663 -0.262174
N4    N     N_R   0.949656 0.728218 0.734119 -0.267102
C12   C     C_R   0.123908 0.715544 0.715412 0.560235
C13   C     C_R   0.898350 0.836977 0.843433 -0.115898
H3    H     H_    0.767093 0.820148 0.829883 0.142945
C14   C     C_R   0.883592 0.872891 0.879673 -0.159166
H4    H     H_    0.741651 0.882675 0.892959 0.120956
C15   C     C_R   0.049969 0.895866 0.898377 -0.052425
C16   C     C_R   0.231323 0.881847 0.879911 -0.145500
H5    H     H_    0.362872 0.898685 0.893305 0.122140
C17   C     C_R   0.245996 0.846047 0.843712 -0.124319
H6    H     H_    0.388095 0.836406 0.830457 0.135540
C18   C     C_R   0.079814 0.823141 0.824909 0.026512
C19   C     C_R   0.269609 0.679403 0.298907 0.602862
N5    N     N_R   0.120435 0.678686 0.327089 -0.563496
C20   C     C_R   0.962056 0.707339 0.327445 0.560263
C21   C     C_R   0.951434 0.740167 0.299448 -0.100532
C22   C     C_R   0.101282 0.739153 0.268729 0.021360
C23   C     C_R   0.261610 0.708864 0.268707 0.004648
C24   C     C_R   0.796188 0.772948 0.299911 -0.034814
C25   C     C_R   0.788143 0.800773 0.268353 -0.117762
C26   C     C_R   0.933836 0.798872 0.237411 -0.080044
C27   C     C_R   0.091732 0.768381 0.237788 0.000676
C28   C     C_R   0.240292 0.766993 0.207079 -0.024877
C29   C     C_R   0.399855 0.737199 0.208036 -0.128809
C30   C     C_R   0.410611 0.708616 0.238507 -0.129463
C31   C     C_R   0.926774 0.827577 0.206367 0.715070
N6    N     N_R   0.070294 0.825119 0.176181 -0.527759
C32   C     C_R   0.225497 0.795547 0.176086 0.669754
O11   O     O_2   0.424237 0.651131 0.299737 -0.505142
O12   O     O_2   0.813792 0.702609 0.353862 -0.517743
H7    H     H_    0.669083 0.825271 0.268769 0.211017
O13   O     O_2   0.777022 0.857458 0.206127 -0.497715
O14   O     O_2   0.365202 0.793893 0.146194 -0.490940
H8    H     H_    0.517204 0.735837 0.185223 0.195823
H9    H     H_    0.536074 0.686109 0.238170 0.166972
C33   C     C_R   0.945523 0.839838 0.107109 -0.035118
C34   C     C_R   0.931260 0.869815 0.076592 -0.116316
C35   C     C_R   0.040498 0.912265 0.081815 -0.089814
C36   C     C_R   0.157857 0.924809 0.117509 -0.252762
H10   H     H_    0.240206 0.957489 0.121409 0.113909
C37   C     C_R   0.164846 0.897422 0.149191 -0.017186
C38   C     C_R   0.058366 0.854520 0.144273 0.324616
C39   C     C_R   0.225044 0.660955 0.395141 -0.020228
H11   H     H_    0.289042 0.696002 0.401587 0.174937
C40   C     C_R   0.237978 0.631392 0.425161 -0.057223
C41   C     C_R   0.150305 0.585925 0.416585 -0.210457
C42   C     C_R   0.050172 0.571038 0.377677 -0.068415
C43   C     C_R   0.044123 0.601124 0.347147 -0.017892
C44   C     C_R   0.128696 0.646596 0.356737 0.242036
C45   C     C_R   0.606779 0.224202 0.838054 0.592594
N7    N     N_R   0.576159 0.176553 0.825568 -0.541782
C46   C     C_R   0.549748 0.156536 0.783611 0.559021
C47   C     C_R   0.563216 0.184419 0.751493 -0.107642
C48   C     C_R   0.586778 0.234065 0.764606 -0.004493
C49   C     C_R   0.609208 0.253948 0.808075 -0.029381
C50   C     C_R   0.548559 0.165273 0.707115 -0.046543
C51   C     C_R   0.545546 0.195957 0.677870 -0.101707
C52   C     C_R   0.565770 0.245050 0.690965 -0.075702
C53   C     C_R   0.588083 0.264173 0.734337 -0.013582
C54   C     C_R   0.612056 0.313527 0.747497 -0.029819
C55   C     C_R   0.634842 0.332564 0.790855 -0.133267
C56   C     C_R   0.633722 0.303160 0.820737 -0.135170
C57   C     C_R   0.569193 0.275492 0.661340 0.601861
N8    N     N_R   0.595041 0.323323 0.674552 -0.559513
C58   C     C_R   0.615169 0.342646 0.716809 0.583445
O15   O     O_2   0.634680 0.242813 0.879495 -0.508321
O16   O     O_2   0.503323 0.110250 0.773555 -0.534048
H12   H     H_    0.534251 0.181048 0.644270 0.206344
O17   O     O_2   0.546975 0.257382 0.619621 -0.496951
O18   O     O_2   0.640985 0.389777 0.729082 -0.509857
H13   H     H_    0.653996 0.370287 0.801886 0.179477
H14   H     H_    0.651547 0.319225 0.853896 0.181002
C59   C     C_R   0.465797 0.386417 0.640108 -0.036857
H15   H     H_    0.341662 0.389964 0.661311 0.136338
C60   C     C_R   0.480683 0.415034 0.609545 -0.113358
H16   H     H_    0.367576 0.440688 0.608360 0.141233
C61   C     C_R   0.640055 0.411334 0.581336 -0.136402
C62   C     C_R   0.785447 0.377006 0.584090 -0.074900
C63   C     C_R   0.768705 0.348998 0.615487 -0.063909
H17   H     H_    0.877861 0.322761 0.617987 0.166848
C64   C     C_R   0.609915 0.353330 0.643336 0.321071
C65   C     C_R   0.708323 0.112205 0.857994 -0.082282
H18   H     H_    0.824252 0.107238 0.834633 0.142518
C66   C     C_R   0.699623 0.083480 0.888564 -0.210527
H19   H     H_    0.808144 0.056231 0.887661 0.151192
C67   C     C_R   0.550393 0.088954 0.919283 -0.158653
C68   C     C_R   0.411451 0.125456 0.919509 0.328074
C69   C     C_R   0.419539 0.153098 0.887972 -0.073282
H20   H     H_    0.311683 0.180294 0.887865 0.156882
C70   C     C_R   0.567700 0.146991 0.857284 0.296369
C71   C     C_R   0.502547 0.396998 0.368148 -0.131823
H21   H     H_    0.399636 0.425891 0.372779 0.142383
C72   C     C_R   0.491575 0.362378 0.330980 -0.104415
H22   H     H_    0.378680 0.365200 0.308459 0.159876
C73   C     C_R   0.623133 0.324506 0.323139 -0.071376
C74   C     C_R   0.766461 0.322328 0.353490 -0.105262
H23   H     H_    0.868945 0.293353 0.348455 0.165489
C75   C     C_R   0.777672 0.356386 0.391217 0.357087
C76   C     C_R   0.645643 0.395059 0.398670 -0.152326
N9    N     N_R   0.707970 0.245539 0.280535 -0.279022
N10   N     N_R   0.690346 0.211280 0.246239 -0.280452
C77   C     C_R   0.571606 0.216545 0.213917 0.506389
N11   N     N_R   0.475216 0.258227 0.217122 -0.271963
N12   N     N_R   0.491934 0.292404 0.251506 -0.263960
C78   C     C_R   0.608071 0.286783 0.284126 0.551889
C79   C     C_R   0.384157 0.170474 0.150095 -0.005358
C80   C     C_R   0.381704 0.134181 0.113509 -0.134036
H24   H     H_    0.251973 0.128452 0.094528 0.159203
C81   C     C_R   0.542382 0.104641 0.101560 -0.097432
C82   C     C_R   0.707881 0.111952 0.126937 -0.124538
H25   H     H_    0.833971 0.089688 0.118901 0.118884
C83   C     C_R   0.712319 0.147570 0.163436 -0.060188
H26   H     H_    0.842759 0.151798 0.182165 0.134334
C84   C     C_R   0.553318 0.177820 0.175481 -0.058342
O19   O     O_R   0.699050 0.038480 0.960880 -0.530976
O20   O     O_R   0.366680 0.052470 0.047720 -0.548210
O21   O     O_R   0.193410 0.961530 0.039110 -0.529009
C85   C     C_R   0.534879 0.065637 0.063437 0.690768
O22   O     O_R   0.369510 0.044100 0.961740 -0.535060
O23   O     O_R   0.196260 0.953110 0.952520 -0.538610
C86   C     C_R   0.539114 0.055428 0.949283 0.705858
O24   O     O_R   0.696210 0.046900 0.047470 -0.534657
O25   O     O_3   0.528780 0.970170 0.997070 -0.363391
V3    V     V_3+5 0.255080 0.005530 0.000540 1.451545
O26   O     O_R   0.866350 0.947520 0.952280 -0.546341
C87   C     C_R   0.036170 0.934524 0.936548 0.681465
O27   O     O_R   0.863520 0.955880 0.038260 -0.541686
C88   C     C_R   0.031857 0.945064 0.051115 0.691067
V4    V     V_3+5 0.754720 0.994440 0.999470 1.449252
O28   O     O_3   0.030880 0.029830 0.002930 -0.359613
C89   C     C_2   0.794339 0.582397 0.622327 0.363383
H27   H     H_    0.733800 0.572215 0.590956 0.075475
O29   O     O_2   0.706036 0.571247 0.652088 -0.511200
C90   C     C_2   0.855237 0.791739 0.098029 0.513605
H28   H     H_    0.825079 0.774698 0.065571 0.080242
O30   O     O_2   0.813691 0.770275 0.126200 -0.521167
C91   C     C_2   0.805600 0.856966 0.038705 0.372070
H29   H     H_    0.852556 0.864463 0.008280 0.043948
O31   O     O_2   0.645448 0.839800 0.041504 -0.517878
C92   C     C_2   0.286611 0.915383 0.186842 0.488867
H30   H     H_    0.378751 0.946031 0.186967 0.040091
O32   O     O_2   0.284526 0.897250 0.218260 -0.503948
C93   C     C_2   0.335277 0.649743 0.466243 0.432932
H31   H     H_    0.323101 0.631282 0.492602 0.030580
O33   O     O_2   0.429833 0.686290 0.471374 -0.509088
C94   C     C_2   0.950950 0.524224 0.369778 0.516818
H32   H     H_    0.017952 0.493947 0.379424 0.008384
O34   O     O_2   0.789870 0.519602 0.354287 -0.503371
C95   C     C_2   0.959166 0.585538 0.304262 0.542635
H33   H     H_    0.895482 0.611282 0.287833 0.058059
O35   O     O_2   0.967949 0.544305 0.285852 -0.488981
C96   C     C_2   0.550163 0.113661 0.689319 0.486573
H34   H     H_    0.632678 0.089514 0.704253 0.104175
O36   O     O_2   0.463668 0.097635 0.656676 -0.501923
C97   C     C_2   0.950244 0.367552 0.553588 0.425067
H35   H     H_    0.943628 0.377378 0.522748 0.053318
O37   O     O_2   0.095597 0.347547 0.562324 -0.516239
O38   O     O_3   0.462196 0.698302 0.660312 -0.614411
H36   H     H_    0.565611 0.688202 0.638880 0.292334
O39   O     O_3   0.268773 0.136121 0.950181 -0.621840
H37   H     H_    0.315778 0.127876 0.976885 0.299139
O40   O     O_3   0.915949 0.349502 0.420095 -0.630626
H38   H     H_    0.870834 0.364337 0.448898 0.281101
C98   C     C_2   0.204536 0.198063 0.162014 0.394203
H39   H     H_    0.173980 0.213997 0.194839 0.083928
O41   O     O_2   0.086154 0.202737 0.135125 -0.508076
C99   C     C_2   0.647253 0.782199 0.334219 0.460737
H40   H     H_    0.681022 0.778818 0.366393 0.118863
O42   O     O_2   0.485642 0.795676 0.327222 -0.525449

loop_
_geom_bond_atom_site_label_1
_geom_bond_atom_site_label_2
_ccdc_geom_bond_type
C17   C18   A    
N6    C32   A    
C42   C43   A    
V4    O28   S    
C99   O42   D    
O24   V4    S    
C3    C41   S    
O27   V4    S    
C19   N5    A    
C61   C62   A    
C15   C16   A    
C15   C87   S    
C1    O6    A    
N9    N10   A    
C65   C70   A    
C66   C67   A    
C67   C68   A    
C73   C74   A    
C31   O13   S    
C22   C23   A    
C21   C22   A    
C93   O33   D    
N2    C11   A    
C91   H29   S    
C55   H13   S    
O25   V4    S    
C24   C99   S    
N3    N4    A    
O22   C86   A    
C83   C84   A    
C28   C32   A    
C74   C75   A    
C52   C57   A    
C97   O37   D    
C89   H27   S    
O5    C3    A    
C17   H6    S    
C51   H12   S    
N8    C64   S    
C62   C63   A    
C59   C64   A    
C26   C31   A    
N7    C70   S    
C34   C91   S    
C13   C18   A    
C75   O40   S    
C6    H1    S    
C40   C41   A    
C4    C10   S    
C50   C96   S    
C94   H32   S    
C60   H16   S    
C20   O12   S    
C85   O24   A    
O21   C88   A    
O8    V2    S    
C45   C49   A    
C60   C61   A    
C24   C25   A    
C69   C70   A    
N12   C78   A    
C95   O35   D    
O25   V3    S    
C89   O29   D    
O1    V2    S    
C33   C38   A    
C40   C93   S    
O7    V1    S    
C21   C24   A    
C92   O32   D    
C35   C36   A    
C59   C60   A    
O9    C4    A    
C42   C94   S    
O26   V4    S    
C63   C64   A    
O23   C87   A    
C77   C84   S    
C56   H14   S    
C66   H19   S    
C57   O17   S    
C96   O36   D    
O19   V4    S    
C90   O30   D    
C71   C72   A    
C65   C66   A    
V3    O28   S    
C5    C10   A    
C41   C42   A    
C28   C29   A    
O21   V3    S    
C59   H15   S    
C81   C85   S    
C80   H24   S    
C50   C51   A    
C43   C44   A    
C33   C90   S    
C43   C95   S    
C55   C56   A    
C57   N8    A    
C39   C40   A    
C54   C58   A    
C45   N7    A    
C7    C12   S    
C99   H40   S    
C27   C28   A    
N1    N2    A    
C51   C52   A    
C47   C48   A    
C36   H10   S    
O39   H37   S    
C36   C37   A    
C98   O41   D    
C53   C54   A    
O2    C1    A    
C20   C21   A    
O40   H38   S    
N4    C12   A    
C79   C84   A    
C13   H3    S    
C11   C18   S    
C19   C23   A    
C7    C8    A    
C13   C14   A    
C5    C6    A    
C97   H35   S    
C65   H18   S    
C83   H26   S    
C46   O16   S    
C93   H31   S    
C72   H22   S    
O3    C4    A    
C82   C83   A    
O20   C85   A    
C92   H30   S    
C73   C78   S    
C48   C49   A    
O6    V2    S    
O9    V2    S    
C26   C27   A    
C9    C10   A    
N5    C20   A    
C63   H17   S    
C79   C98   S    
N11   N12   A    
O2    V1    S    
C39   C44   A    
C47   C50   A    
C29   C30   A    
C52   C53   A    
C25   H7    S    
O4    C2    A    
C90   H28   S    
C1    C61   S    
N1    C12   A    
C80   C81   A    
C49   C56   A    
C31   N6    A    
C16   H5    S    
O1    C2    A    
C9    H2    S    
O23   V3    S    
C46   C47   A    
O5    V1    S    
C71   H21   S    
C79   C80   A    
C8    O38   S    
C81   C82   A    
N10   C77   A    
C98   H39   S    
C16   C17   A    
C77   N11   A    
O26   C87   A    
C37   C92   S    
C19   O11   S    
O4    V1    S    
O20   V3    S    
O3    V1    S    
V1    O10   S    
N9    C78   A    
C33   C34   A    
C35   C88   S    
C68   O39   S    
C30   H9    S    
C22   C27   A    
C45   O15   S    
C75   C76   A    
C25   C26   A    
V2    O10   S    
C23   C30   A    
N8    C58   A    
C14   C15   A    
C14   H4    S    
C69   H20   S    
O22   V3    S    
C6    C7    A    
C34   C35   A    
O7    V2    S    
C37   C38   A    
C5    C89   S    
C94   O34   D    
C62   C97   S    
C72   C73   A    
N6    C38   S    
C82   H25   S    
N7    C46   A    
C48   C53   A    
O19   C86   A    
C39   H11   S    
C54   C55   A    
N5    C44   S    
C91   O31   D    
C95   H33   S    
O27   C88   A    
C32   O14   S    
C29   H8    S    
C67   C86   S    
C2    C76   S    
O38   H36   S    
C8    C9    A    
C58   O18   S    
C96   H34   S    
C68   C69   A    
O8    C3    A    
C74   H23   S    
C11   N3    A    
C71   C76   A    
