data_mof_unit_9427.cif
_audit_creation_date              2012-12-10T17:50:34-0500
_audit_creation_method            fapswitch 2.2
_symmetry_space_group_name_H-M    P1
_symmetry_Int_Tables_number       1
_space_group_crystal_system       triclinic
_cell_length_a                    15.730146
_cell_length_b                    10.687446
_cell_length_c                    9.924502
_cell_angle_alpha                 91.138487
_cell_angle_beta                  90.857782
_cell_angle_gamma                 91.683766
_cell_volume                      1667.20691119

loop_
_atom_site_label
_atom_site_type_symbol
_atom_type_description
_atom_site_fract_x
_atom_site_fract_y
_atom_site_fract_z
_atom_type_partial_charge
C1    C     C_R   0.503873 0.260740 0.498844 0.951569
C2    C     C_R   0.698640 0.081667 0.736108 0.075149
C3    C     C_R   0.690864 0.950030 0.749289 0.088045
C4    C     C_R   0.338088 0.498265 0.498938 0.879563
C5    C     C_R   0.631220 0.881423 0.668550 -0.213126
C6    C     C_R   0.572392 0.940478 0.584188 -0.035563
C7    C     C_R   0.576400 0.071060 0.575967 -0.060905
C8    C     C_R   0.514035 0.129025 0.495629 -0.047485
C9    C     C_R   0.455584 0.060378 0.415477 -0.221575
C10   C     C_R   0.454457 0.932744 0.418578 -0.170915
C11   C     C_R   0.510577 0.872967 0.503914 -0.036109
C12   C     C_3   0.083072 0.488331 0.492632 -0.068311
C13   C     C_R   0.387197 0.338461 0.134680 -0.226684
C14   C     C_R   0.331060 0.258977 0.062105 -0.298652
C15   C     C_R   0.330656 0.258763 0.922579 0.654380
C16   C     C_R   0.504033 0.739779 0.501483 0.834389
C17   C     C_R   0.386441 0.338076 0.854850 -0.210770
C18   C     C_R   0.443721 0.420943 0.925001 -0.025397
C19   C     C_R   0.443949 0.420918 0.069549 0.153298
C20   C     C_R   0.554975 0.573473 0.074362 -0.205767
C21   C     C_R   0.555414 0.572434 0.931424 0.648430
C22   C     C_R   0.662011 0.503371 0.500812 0.970512
C23   C     C_3   0.977230 0.557182 0.603510 0.614736
C24   C     C_3   0.967278 0.376682 0.499024 0.622047
C25   C     C_3   0.023033 0.427631 0.385278 0.111732
C26   C     C_1   0.249225 0.492501 0.496053 -0.164478
C27   C     C_1   0.750986 0.503238 0.501802 -0.139535
C28   C     C_3   0.028322 0.436149 0.607399 -0.353595
C29   C     C_3   0.052366 0.353075 0.262444 -0.360372
C30   C     C_3   0.977357 0.309716 0.172264 -0.795817
C31   C     C_3   0.744558 0.878543 0.848795 -0.428453
C32   C     C_3   0.804682 0.790696 0.777496 -0.670531
C33   C     C_3   0.073559 0.740453 0.485533 -0.375253
C34   C     C_3   0.916898 0.497095 0.496882 -0.084760
C35   C     C_3   0.006805 0.840666 0.477240 -0.764375
C36   C     C_3   0.765939 0.155144 0.821486 -0.419023
C37   C     C_3   0.775046 0.296674 0.804101 -0.638857
C38   C     C_3   0.032694 0.609086 0.490341 0.115182
C39   C     C_3   0.971715 0.549122 0.381754 -0.327915
C40   C     C_1   0.173959 0.488512 0.493559 0.000446
C41   C     C_1   0.826223 0.501314 0.500344 0.039462
C42   C     C_R   0.643666 0.139273 0.643438 0.585714
F1    F     F_    0.276335 0.180348 0.852006 -0.664577
F2    F     F_    0.613761 0.643304 0.867367 -0.707662
F3    F     F_    0.931295 0.257228 0.503386 -0.663775
F4    F     F_    0.952826 0.623771 0.716296 -0.688157
F5    F     F_    0.659727 0.258821 0.609297 -0.692374
H1    H     H_    0.631516 0.780981 0.673342 0.230505
H2    H     H_    0.932811 0.248342 0.228584 0.290697
H3    H     H_    0.942775 0.391523 0.134767 0.253281
H4    H     H_    0.000957 0.255940 0.084276 0.249932
H5    H     H_    0.096576 0.412923 0.203655 0.211562
H6    H     H_    0.087113 0.270286 0.296969 0.216632
H7    H     H_    0.769039 0.716364 0.718743 0.264354
H8    H     H_    0.846392 0.844613 0.709092 0.251772
H9    H     H_    0.844839 0.745116 0.854054 0.285313
H10   H     H_    0.783622 0.939836 0.917802 0.190355
H11   H     H_    0.702097 0.824390 0.915549 0.269741
H12   H     H_    0.407716 0.880247 0.357052 0.157634
H13   H     H_    0.966060 0.825446 0.385692 0.246717
H14   H     H_    0.966490 0.838734 0.567850 0.279921
H15   H     H_    0.038799 0.934421 0.472138 0.261274
H16   H     H_    0.113832 0.757550 0.577323 0.229062
H17   H     H_    0.114806 0.746210 0.395857 0.205881
H18   H     H_    0.797999 0.317982 0.701775 0.305380
H19   H     H_    0.714088 0.342827 0.824699 0.280086
H20   H     H_    0.823380 0.335639 0.877443 0.215704
H21   H     H_    0.751264 0.141110 0.929428 0.193569
H22   H     H_    0.829178 0.115637 0.801032 0.230735
H23   H     H_    0.600086 0.633486 0.130309 0.168307
H24   H     H_    0.384905 0.331851 0.241412 0.217992
H25   H     H_    0.288044 0.196598 0.114708 0.174934
H26   H     H_    0.383271 0.330583 0.747888 0.214708
H27   H     H_    0.947141 0.595185 0.290381 0.182964
H28   H     H_    0.052394 0.389953 0.699023 0.195662
H29   H     H_    0.408835 0.105952 0.353399 0.144164
N1    N     N_R   0.499210 0.498800 0.142780 -0.135641
N2    N     N_R   0.499180 0.498720 0.857170 -0.145544
O1    O     O_R   0.500000 0.316780 0.614690 -0.612274
O2    O     O_R   0.499990 0.316750 0.385360 -0.640816
O3    O     O_R   0.376780 0.500000 0.614650 -0.627241
O4    O     O_R   0.376770 0.499980 0.385310 -0.634590
O5    O     O_R   0.500010 0.683250 0.614640 -0.591013
O6    O     O_R   0.500000 0.683220 0.385310 -0.619716
O7    O     O_R   0.623230 0.500020 0.614690 -0.539616
O8    O     O_R   0.623220 0.500000 0.385350 -0.621906
Zn1   Zn    Zn3+2 0.500010 0.500020 0.653130 1.012658
Zn2   Zn    Zn3+2 0.499990 0.499980 0.346870 0.952974

loop_
_geom_bond_atom_site_label_1
_geom_bond_atom_site_label_2
_ccdc_geom_bond_type
N2    Zn1   S    
O5    Zn1   S    
C30   H4    S    
C1    C8    S    
O1    Zn1   S    
C7    C8    A    
C20   N1    A    
C12   C28   S    
C24   F3    S    
C31   H11   S    
C36   C37   S    
C5    C6    A    
O8    Zn2   S    
C7    C42   A    
C16   O6    A    
C18   C19   A    
C22   O7    A    
C19   N1    A    
C4    O3    A    
N1    Zn2   S    
C8    C9    A    
C37   H18   S    
C21   N2    A    
C9    H29   S    
C9    C10   A    
C32   H8    S    
C18   N2    A    
C22   O8    A    
C30   H3    S    
C23   F4    S    
C13   C14   A    
C17   H26   S    
C20   H23   S    
C34   C41   S    
C32   H7    S    
O7    Zn1   S    
C25   C29   S    
C5    H1    S    
C13   C19   A    
C34   C39   S    
O6    Zn2   S    
C24   C25   S    
C6    C11   A    
C13   H24   S    
C16   O5    A    
C24   C34   S    
C35   H13   S    
C12   C40   S    
C29   C30   S    
C21   F2    S    
C11   C16   S    
C27   C41   T    
C31   C32   S    
C33   H16   S    
C23   C34   S    
C37   H19   S    
C17   C18   A    
C35   H14   S    
C23   C28   S    
C3    C31   S    
O3    Zn1   S    
C30   H2    S    
C22   C27   S    
C1    O1    A    
C36   H22   S    
C2    C36   S    
C15   C17   A    
C14   H25   S    
C24   C28   S    
C3    C5    A    
C4    C26   S    
C36   H21   S    
C6    C7    A    
C23   C38   S    
C33   C38   S    
C12   C25   S    
C31   H10   S    
C2    C3    A    
C15   F1    S    
O2    Zn2   S    
C25   C39   S    
C26   C40   T    
C38   C39   S    
C29   H6    S    
C2    C42   A    
C33   H17   S    
O4    Zn2   S    
C37   H20   S    
C33   C35   S    
C10   H12   S    
C35   H15   S    
C42   F5    S    
C39   H27   S    
C12   C38   S    
C10   C11   A    
C4    O4    A    
C20   C21   A    
C1    O2    A    
C14   C15   A    
C28   H28   S    
C32   H9    S    
C29   H5    S    
