data_mof_unit_21575.cif
_audit_creation_date              2013-03-05T15:44:04-0500
_audit_creation_method            fapswitch 2.2
_symmetry_space_group_name_H-M    P1
_symmetry_Int_Tables_number       1
_space_group_crystal_system       triclinic
_cell_length_a                    6.927022
_cell_length_b                    18.016247
_cell_length_c                    18.947298
_cell_angle_alpha                 90.007224
_cell_angle_beta                  90.52853
_cell_angle_gamma                 89.694683
_cell_volume                      2364.46851052

loop_
_atom_site_label
_atom_site_type_symbol
_atom_site_description
_atom_site_fract_x
_atom_site_fract_y
_atom_site_fract_z
_atom_type_partial_charge
O1    O     O_R   0.377350 0.828520 0.186660 -0.568262
O2    O     O_R   0.622650 0.171480 0.813340 -0.567615
O3    O     O_R   0.122650 0.171480 0.686660 -0.557669
O4    O     O_R   0.877350 0.828520 0.313340 -0.560719
O5    O     O_R   0.877350 0.671480 0.313340 -0.537479
O6    O     O_R   0.122650 0.328520 0.686660 -0.536869
O7    O     O_R   0.622650 0.328520 0.813340 -0.564060
O8    O     O_R   0.377350 0.671480 0.186660 -0.564215
O9    O     O_R   0.707090 0.671930 0.178410 -0.518615
O10   O     O_R   0.292910 0.328070 0.821590 -0.518640
O11   O     O_R   0.792910 0.328070 0.678410 -0.544923
O12   O     O_R   0.207090 0.671930 0.321590 -0.541947
O13   O     O_R   0.207090 0.828070 0.321590 -0.534122
O14   O     O_R   0.792910 0.171930 0.678410 -0.533375
O15   O     O_R   0.292910 0.171930 0.821590 -0.533090
O16   O     O_R   0.707090 0.828070 0.178410 -0.533315
C1    C     C_R   0.537382 0.645717 0.161637 0.872743
C2    C     C_R   0.462618 0.354284 0.838362 0.872635
C3    C     C_R   0.960181 0.353173 0.660542 0.887706
C4    C     C_R   0.039823 0.646844 0.339473 0.895202
C5    C     C_R   0.037210 0.853608 0.339048 0.890076
C6    C     C_R   0.962431 0.146977 0.660460 0.883027
C7    C     C_R   0.463237 0.146979 0.839510 0.870927
C8    C     C_R   0.536763 0.853014 0.160482 0.869147
O17   O     O_3   0.543850 0.750000 0.294270 -0.240609
O18   O     O_3   0.456150 0.250000 0.705730 -0.237692
O19   O     O_3   0.956150 0.250000 0.794270 -0.248797
O20   O     O_3   0.043850 0.750000 0.205730 -0.249047
V1    V     V_3+5 0.818700 0.750000 0.241790 1.308327
V2    V     V_3+5 0.181300 0.250000 0.758210 1.309544
V3    V     V_3+5 0.681300 0.250000 0.741790 1.290733
V4    V     V_3+5 0.318700 0.750000 0.258210 1.291232
C9    C     C_R   0.959604 0.413564 0.606760 -0.199114
C10   C     C_R   0.040447 0.586497 0.393295 -0.197790
C11   C     C_R   0.516940 0.583480 0.109995 -0.205327
C12   C     C_R   0.483059 0.416521 0.890003 -0.205206
C13   C     C_R   0.481786 0.084915 0.891162 -0.204595
C14   C     C_R   0.518217 0.915070 0.108819 -0.203874
C15   C     C_R   0.015597 0.914821 0.391578 -0.199929
C16   C     C_R   0.979273 0.084684 0.609139 -0.195378
C17   C     C_R   0.201042 0.475210 0.438524 0.403051
C18   C     C_R   0.799171 0.524926 0.561606 0.402549
C19   C     C_R   0.686766 0.518158 0.931131 0.423607
C20   C     C_R   0.313228 0.481844 0.068866 0.423752
C21   C     C_R   0.330236 0.023851 0.073270 0.416278
C22   C     C_R   0.669764 0.976127 0.926699 0.416035
C23   C     C_R   0.147450 0.969635 0.578574 0.399194
C24   C     C_R   0.820403 0.021357 0.428111 0.413728
C25   C     C_R   0.185171 0.532592 0.389405 -0.093091
C26   C     C_R   0.814918 0.467483 0.610673 -0.092009
C27   C     C_R   0.637198 0.465029 0.880869 -0.094191
C28   C     C_R   0.362797 0.534973 0.119128 -0.094401
C29   C     C_R   0.383052 0.970540 0.123332 -0.131624
C30   C     C_R   0.616947 0.029444 0.876642 -0.131593
C31   C     C_R   0.104699 0.026388 0.626345 -0.128611
C32   C     C_R   0.869333 0.967033 0.378862 -0.118440
C33   C     C_R   0.906430 0.583453 0.448820 0.346406
C34   C     C_R   0.093762 0.416679 0.551287 0.345854
C35   C     C_R   0.366448 0.424361 0.950175 0.351256
C36   C     C_R   0.633553 0.575639 0.049824 0.351285
C37   C     C_R   0.607733 0.914058 0.042118 0.334717
C38   C     C_R   0.392274 0.085922 0.957861 0.334332
C39   C     C_R   0.889376 0.085691 0.542011 0.339486
C40   C     C_R   0.117121 0.916847 0.456530 0.350310
C41   C     C_R   0.925133 0.527658 0.502640 -0.109494
C42   C     C_R   0.075057 0.472479 0.497478 -0.109058
C43   C     C_R   0.417955 0.476249 0.004685 -0.113435
C44   C     C_R   0.582042 0.523752 0.995312 -0.113424
C45   C     C_R   0.571096 0.972283 0.992280 -0.100338
C46   C     C_R   0.428910 0.027694 0.007693 -0.100335
C47   C     C_R   0.923465 0.026364 0.493123 -0.109551
C48   C     C_R   0.065087 0.970410 0.509434 -0.103843
H1    H     H_    0.715030 0.466492 0.654413 0.130527
H2    H     H_    0.285058 0.533562 0.345664 0.129726
H3    H     H_    0.276196 0.538829 0.166416 0.126372
H4    H     H_    0.723797 0.461174 0.833581 0.126644
H5    H     H_    0.693693 0.030773 0.827021 0.128210
H6    H     H_    0.306304 0.969217 0.172953 0.127706
H7    H     H_    0.785699 0.963931 0.330287 0.125895
H8    H     H_    0.170752 0.024738 0.678452 0.125647
N1    N     N_R   0.247696 0.363218 0.550513 0.122814
O21   O     O_R   0.420461 0.382855 0.570123 -0.303821
O22   O     O_R   0.209643 0.293176 0.541458 -0.255730
N2    N     N_R   0.752739 0.637017 0.449660 0.122649
O23   O     O_R   0.791152 0.707035 0.458682 -0.258148
O24   O     O_R   0.579783 0.617487 0.430186 -0.302009
N3    N     N_R   0.802517 0.620541 0.044815 0.121437
O25   O     O_R   0.797507 0.681317 0.008148 -0.205589
O26   O     O_R   0.952707 0.606091 0.084234 -0.314511
N4    N     N_R   0.197495 0.379454 0.955188 0.121423
O27   O     O_R   0.047292 0.393901 0.915774 -0.314402
O28   O     O_R   0.202526 0.318676 0.991853 -0.205709
N5    N     N_R   0.293046 0.151881 0.979182 0.111358
O29   O     O_R   0.361766 0.190858 0.031389 -0.233116
O30   O     O_R   0.129079 0.170411 0.949944 -0.252776
N6    N     N_R   0.706974 0.848100 0.020802 0.111471
O31   O     O_R   0.870921 0.829569 0.050054 -0.252565
O32   O     O_R   0.638290 0.809127 0.968587 -0.233040
N7    N     N_R   0.274311 0.865833 0.467395 0.123361
O33   O     O_R   0.243825 0.794607 0.467103 -0.253503
O34   O     O_R   0.450547 0.890317 0.470360 -0.285942
N8    N     N_R   0.788264 0.151699 0.520188 0.111335
O35   O     O_R   0.627593 0.171172 0.550199 -0.249094
O36   O     O_R   0.858872 0.193125 0.470569 -0.227781
N9    N     N_R   0.341907 0.418715 0.424816 0.131391
O37   O     O_R   0.285203 0.354455 0.401403 -0.206893
O38   O     O_R   0.522643 0.436814 0.418814 -0.296352
N10   N     N_R   0.658528 0.581483 0.575394 0.131839
O39   O     O_R   0.477883 0.563434 0.581746 -0.294898
O40   O     O_R   0.715567 0.645769 0.598609 -0.207333
N11   N     N_R   0.843032 0.566396 0.914042 0.132876
O41   O     O_R   0.016178 0.551145 0.937039 -0.279980
O42   O     O_R   0.821749 0.613398 0.862403 -0.238198
N12   N     N_R   0.156958 0.433608 0.085954 0.132826
O43   O     O_R   0.178228 0.386611 0.137597 -0.238889
O44   O     O_R   0.983818 0.448856 0.062949 -0.280106
N13   N     N_R   0.163932 0.068754 0.088321 0.135255
O45   O     O_R   0.010533 0.063199 0.048588 -0.290840
O46   O     O_R   0.149733 0.101279 0.149397 -0.243613
N14   N     N_R   0.836064 0.931224 0.911639 0.135049
O47   O     O_R   0.850307 0.898745 0.850542 -0.244402
O48   O     O_R   0.989445 0.936755 0.951386 -0.291042
N15   N     N_R   0.263335 0.909053 0.604066 0.136512
O49   O     O_R   0.427884 0.922354 0.635122 -0.277519
O50   O     O_R   0.185538 0.843949 0.611252 -0.206549
N16   N     N_R   0.650807 0.065075 0.413808 0.133799
O51   O     O_R   0.627806 0.096141 0.352285 -0.248152
O52   O     O_R   0.502836 0.059719 0.455278 -0.291043

loop_
_geom_bond_atom_site_label_1
_geom_bond_atom_site_label_2
_geom_bond_distance
_ccdc_geom_bond_type
N3    O25   1.296973 A    
N5    O29   1.301114 A    
O4    C5    1.289624 A    
O13   V4    2.005810 S    
N11   O41   1.300296 A    
O14   V3    2.005811 S    
C28   H3    1.084847 S    
C19   C27   1.392220 A    
C13   C38   1.412876 A    
C37   N6    1.429701 S    
N15   O49   1.301307 A    
O5    C4    1.301251 A    
C15   C40   1.412351 A    
N9    O38   1.301405 A    
O11   C3    1.294054 A    
C9    C34   1.410707 A    
C16   C39   1.411054 A    
C17   N9    1.431634 S    
O20   V1    1.708475 S    
N2    O24   1.300620 A    
N13   O46   1.301346 A    
N15   O50   1.301089 A    
C37   C45   1.431598 A    
N10   O39   1.301225 A    
C38   C46   1.431571 A    
C22   C45   1.425534 A    
C35   C43   1.436820 A    
C12   C35   1.409951 A    
C23   N15   1.432708 S    
C34   C42   1.436426 A    
C40   N7    1.434558 S    
N7    O33   1.301594 A    
C19   C44   1.425024 A    
N6    O32   1.301115 A    
C18   C41   1.424938 A    
C8    C14   1.490335 S    
O4    V1    1.999898 S    
O9    V1    2.003048 S    
C14   C37   1.412925 A    
C4    C10   1.490718 S    
C20   C28   1.392220 A    
O17   V4    1.696929 S    
O15   C7    1.302465 A    
O11   V3    2.011791 S    
O18   V3    1.696929 S    
N5    O30   1.301068 A    
O12   V4    2.011793 S    
O19   V2    1.708475 S    
O12   C4    1.293993 A    
C45   C46   1.430643 A    
C19   N11   1.431217 S    
C39   N8    1.435854 S    
C17   C25   1.394325 A    
N1    O22   1.301510 A    
C36   N3    1.430199 S    
N14   O48   1.300872 A    
N12   O43   1.300887 A    
O5    V1    1.997076 S    
O17   V1    2.156031 S    
O7    V3    2.001915 S    
O19   V3    2.139770 S    
C43   C44   1.438770 A    
O8    V4    2.001916 S    
O20   V4    2.139770 S    
N2    O23   1.301542 A    
C3    C9    1.490765 S    
C34   N1    1.433258 S    
C9    C26   1.394491 A    
C7    C13   1.490306 S    
C24   N16   1.434672 S    
O1    V4    2.005213 S    
N1    O21   1.300659 A    
C11   C36   1.409953 A    
C35   N4    1.430199 S    
O3    V2    1.999899 S    
O6    C3    1.301225 A    
C10   C33   1.410741 A    
O10   V2    2.003047 S    
N4    O28   1.296977 A    
C15   C32   1.398151 A    
C5    C15   1.493302 S    
O7    C2    1.293541 A    
C6    C16   1.489665 S    
N6    O31   1.301068 A    
C22   C30   1.395067 A    
C33   N2    1.433277 S    
C22   N14   1.434913 S    
N11   O42   1.300889 A    
C27   H4    1.084849 S    
N8    O36   1.301029 A    
C32   H7    1.084592 S    
C12   C27   1.395402 A    
C18   C26   1.394430 A    
C13   C30   1.394896 A    
O9    C1    1.305749 A    
O6    V2    1.997075 S    
C39   C47   1.434337 A    
O18   V2    2.156031 S    
N3    O26   1.300314 A    
C26   H1    1.084721 S    
C24   C47   1.421123 A    
O2    C7    1.294389 A    
N14   O47   1.301356 A    
O15   V2    1.997467 S    
C23   C31   1.397816 A    
C21   N13   1.434893 S    
C24   C32   1.394834 A    
C10   C25   1.394481 A    
N16   O52   1.301252 A    
N7    O34   1.300971 A    
C21   C46   1.425491 A    
C33   C41   1.436509 A    
C20   C43   1.425023 A    
C16   C31   1.396200 A    
N12   O44   1.300296 A    
C17   C42   1.424870 A    
N9    O37   1.301117 A    
O8    C1    1.293542 A    
C30   H5    1.084669 S    
C29   H6    1.084661 S    
O16   V1    1.997466 S    
C47   C48   1.434595 A    
N13   O45   1.300874 A    
O13   C5    1.306620 A    
C31   H8    1.084668 S    
O14   C6    1.303224 A    
N4    O27   1.300315 A    
C14   C29   1.394885 A    
C2    C12   1.494517 S    
O10   C2    1.305748 A    
N16   O51   1.301255 A    
N10   O40   1.300977 A    
C40   C48   1.438290 A    
N8    O35   1.300996 A    
C20   N12   1.431218 S    
C23   C48   1.424060 A    
C21   C29   1.395045 A    
C36   C44   1.436822 A    
O1    C8    1.294408 A    
O16   C8    1.302460 A    
C41   C42   1.437783 A    
C38   N5    1.429710 S    
C11   C28   1.395402 A    
C25   H2    1.084728 S    
O2    V3    2.005215 S    
O3    C6    1.291532 A    
C1    C11   1.494522 S    
C18   N10   1.431684 S    
