data_mof_unit_55131.cif
_audit_creation_date              2012-12-10T18:30:29-0500
_audit_creation_method            fapswitch 2.2
_symmetry_space_group_name_H-M    P1
_symmetry_Int_Tables_number       1
_space_group_crystal_system       triclinic
_cell_length_a                    15.196791
_cell_length_b                    14.124552
_cell_length_c                    15.041086
_cell_angle_alpha                 91.544853
_cell_angle_beta                  82.609698
_cell_angle_gamma                 104.399203
_cell_volume                      3101.09813332

loop_
_atom_site_label
_atom_site_type_symbol
_atom_type_description
_atom_site_fract_x
_atom_site_fract_y
_atom_site_fract_z
_atom_type_partial_charge
C1    C     C_R   0.557625 0.518102 0.336326 0.853943
C2    C     C_R   0.364131 0.557575 0.091704 0.304836
C3    C     C_R   0.631875 0.711176 0.995985 -0.096160
C4    C     C_R   0.301750 0.513890 0.032114 -0.106032
C5    C     C_R   0.147936 0.332366 0.386491 -0.334555
C6    C     C_R   0.846851 0.655679 0.628683 -0.362190
C7    C     C_R   0.240227 0.371055 0.392600 0.108663
C8    C     C_R   0.761283 0.634063 0.600265 0.071774
C9    C     C_R   0.205989 0.493367 0.493602 0.452410
C10   C     C_R   0.789477 0.492136 0.524563 0.439762
C11   C     C_R   0.111431 0.461589 0.481316 -0.079027
C12   C     C_R   0.442435 0.488136 0.663531 0.851826
C13   C     C_R   0.882229 0.518387 0.544949 -0.083793
C14   C     C_R   0.082495 0.372587 0.435508 0.066856
C15   C     C_R   0.911373 0.607962 0.590013 0.064093
C16   C     C_R   0.498084 0.329205 0.499941 0.896023
C17   C     C_R   0.501643 0.670750 0.500632 0.897465
C18   C     C_R   0.044134 0.512158 0.514686 0.065735
C19   C     C_R   0.949315 0.465358 0.516451 0.068042
C20   C     C_R   0.925206 0.367023 0.491171 -0.226611
C21   C     C_R   0.068877 0.610243 0.540442 -0.209947
C22   C     C_R   0.988846 0.323569 0.443038 -0.002733
C23   C     C_R   0.530458 0.604905 0.111129 0.108738
C24   C     C_R   0.005169 0.655084 0.585573 0.002804
C25   C     C_1   0.494680 0.226720 0.500320 -0.173999
C26   C     C_1   0.504070 0.773025 0.501800 -0.132462
C27   C     C_1   0.494919 0.141396 0.500996 -0.021425
C28   C     C_1   0.502816 0.858103 0.502049 0.016723
C29   C     C_1   0.497247 0.041996 0.501606 -0.000508
C30   C     C_1   0.499909 0.957352 0.501935 0.005416
C31   C     C_R   0.588672 0.556676 0.243080 -0.144590
C32   C     C_R   0.405576 0.489574 0.759294 -0.113286
C33   C     C_R   0.691195 0.665709 0.129837 -0.233180
C34   C     C_R   0.423229 0.563411 0.906790 0.122441
C35   C     C_R   0.280478 0.447502 0.881294 -0.231781
C36   C     C_R   0.677638 0.613978 0.211275 -0.006457
C37   C     C_R   0.316259 0.435211 0.792386 0.024839
C38   C     C_R   0.519116 0.550039 0.189131 -0.178318
C39   C     C_R   0.457682 0.552806 0.816687 -0.190104
C40   C     C_R   0.719223 0.782243 0.964629 0.182888
C41   C     C_R   0.778563 0.758805 0.892694 -0.160562
C42   C     C_R   0.860972 0.825944 0.862949 -0.139995
C43   C     C_R   0.884716 0.916510 0.905053 -0.099045
C44   C     C_R   0.826230 0.939952 0.977189 -0.153460
C45   C     C_R   0.618688 0.661746 0.079077 0.033994
C46   C     C_R   0.743699 0.873034 0.007075 -0.123867
C47   C     C_R   0.204941 0.470790 0.067802 0.173846
C48   C     C_R   0.178587 0.376305 0.104963 -0.157412
C49   C     C_R   0.087827 0.337296 0.141887 -0.121084
C50   C     C_R   0.022916 0.392053 0.141149 -0.116729
C51   C     C_R   0.048674 0.485931 0.103643 -0.151319
C52   C     C_R   0.139473 0.525329 0.066982 -0.085818
C53   C     C_R   0.261628 0.359409 0.737791 0.138608
C54   C     C_R   0.173761 0.363929 0.721540 -0.088699
C55   C     C_R   0.124061 0.293859 0.667411 -0.137421
C56   C     C_R   0.333921 0.508566 0.939989 0.035662
C57   C     C_R   0.161204 0.218298 0.630514 -0.147014
C58   C     C_R   0.247856 0.212418 0.647551 -0.142489
C59   C     C_R   0.297969 0.282547 0.701040 -0.138222
C60   C     C_R   0.759976 0.618453 0.255615 0.145038
C61   C     C_R   0.813529 0.709329 0.279979 -0.195666
C62   C     C_R   0.897498 0.715755 0.311539 -0.172760
C63   C     C_R   0.929823 0.632021 0.316709 -0.101094
C64   C     C_R   0.878625 0.542028 0.289530 -0.099932
C65   C     C_R   0.793725 0.534949 0.259507 -0.073122
C66   C     C_R   0.954559 0.225593 0.404175 0.118902
C67   C     C_R   0.457748 0.594027 0.058663 -0.071793
C68   C     C_R   0.979267 0.143432 0.433687 -0.171114
C69   C     C_R   0.946669 0.051562 0.396416 -0.133410
C70   C     C_R   0.888908 0.041064 0.329726 -0.125765
C71   C     C_R   0.862860 0.122187 0.300951 -0.144811
C72   C     C_R   0.895143 0.214086 0.338285 -0.131596
C73   C     C_R   0.038735 0.756328 0.617573 0.105297
C74   C     C_R   0.090823 0.773716 0.689572 -0.127144
C75   C     C_R   0.119926 0.868607 0.721969 -0.140701
C76   C     C_R   0.097664 0.946557 0.682399 -0.132876
C77   C     C_R   0.047156 0.929990 0.609645 -0.137536
C78   C     C_R   0.480448 0.617044 0.967385 -0.055461
C79   C     C_R   0.018179 0.835295 0.576832 -0.160117
C80   C     C_R   0.726092 0.721376 0.593144 0.172036
C81   C     C_R   0.699581 0.769985 0.670386 -0.143142
C82   C     C_R   0.688390 0.865043 0.664639 -0.069301
C83   C     C_R   0.704155 0.912301 0.581648 -0.130385
C84   C     C_R   0.731564 0.864852 0.504353 -0.175948
C85   C     C_R   0.743906 0.770622 0.510385 -0.129455
C86   C     C_R   0.302105 0.314133 0.347660 0.202667
C87   C     C_R   0.337228 0.332892 0.257520 -0.176635
C88   C     C_R   0.386611 0.272283 0.210145 -0.183441
C89   C     C_R   0.561060 0.689644 0.941028 0.314111
C90   C     C_R   0.396644 0.188774 0.251285 -0.091970
C91   C     C_R   0.355421 0.164914 0.338948 -0.148188
C92   C     C_R   0.307097 0.226483 0.386509 -0.145747
Cl1   Cl    Cl    0.559184 0.772779 0.856525 -0.687859
Cl2   Cl    Cl    0.321813 0.584737 0.202548 -0.648857
Cl3   Cl    Cl    0.752367 0.403188 0.443869 -0.679302
Cl4   Cl    Cl    0.242223 0.569142 0.584078 -0.641523
H1    H     H_    0.856873 0.322136 0.509007 0.203997
H2    H     H_    0.906623 0.807719 0.807545 0.143811
H3    H     H_    0.948557 0.968355 0.881958 0.129350
H4    H     H_    0.844847 0.009976 0.009949 0.129453
H5    H     H_    0.698824 0.891876 0.062958 0.134876
H6    H     H_    0.228184 0.333025 0.105104 0.123683
H7    H     H_    0.067778 0.264625 0.170950 0.136547
H8    H     H_    0.952622 0.361655 0.169321 0.115200
H9    H     H_    0.998331 0.528254 0.103208 0.137446
H10   H     H_    0.158974 0.598394 0.038698 0.139529
H11   H     H_    0.144657 0.422619 0.749276 0.148149
H12   H     H_    0.137538 0.654746 0.523319 0.204809
H13   H     H_    0.056934 0.298275 0.653853 0.137963
H14   H     H_    0.122912 0.163837 0.589093 0.112731
H15   H     H_    0.276291 0.153591 0.619118 0.132450
H16   H     H_    0.365281 0.277373 0.713423 0.102806
H17   H     H_    0.790179 0.775183 0.274512 0.123654
H18   H     H_    0.937619 0.785774 0.331572 0.131346
H19   H     H_    0.994831 0.636948 0.341021 0.148681
H20   H     H_    0.904503 0.477521 0.292330 0.152399
H21   H     H_    0.755363 0.464942 0.237439 0.132809
H22   H     H_    0.023717 0.150710 0.485240 0.116778
H23   H     H_    0.527112 0.590466 0.791261 0.182841
H24   H     H_    0.966153 0.988516 0.419187 0.122709
H25   H     H_    0.863983 0.970000 0.300679 0.114694
H26   H     H_    0.817683 0.113874 0.249678 0.130258
H27   H     H_    0.874468 0.276390 0.315460 0.149633
H28   H     H_    0.107649 0.713674 0.721291 0.159566
H29   H     H_    0.159230 0.881637 0.778138 0.143746
H30   H     H_    0.119470 0.019675 0.708294 0.137973
H31   H     H_    0.030002 0.990343 0.578971 0.121342
H32   H     H_    0.978626 0.823135 0.520733 0.129207
H33   H     H_    0.692454 0.735522 0.734885 0.166349
H34   H     H_    0.454735 0.499612 0.207990 0.190138
H35   H     H_    0.669910 0.903355 0.724576 0.194332
H36   H     H_    0.695848 0.985889 0.577326 0.147442
H37   H     H_    0.744361 0.901442 0.440042 0.143689
H38   H     H_    0.768640 0.735978 0.451147 0.146440
H39   H     H_    0.322914 0.392095 0.223104 0.165326
H40   H     H_    0.414856 0.288653 0.140884 0.137053
H41   H     H_    0.433997 0.141129 0.214437 0.136790
H42   H     H_    0.360058 0.098241 0.369715 0.145136
H43   H     H_    0.273409 0.205891 0.453453 0.129266
H44   H     H_    0.759773 0.707011 0.105144 0.154384
H45   H     H_    0.212617 0.404113 0.905641 0.144599
H46   H     H_    0.127951 0.267959 0.345808 0.167285
H47   H     H_    0.867464 0.721817 0.666893 0.168407
H48   H     H_    0.761184 0.688459 0.860153 0.123293
N1    N     N_R   0.268300 0.449640 0.447270 -0.113700
N2    N     N_R   0.731700 0.550360 0.552730 -0.125300
O1    O     O_R   0.616880 0.525390 0.394380 -0.561810
O2    O     O_R   0.383120 0.474610 0.605620 -0.538395
O3    O     O_R   0.468100 0.493070 0.360490 -0.590282
O4    O     O_R   0.531900 0.506930 0.639510 -0.619328
O5    O     O_R   0.574410 0.389880 0.516950 -0.530302
O6    O     O_R   0.425590 0.610120 0.483050 -0.531441
O7    O     O_R   0.425630 0.357560 0.483060 -0.611056
O8    O     O_R   0.574370 0.642440 0.516940 -0.608538
Zn1   Zn    Zn3+2 0.599340 0.521580 0.522630 0.988254
Zn2   Zn    Zn3+2 0.400660 0.478420 0.477370 1.023036

loop_
_geom_bond_atom_site_label_1
_geom_bond_atom_site_label_2
_ccdc_geom_bond_type
C66   C68   A    
C87   C88   A    
C11   C18   A    
C34   C56   A    
C64   H20   S    
C27   C29   S    
C18   C21   A    
C33   C45   A    
C41   C42   A    
C88   C90   A    
C71   H26   S    
C74   H28   S    
C19   C20   A    
C79   H32   S    
C81   C82   A    
C53   C59   A    
C53   C54   A    
C40   C46   A    
C62   C63   A    
C54   H11   S    
C83   C84   A    
C23   C45   A    
C17   C26   S    
C38   H34   S    
C35   C37   A    
O3    Zn2   S    
C43   H3    S    
C62   H18   S    
C42   H2    S    
C11   C14   A    
C39   H23   S    
C24   C73   S    
C7    C86   S    
C33   H44   S    
C1    C31   S    
C33   C36   A    
C76   H30   S    
C18   C19   A    
C73   C74   A    
C32   C39   A    
C23   C67   A    
C22   C66   S    
C68   H22   S    
C6    C15   A    
N1    Zn2   S    
C66   C72   A    
N2    Zn1   S    
O6    Zn2   S    
C68   C69   A    
C1    O3    A    
C70   C71   A    
O5    Zn1   S    
C29   C30   T    
O1    Zn1   S    
C77   H31   S    
C85   H38   S    
C63   H19   S    
C9    N1    A    
C52   H10   S    
C4    C56   A    
C61   C62   A    
C67   C78   A    
C17   O8    A    
C44   C46   A    
C50   C51   A    
C57   C58   A    
C77   C79   A    
C78   C89   A    
C46   H5    S    
C84   H37   S    
C74   C75   A    
C13   C19   A    
C51   C52   A    
C87   H39   S    
C2    Cl2   S    
C76   C77   A    
C88   H40   S    
C41   H48   S    
C2    C67   A    
C91   C92   A    
C5    C7    A    
C86   C87   A    
C6    C8    A    
C58   C59   A    
C5    C14   A    
C3    C45   A    
C34   C39   A    
C60   C61   A    
C75   H29   S    
C2    C4    A    
C75   C76   A    
C49   H7    S    
C80   C85   A    
C12   O4    A    
C91   H42   S    
C81   H33   S    
C47   C48   A    
C51   H9    S    
C48   H6    S    
C59   H16   S    
C73   C79   A    
C20   H1    S    
C32   C37   A    
C84   C85   A    
O7    Zn2   S    
C9    C11   A    
C9    Cl4   S    
O8    Zn1   S    
C10   N2    A    
C15   C24   A    
C35   H45   S    
C60   C65   A    
C82   C83   A    
O4    Zn1   S    
C55   C57   A    
C43   C44   A    
C61   H17   S    
C1    O1    A    
C17   O6    A    
C12   C32   S    
C42   C43   A    
C90   C91   A    
C90   H41   S    
C16   C25   S    
C54   C55   A    
C40   C41   A    
C35   C56   A    
C8    N2    A    
C20   C22   A    
C80   C81   A    
C36   C60   S    
C10   C13   A    
C3    C40   S    
C58   H15   S    
C57   H14   S    
C47   C52   A    
C25   C27   T    
C23   C38   A    
C69   H24   S    
C26   C28   T    
C31   C38   A    
C3    C89   A    
C64   C65   A    
C12   O2    A    
C13   C15   A    
C6    H47   S    
C37   C53   S    
C83   H36   S    
C72   H27   S    
C86   C92   A    
C34   C78   A    
C44   H4    S    
C70   H25   S    
C14   C22   A    
C5    H46   S    
C10   Cl3   S    
C48   C49   A    
C28   C30   S    
C16   O5    A    
C89   Cl1   S    
C69   C70   A    
C21   H12   S    
C63   C64   A    
C71   C72   A    
C49   C50   A    
C21   C24   A    
C16   O7    A    
C8    C80   S    
C65   H21   S    
C31   C36   A    
O2    Zn2   S    
C82   H35   S    
C92   H43   S    
C55   H13   S    
C50   H8    S    
C7    N1    A    
C4    C47   S    
