data_mof_unit_21700.cif
_audit_creation_date              2012-12-10T18:05:57-0500
_audit_creation_method            fapswitch 2.2
_symmetry_space_group_name_H-M    P1
_symmetry_Int_Tables_number       1
_space_group_crystal_system       triclinic
_cell_length_a                    12.69531
_cell_length_b                    13.240302
_cell_length_c                    14.898438
_cell_angle_alpha                 91.875746
_cell_angle_beta                  103.068591
_cell_angle_gamma                 83.083187
_cell_volume                      2421.62087806

loop_
_atom_site_label
_atom_site_type_symbol
_atom_type_description
_atom_site_fract_x
_atom_site_fract_y
_atom_site_fract_z
_atom_type_partial_charge
Br1   Br    Br    0.855844 0.259022 0.320900 -0.541879
Br2   Br    Br    0.308707 0.776615 0.866284 -0.496571
Br3   Br    Br    0.642257 0.307034 0.766449 -0.532063
C1    C     C_R   0.439918 0.691221 0.493802 0.848908
C2    C     C_R   0.446554 0.578093 0.805168 -0.249047
C3    C     C_R   0.505145 0.497935 0.768877 -0.109942
C4    C     C_R   0.501572 0.499787 0.672739 0.929648
C5    C     C_R   0.561135 0.414998 0.822118 0.204808
C6    C     C_R   0.726445 0.058404 0.588203 0.007457
C7    C     C_R   0.591041 0.203168 0.541373 -0.089503
C8    C     C_R   0.300726 0.837509 0.441192 -0.203967
C9    C     C_R   0.272547 0.941499 0.425817 0.052468
C10   C     C_R   0.347985 0.009157 0.461282 -0.215550
C11   C     C_R   0.450069 0.974359 0.518643 0.080569
C12   C     C_R   0.548334 0.408984 0.101322 0.091910
C13   C     C_R   0.475353 0.870287 0.538471 0.088174
C14   C     C_R   0.532253 0.038853 0.550226 0.023946
C15   C     C_R   0.641602 0.997054 0.583839 0.102777
C16   C     C_R   0.559532 0.309733 0.515893 0.901357
C17   C     C_R   0.660432 0.896994 0.615336 -0.204462
C18   C     C_R   0.574436 0.838207 0.599724 -0.165741
C19   C     C_R   0.509348 0.143582 0.550159 -0.089871
C20   C     C_R   0.700087 0.159906 0.559875 -0.175631
C21   C     C_R   0.403373 0.800843 0.494549 -0.116321
C22   C     C_R   0.090529 0.336449 0.380269 -0.226720
C23   C     C_R   0.385105 0.658905 0.029157 -0.233084
C24   C     C_R   0.812205 0.610929 0.625478 0.132760
C25   C     C_R   0.920526 0.626553 0.654729 -0.254846
C26   C     C_R   0.995552 0.581232 0.608330 -0.158203
C27   C     C_R   0.963388 0.524747 0.527461 0.008784
C28   C     C_R   0.498643 0.499237 0.327308 0.873998
C29   C     C_R   0.852370 0.506196 0.501682 0.175318
C30   C     C_R   0.040603 0.476183 0.478897 -0.082652
C31   C     C_R   0.010912 0.394054 0.418612 0.103561
C32   C     C_R   0.902748 0.370862 0.398890 0.211510
C33   C     C_R   0.824745 0.428821 0.437389 -0.226899
C34   C     C_R   0.386162 0.660308 0.936181 0.275951
C35   C     C_R   0.146987 0.505014 0.487959 0.085143
C36   C     C_R   0.196568 0.361548 0.400280 -0.013403
C37   C     C_R   0.548664 0.412294 0.194990 -0.237644
C38   C     C_R   0.495536 0.496263 0.231382 -0.043159
C39   C     C_R   0.439350 0.577170 0.176964 -0.215054
C40   C     C_R   0.439394 0.576755 0.083997 0.074348
C41   C     C_R   0.495291 0.493301 0.045917 0.062759
C42   C     C_1   0.839765 0.018091 0.616095 0.192240
C43   C     C_1   0.412405 0.187265 0.580788 0.261183
C44   C     C_1   0.168528 0.978431 0.368453 0.177420
C45   C     C_R   0.443249 0.578509 0.897594 0.055629
C46   C     C_1   0.174867 0.602569 0.525437 0.212485
C47   C     C_1   0.748955 0.636654 0.693294 0.206840
C48   C     C_1   0.644459 0.231937 0.112294 0.232874
C49   C     C_R   0.498028 0.494465 0.952687 -0.022781
C50   C     C_R   0.555686 0.411755 0.914678 0.065704
C51   C     C_R   0.604523 0.327158 0.969501 -0.189068
C52   C     C_R   0.599670 0.324402 0.061649 -0.039566
H1    H     H_    0.590267 0.350531 0.240384 0.159488
H2    H     H_    0.949060 0.666177 0.718963 0.174018
H3    H     H_    0.744614 0.406164 0.421129 0.224634
H4    H     H_    0.341920 0.722409 0.058698 0.183781
H5    H     H_    0.404358 0.639865 0.760177 0.191840
H6    H     H_    0.645504 0.261565 0.941128 0.203958
H7    H     H_    0.764202 0.206050 0.556866 0.184664
H8    H     H_    0.739876 0.864790 0.653250 0.156748
H9    H     H_    0.244668 0.784998 0.407610 0.167691
H10   H     H_    0.327697 0.087841 0.440104 0.136990
H11   H     H_    0.585904 0.766217 0.632629 0.177586
H12   H     H_    0.258518 0.315778 0.372661 0.140766
H13   H     H_    0.072524 0.271514 0.335994 0.201554
H14   H     H_    0.397738 0.640980 0.207656 0.137473
H15   H     H_    0.079376 0.582395 0.643528 0.169547
N1    N     N_R   0.222190 0.444670 0.452360 -0.120196
N2    N     N_R   0.776970 0.554790 0.547140 -0.136211
N3    N     N_1   0.930554 0.985771 0.638397 -0.151161
N4    N     N_1   0.335535 0.221851 0.605397 -0.163516
N5    N     N_1   0.084979 0.008225 0.322435 -0.142890
N6    N     N_1   0.194995 0.681198 0.556335 -0.183803
N7    N     N_1   0.703132 0.656986 0.751652 -0.195326
N8    N     N_1   0.679605 0.157369 0.152157 -0.125878
O1    O     O_R   0.366740 0.627160 0.477250 -0.613941
O2    O     O_R   0.544830 0.662520 0.507680 -0.622712
O3    O     O_R   0.410940 0.482340 0.616930 -0.610179
O4    O     O_R   0.589030 0.517700 0.647360 -0.597272
O5    O     O_R   0.455170 0.337480 0.492320 -0.629875
O6    O     O_R   0.633260 0.372840 0.522750 -0.623042
O7    O     O_R   0.410970 0.482300 0.352640 -0.613980
O8    O     O_R   0.589060 0.517660 0.383070 -0.625809
Zn1   Zn    Zn3+2 0.381090 0.476390 0.479680 0.968867
Zn2   Zn    Zn3+2 0.618910 0.523610 0.520320 0.969287

loop_
_geom_bond_atom_site_label_1
_geom_bond_atom_site_label_2
_ccdc_geom_bond_type
O5    Zn1   S    
C6    C42   S    
C13   C18   A    
C28   O7    A    
C18   H11   S    
C38   C39   A    
C32   C33   A    
O1    Zn1   S    
C29   N2    A    
C35   C46   S    
C10   H10   S    
C50   C51   A    
C7    C19   A    
C29   C33   A    
C25   C26   A    
C12   C41   A    
C1    O2    A    
C33   H3    S    
C2    C3    A    
C1    C21   S    
O8    Zn2   S    
C8    C21   A    
C42   N3    T    
C31   C32   A    
C51   C52   A    
C20   H7    S    
C37   H1    S    
C23   H4    S    
C48   C52   S    
C2    H5    S    
C24   C47   S    
C22   C31   A    
C41   C49   A    
C13   C21   A    
C28   O8    A    
C10   C11   A    
C11   C14   A    
C22   H13   S    
C9    C44   S    
C16   O5    A    
N2    Zn2   S    
C23   C40   A    
C30   C31   A    
O7    Zn1   S    
C2    C45   A    
O6    Zn2   S    
C1    O1    A    
Br3   C5    S    
C6    C20   A    
C3    C5    A    
C25   H2    S    
C39   H14   S    
C12   C52   A    
C40   C41   A    
C26   C27   A    
C7    C16   S    
C14   C15   A    
C46   N6    T    
C9    C10   A    
C34   C45   A    
O3    Zn1   S    
N1    Zn1   S    
C37   C38   A    
C19   C43   S    
C8    H9    S    
C11   C13   A    
C39   C40   A    
C16   O6    A    
C47   N7    T    
C43   N4    T    
C49   C50   A    
Br1   C32   S    
C26   H15   S    
C35   N1    A    
C28   C38   S    
C27   C30   A    
C4    O3    A    
C36   H12   S    
C30   C35   A    
C5    C50   A    
C8    C9    A    
C23   C34   A    
C3    C4    S    
C51   H6    S    
C7    C20   A    
C14   C19   A    
C17   H8    S    
C48   N8    T    
C44   N5    T    
O2    Zn2   S    
C22   C36   A    
C27   C29   A    
Br2   C34   S    
O4    Zn2   S    
C15   C17   A    
C12   C37   A    
C6    C15   A    
C45   C49   A    
C4    O4    A    
C17   C18   A    
C24   C25   A    
C36   N1    A    
C24   N2    A    
