data_mof_unit_8411.cif
_audit_creation_date              2013-03-05T15:55:00-0500
_audit_creation_method            fapswitch 2.2
_symmetry_space_group_name_H-M    P1
_symmetry_Int_Tables_number       1
_space_group_crystal_system       triclinic
_cell_length_a                    23.363696
_cell_length_b                    10.655996
_cell_length_c                    10.030462
_cell_angle_alpha                 92.151887
_cell_angle_beta                  91.182683
_cell_angle_gamma                 92.298098
_cell_volume                      2492.83699693

loop_
_atom_site_label
_atom_site_type_symbol
_atom_site_description
_atom_site_fract_x
_atom_site_fract_y
_atom_site_fract_z
_atom_type_partial_charge
O1    O     O_R   0.500000 0.316780 0.614690 -0.602159
O2    O     O_R   0.500000 0.316750 0.385360 -0.637379
C1    C     C_R   0.505265 0.261639 0.497557 0.930212
O3    O     O_R   0.416160 0.499970 0.614690 -0.615911
O4    O     O_R   0.416150 0.499950 0.385360 -0.597953
C2    C     C_R   0.389728 0.498283 0.499283 1.020560
Zn1   Zn    Zn3+2 0.500000 0.500020 0.653130 1.004393
Zn2   Zn    Zn3+2 0.500000 0.499980 0.346870 1.071115
O5    O     O_R   0.500000 0.683250 0.614640 -0.639181
O6    O     O_R   0.500000 0.683220 0.385310 -0.531224
O7    O     O_R   0.583850 0.500050 0.614640 -0.617129
O8    O     O_R   0.583840 0.500030 0.385310 -0.569440
C3    C     C_R   0.495665 0.739711 0.502827 0.937073
C4    C     C_R   0.610007 0.501364 0.501217 0.901821
C5    C     C_R   0.880139 0.505668 0.616518 0.611106
N1    N     N_R   0.850344 0.475112 0.500900 -0.359288
C6    C     C_R   0.876598 0.440948 0.385870 0.606465
C7    C     C_R   0.936280 0.430657 0.385051 -0.119353
C8    C     C_R   0.968404 0.473354 0.500933 -0.066688
C9    C     C_R   0.940327 0.513192 0.617650 -0.146802
C10   C     C_R   0.965010 0.384434 0.271240 0.332644
C11   C     C_R   0.024535 0.398026 0.267912 -0.165273
C12   C     C_R   0.056385 0.443869 0.380196 -0.071110
C13   C     C_R   0.028657 0.476866 0.499405 -0.031698
C14   C     C_R   0.061224 0.513857 0.616008 -0.132068
C15   C     C_R   0.032939 0.559188 0.731196 0.144634
C16   C     C_R   0.972811 0.560828 0.730484 0.265352
C17   C     C_R   0.115995 0.453393 0.377154 0.631082
N2    N     N_R   0.146846 0.480383 0.492034 -0.333739
C18   C     C_R   0.121131 0.505152 0.610812 0.626876
O9    O     O_2   0.851021 0.528705 0.729032 -0.438551
O10   O     O_2   0.844834 0.421503 0.272579 -0.434416
H1    H     H_    0.046170 0.365374 0.179389 0.227789
O11   O     O_2   0.143207 0.433628 0.261217 -0.494522
O12   O     O_2   0.153983 0.518487 0.722592 -0.476902
C19   C     C_R   0.238297 0.599058 0.510923 0.303135
C20   C     C_R   0.297993 0.602329 0.522051 0.052122
C21   C     C_R   0.327444 0.491300 0.498351 -0.294091
C22   C     C_R   0.297247 0.373181 0.485301 0.188076
C23   C     C_R   0.236866 0.370157 0.480118 0.151286
C24   C     C_R   0.208028 0.483376 0.488947 0.030190
C25   C     C_R   0.755144 0.374259 0.514216 0.240144
C26   C     C_R   0.696174 0.382430 0.515331 -0.267401
H2    H     H_    0.669404 0.297948 0.524909 0.157940
C27   C     C_R   0.671561 0.498679 0.503628 -0.117666
C28   C     C_R   0.705487 0.609375 0.491418 0.133747
C29   C     C_R   0.765210 0.601272 0.487845 0.172327
C30   C     C_R   0.789646 0.483355 0.499729 0.117445
H3    H     H_    0.462758 0.111186 0.305605 0.214146
C31   C     C_R   0.568760 0.132108 0.699319 -0.176373
H4    H     H_    0.589920 0.221663 0.680045 0.159190
C32   C     C_R   0.575324 0.084415 0.825552 -0.168034
H5    H     H_    0.601015 0.137970 0.900424 0.198371
C33   C     C_R   0.545010 0.974194 0.857267 0.343490
C34   C     C_R   0.514522 0.904497 0.755085 -0.163479
H6    H     H_    0.489185 0.823493 0.783435 0.213120
C35   C     C_R   0.512562 0.946203 0.622492 0.028795
C36   C     C_R   0.532375 0.068745 0.602277 0.094544
C37   C     C_R   0.510592 0.128539 0.491383 -0.157641
C38   C     C_R   0.480590 0.061944 0.388379 -0.127642
C39   C     C_R   0.469367 0.934336 0.395129 0.328625
C40   C     C_R   0.488989 0.874172 0.510309 -0.218974
C41   C     C_R   0.410833 0.375530 0.129760 -0.173961
H7    H     H_    0.415792 0.343296 0.228635 0.239649
C42   C     C_R   0.358765 0.351138 0.061362 0.147848
C43   C     C_R   0.355286 0.375908 0.925950 0.105530
C44   C     C_R   0.406617 0.383273 0.856809 0.176683
C45   C     C_R   0.455042 0.441176 0.924472 0.015077
C46   C     C_R   0.455907 0.439787 0.067844 0.026836
N3    N     N_R   0.499460 0.498800 0.142780 -0.165982
C47   C     C_R   0.543293 0.556083 0.076419 0.346315
C48   C     C_R   0.543032 0.557719 0.934081 0.144526
N4    N     N_R   0.499440 0.498720 0.857170 -0.154873
N5    N     N_R   0.935430 0.313731 0.163955 0.263726
O13   O     O_R   0.900041 0.221226 0.191250 -0.273411
O14   O     O_R   0.953556 0.320904 0.042572 -0.299909
I1    I     I_    0.666190 0.786926 0.483852 -0.114122
I2    I     I_    0.819693 0.764177 0.463114 -0.053391
N6    N     N_R   0.544169 0.934158 0.992583 0.234993
O15   O     O_R   0.573729 0.996378 0.086546 -0.339389
O16   O     O_R   0.511873 0.837975 0.023972 -0.348634
N7    N     N_R   0.434616 0.871113 0.289579 0.255802
O17   O     O_R   0.425548 0.926591 0.178099 -0.300469
O18   O     O_R   0.403492 0.770481 0.311662 -0.354676
N8    N     N_R   0.590360 0.615012 0.150990 0.236322
O19   O     O_R   0.640517 0.566297 0.147199 -0.341536
O20   O     O_R   0.585263 0.725633 0.207373 -0.278244
I3    I     I_    0.289674 0.260061 0.156386 -0.058628
I4    I     I_    0.275373 0.364770 0.822164 -0.083183
I5    I     I_    0.416274 0.195071 0.787407 -0.155274
I6    I     I_    0.610575 0.665905 0.848592 -0.106427
I7    I     I_    0.076907 0.644826 0.904551 0.056728
N9    N     N_R   0.945338 0.622016 0.840196 0.256875
O21   O     O_R   0.924160 0.731902 0.825832 -0.281866
O22   O     O_R   0.941953 0.569072 0.954630 -0.270613
N10   N     N_R   0.207632 0.712682 0.524654 0.236068
O23   O     O_R   0.172710 0.743456 0.429729 -0.322979
O24   O     O_R   0.207789 0.774773 0.638853 -0.275975
I8    I     I_    0.342133 0.773413 0.589233 -0.057218
N11   N     N_R   0.327268 0.257371 0.489118 0.231890
O25   O     O_R   0.375049 0.244539 0.427245 -0.438658
O26   O     O_R   0.309118 0.166456 0.562349 -0.284589
I9    I     I_    0.187240 0.196030 0.463751 -0.005174
I10   I     I_    0.790331 0.195668 0.536044 -0.101415

loop_
_geom_bond_atom_site_label_1
_geom_bond_atom_site_label_2
_geom_bond_distance
_ccdc_geom_bond_type
C34   H6    1.077390 S    
C41   C42   1.394602 A    
N9    O21   1.301115 A    
C7    C10   1.418548 A    
C8    C9    1.413444 A    
N1    C30   1.424190 S    
C35   C36   1.391329 A    
C35   C40   1.426300 A    
Zn1   N4    2.047491 S    
N8    O19   1.301270 A    
Zn1   O7    2.004519 S    
C15   C16   1.405500 A    
C20   C21   1.407380 A    
H3    C38   1.083620 S    
N5    O14   1.301249 A    
C18   O12   1.345430 S    
C17   N2    1.361709 A    
C39   N7    1.449503 S    
C21   C22   1.418361 A    
O7    C4    1.302767 A    
C15   I7    2.154859 S    
C5    N1    1.362224 A    
C7    C8    1.420647 A    
C28   C29   1.402570 A    
O5    C3    1.296518 A    
C47   N8    1.427733 S    
C3    C40   1.446813 S    
C41   C46   1.401653 A    
N1    C6    1.362212 A    
N10   O24   1.301000 A    
C31   C32   1.389814 A    
C12   C13   1.411294 A    
C2    C21   1.453915 S    
N3    C47   1.368576 A    
C4    C27   1.439288 S    
C43   C44   1.398665 A    
C17   O11   1.350482 S    
C37   C38   1.391960 A    
N9    O22   1.300321 A    
C10   C11   1.393691 A    
C19   C24   1.404107 A    
C39   C40   1.418886 A    
O3    Zn1   1.988551 S    
C32   C33   1.397477 A    
C31   H4    1.082789 S    
C43   I4    2.115763 S    
N8    O20   1.299047 A    
C5    C9    1.405079 A    
N5    O13   1.301718 A    
C44   C45   1.415010 A    
C31   C36   1.412959 A    
C13   C14   1.416624 A    
O3    C2    1.299898 A    
C22   C23   1.409632 A    
N6    O16   1.300362 A    
C48   I6    2.130439 S    
C45   C46   1.438456 A    
C14   C15   1.421319 A    
C27   C28   1.405187 A    
C10   N5    1.438731 S    
C44   I5    2.120231 S    
N6    O15   1.301673 A    
C38   C39   1.378915 A    
O1    C1    1.304104 A    
C26   H2    1.083822 S    
N2    C18   1.367011 A    
C28   I1    2.139055 S    
C19   N10   1.435045 S    
C29   C30   1.408895 A    
Zn2   O8    1.988548 S    
N10   O23   1.301019 A    
N11   O26   1.300484 A    
C6    C7    1.403250 A    
C25   C30   1.401686 A    
C12   C17   1.393376 A    
C26   C27   1.394354 A    
C23   C24   1.406056 A    
O8    C4    1.301660 A    
C42   C43   1.394701 A    
N7    O18   1.299879 A    
C34   C35   1.418423 A    
C16   N9    1.434217 S    
C25   C26   1.384227 A    
C20   I8    2.137631 S    
C32   H5    1.082452 S    
C42   I3    2.112679 S    
C33   N6    1.438234 S    
C14   C18   1.408337 A    
Zn1   O5    2.004474 S    
C11   H1    1.083703 S    
C33   C34   1.407036 A    
C19   C20   1.395816 A    
N2    C24   1.429510 S    
O1    Zn1   1.976054 S    
O2    Zn2   2.004472 S    
C48   N4    1.381118 A    
O6    C3    1.310955 A    
C25   I10   2.120090 S    
O4    Zn2   2.004521 S    
C5    O9    1.349459 S    
C9    C16   1.416013 A    
Zn2   N3    2.046459 S    
O2    C1    1.294689 A    
C45   N4    1.384446 A    
C47   C48   1.428366 A    
C23   I9    2.147292 S    
C22   N11   1.445072 S    
O4    C2    1.310311 A    
N11   O25   1.297896 A    
C8    C13   1.407147 A    
C46   N3    1.370206 A    
C36   C37   1.399315 A    
C41   H7    1.067252 S    
Zn2   O6    1.976055 S    
N7    O17   1.301777 A    
C6    O10   1.349132 S    
C11   C12   1.398479 A    
C29   I2    2.136230 S    
C1    C37   1.427870 S    
