data_mof_unit_7102.cif
_audit_creation_date              2012-12-11T14:41:03-0500
_audit_creation_method            fapswitch 2.2
_symmetry_space_group_name_H-M    P1
_symmetry_Int_Tables_number       1
_space_group_crystal_system       triclinic
_cell_length_a                    24.602826
_cell_length_b                    17.575688
_cell_length_c                    15.601348
_cell_angle_alpha                 90.149156
_cell_angle_beta                  129.891382
_cell_angle_gamma                 89.268251
_cell_volume                      5175.54387041

loop_
_atom_site_label
_atom_site_type_symbol
_atom_type_description
_atom_site_fract_x
_atom_site_fract_y
_atom_site_fract_z
_atom_type_partial_charge
C1    C     C_R   0.346669 0.364103 0.233131 -0.061025
C2    C     C_R   0.679757 0.628256 0.500004 -0.041128
C3    C     C_2   0.345298 0.911843 0.653944 1.021759
C4    C     C_2   0.196454 0.404015 0.469852 1.112227
C5    C     C_2   0.264309 0.617888 0.511853 1.030713
C6    C     C_2   0.690016 0.906800 0.457358 1.110798
C7    C     C_2   0.762431 0.117188 0.508633 1.029638
C8    C     C_2   0.635375 0.785204 0.499034 1.039309
C9    C     C_2   0.688551 0.218850 0.546748 1.048612
C10   C     C_2   0.143662 0.281854 0.513383 1.037820
C11   C     C_2   0.191478 0.719834 0.550983 1.042733
C12   C     C_2   0.688022 0.651823 0.311940 0.975601
C13   C     C_R   0.182974 0.881417 0.497404 0.032595
C14   C     C_2   0.672169 0.357406 0.285877 0.984402
C15   C     C_2   0.182521 0.153102 0.305000 1.027740
C16   C     C_2   0.172100 0.857446 0.285538 0.992992
C17   C     C_2   0.732389 0.365164 0.824240 0.965467
C18   C     C_2   0.735649 0.624263 0.835099 0.941741
C19   C     C_2   0.232214 0.864272 0.823755 0.957931
C20   C     C_2   0.234465 0.129852 0.827015 0.927234
C21   C     C_2   0.210929 0.571440 0.951538 1.036218
C22   C     C_2   0.329090 0.186845 0.245332 1.030047
C23   C     C_2   0.704314 0.077777 0.959224 1.043270
C24   C     C_R   0.180596 0.124818 0.498845 -0.003921
C25   C     C_2   0.736909 0.803493 0.016410 1.027754
C26   C     C_R   0.326196 0.364261 0.502037 0.044544
C27   C     C_R   0.364252 0.686037 0.501242 0.005952
C28   C     C_R   0.824326 0.868516 0.502025 0.051127
C29   C     C_R   0.863628 0.185552 0.501350 -0.000655
C30   C     C_3   0.324261 0.276775 0.624954 -0.416075
C31   C     C_3   0.357305 0.775237 0.619076 -0.410978
C32   C     C_3   0.819758 0.784407 0.624814 -0.409441
C33   C     C_R   0.333907 0.612940 0.201795 -0.085238
C34   C     C_3   0.856411 0.273396 0.619862 -0.428981
C35   C     C_3   0.786293 0.712269 0.625843 -0.230536
C36   C     C_3   0.808738 0.332414 0.616616 -0.240331
C37   C     C_3   0.290670 0.204113 0.624620 -0.255338
C38   C     C_3   0.309740 0.834695 0.616191 -0.233475
C39   C     C_3   0.208487 0.326414 0.441158 -0.348487
C40   C     C_3   0.250235 0.697463 0.462239 -0.289100
C41   C     C_3   0.705355 0.828654 0.434978 -0.351959
C42   C     C_3   0.749122 0.197131 0.460535 -0.301736
C43   C     C_3   0.289110 0.233446 0.442001 -0.419710
C44   C     C_R   0.851773 0.859469 0.244401 -0.115049
C45   C     C_3   0.296979 0.807614 0.420433 -0.476806
C46   C     C_3   0.791366 0.736068 0.448582 -0.435488
C47   C     C_3   0.797256 0.307859 0.421888 -0.439227
C48   C     C_3   0.287114 0.302795 0.503279 0.241916
C49   C     C_3   0.318458 0.740490 0.501613 0.236993
C50   C     C_3   0.785153 0.807039 0.503125 0.241751
C51   C     C_3   0.817883 0.239927 0.501710 0.251427
C52   C     C_3   0.719548 0.690997 0.501711 0.074483
C53   C     C_3   0.732369 0.332494 0.497715 0.070937
C54   C     C_3   0.220937 0.187088 0.500946 0.055800
C55   C     C_R   0.834028 0.113198 0.202127 -0.073297
C56   C     C_3   0.232968 0.833200 0.497878 0.082005
C57   C     C_3   0.668184 0.763091 0.445714 -0.308304
C58   C     C_3   0.702493 0.249365 0.470799 -0.310631
C59   C     C_3   0.171582 0.260865 0.452381 -0.305078
C60   C     C_3   0.203914 0.749797 0.472989 -0.326502
C61   C     C_R   0.657015 0.367414 0.772105 -0.064479
C62   C     C_R   0.667433 0.604827 0.804294 -0.017743
C63   C     C_R   0.156883 0.867143 0.771748 -0.055000
C64   C     C_R   0.164211 0.117356 0.792829 -0.023368
C65   C     C_3   0.745355 0.670459 0.434831 -0.196820
C66   C     C_R   0.626963 0.327553 0.809295 0.052095
C67   C     C_3   0.739488 0.357937 0.407689 -0.194756
C68   C     C_3   0.242681 0.168302 0.428079 -0.194968
C69   C     C_3   0.239688 0.857964 0.406972 -0.199895
C70   C     C_2   0.658855 0.261540 0.884467 -0.168694
C71   C     C_2   0.688147 0.650254 0.980103 -0.183283
C72   C     C_2   0.159935 0.761445 0.885307 -0.175993
C73   C     C_2   0.189959 0.177391 0.963691 -0.152985
C74   C     C_2   0.685159 0.203697 0.864333 -0.068790
C75   C     C_2   0.757565 0.659921 0.042080 -0.182580
C76   C     C_2   0.184727 0.702646 0.863701 -0.058419
C77   C     C_R   0.647165 0.618739 0.868261 0.056744
C78   C     C_2   0.258222 0.155356 0.040296 -0.119675
C79   C     C_2   0.304292 0.670117 0.028831 -0.242063
C80   C     C_2   0.342473 0.257993 0.121227 -0.252231
C81   C     C_2   0.803675 0.166214 0.026001 -0.239625
C82   C     C_2   0.856186 0.746265 0.152486 -0.244956
C83   C     C_2   0.236040 0.648214 0.952297 -0.103355
C84   C     C_2   0.310251 0.203813 0.135681 -0.082996
C85   C     C_2   0.734082 0.148482 0.952813 -0.101807
C86   C     C_2   0.785786 0.736768 0.078277 -0.022929
C87   C     C_R   0.613440 0.395324 0.406125 -0.068442
C88   C     C_R   0.126937 0.827060 0.808885 0.049719
C89   C     C_R   0.612665 0.607879 0.407025 -0.058716
C90   C     C_R   0.113726 0.895831 0.406255 -0.111448
C91   C     C_R   0.112823 0.106297 0.406475 -0.066015
C92   C     C_R   0.390585 0.390700 0.593922 -0.106391
C93   C     C_R   0.416236 0.642918 0.593649 -0.076980
C94   C     C_R   0.889625 0.893204 0.593793 -0.114559
C95   C     C_R   0.915343 0.142317 0.593640 -0.074923
C96   C     C_R   0.689899 0.399628 0.590159 -0.111510
C97   C     C_R   0.688418 0.603931 0.591815 -0.108172
C98   C     C_R   0.190068 0.899823 0.590268 -0.078033
C99   C     C_R   0.143556 0.141037 0.852994 0.052939
C100  C     C_R   0.188873 0.101630 0.590665 -0.102670
C101  C     C_R   0.315036 0.389138 0.408116 -0.112602
C102  C     C_R   0.339796 0.644070 0.407562 -0.108944
C103  C     C_R   0.813998 0.891914 0.408338 -0.125037
C104  C     C_R   0.839557 0.143950 0.407620 -0.108632
C105  C     C_R   0.564690 0.365616 0.769725 -0.104229
C106  C     C_R   0.577111 0.601116 0.803951 -0.140423
C107  C     C_R   0.064627 0.865288 0.769424 -0.107162
C108  C     C_R   0.075888 0.113366 0.797828 -0.139021
C109  C     C_R   0.437208 0.362421 0.230848 -0.062624
C110  C     C_R   0.682750 0.381061 0.497347 -0.038935
C111  C     C_R   0.424241 0.614495 0.200419 -0.061328
C112  C     C_R   0.942626 0.857744 0.242762 -0.049978
C113  C     C_R   0.923829 0.113235 0.199463 -0.068889
C114  C     C_R   0.376082 0.324294 0.194827 0.181076
C115  C     C_R   0.353531 0.636003 0.140886 0.155056
C116  C     C_R   0.883325 0.818647 0.210405 0.136083
C117  C     C_R   0.853057 0.134430 0.139674 0.149316
C118  C     C_2   0.843718 0.651438 0.696056 0.998817
C119  C     C_2   0.844816 0.409021 0.657529 1.013590
C120  C     C_2   0.346260 0.140396 0.684801 1.065406
H1    H     H_    0.297153 0.352677 0.214781 0.078704
H2    H     H_    0.344346 0.842508 0.454252 0.190232
H3    H     H_    0.847674 0.716460 0.502208 0.205647
H4    H     H_    0.844831 0.342707 0.457060 0.210650
H5    H     H_    0.778522 0.618013 0.471401 0.194237
H6    H     H_    0.756823 0.417944 0.424108 0.192542
H7    H     H_    0.274695 0.114890 0.460224 0.200719
H8    H     H_    0.257982 0.917577 0.423007 0.193314
H9    H     H_    0.182851 0.330851 0.351014 0.167894
H10   H     H_    0.218539 0.687865 0.370931 0.172764
H11   H     H_    0.682029 0.830816 0.345762 0.174471
H12   H     H_    0.280545 0.612259 0.172927 0.094120
H13   H     H_    0.717941 0.188188 0.369233 0.174882
H14   H     H_    0.621744 0.748397 0.358586 0.168982
H15   H     H_    0.649045 0.250920 0.386718 0.169154
H16   H     H_    0.122971 0.248700 0.365739 0.166370
H17   H     H_    0.150107 0.750633 0.389461 0.168660
H18   H     H_    0.676411 0.201084 0.786808 0.177150
H19   H     H_    0.789846 0.617709 0.041545 0.182029
H20   H     H_    0.172535 0.698360 0.783518 0.172935
H21   H     H_    0.277976 0.104268 0.028681 0.170836
H22   H     H_    0.321181 0.722736 0.016514 0.190596
H23   H     H_    0.805709 0.843955 0.234284 0.117624
H24   H     H_    0.334627 0.259886 0.044327 0.196732
H25   H     H_    0.822794 0.214216 0.008830 0.191209
H26   H     H_    0.892818 0.698361 0.182774 0.171009
H27   H     H_    0.664648 0.262304 0.959622 0.152444
H28   H     H_    0.658075 0.684241 0.995393 0.202143
H29   H     H_    0.168967 0.763953 0.963162 0.152406
H30   H     H_    0.169685 0.226063 0.979086 0.154017
H31   H     H_    0.587908 0.391423 0.318926 0.110599
H32   H     H_    0.587431 0.615178 0.319915 0.109305
H33   H     H_    0.088689 0.893222 0.319180 0.116379
H34   H     H_    0.781035 0.113539 0.174646 0.091725
H35   H     H_    0.087047 0.113620 0.319198 0.104951
H36   H     H_    0.413307 0.389601 0.680452 0.098613
H37   H     H_    0.444547 0.655590 0.680401 0.115438
H38   H     H_    0.912462 0.892956 0.680398 0.099325
H39   H     H_    0.942203 0.154097 0.680023 0.109466
H40   H     H_    0.738516 0.404523 0.674135 0.160868
H41   H     H_    0.736801 0.600268 0.676417 0.148494
H42   H     H_    0.239045 0.905738 0.674061 0.125788
H43   H     H_    0.237657 0.095972 0.674109 0.164689
H44   H     H_    0.267387 0.384384 0.322016 0.105095
H45   H     H_    0.276388 0.215757 0.677821 0.202546
H46   H     H_    0.295143 0.657616 0.321860 0.105460
H47   H     H_    0.766092 0.887997 0.322270 0.122449
H48   H     H_    0.794902 0.157598 0.321996 0.105849
H49   H     H_    0.530584 0.351980 0.788395 0.111079
H50   H     H_    0.547232 0.597307 0.832698 0.117410
H51   H     H_    0.030422 0.851591 0.787912 0.114522
H52   H     H_    0.048684 0.112106 0.831259 0.119302
H53   H     H_    0.471008 0.348003 0.211357 0.108677
H54   H     H_    0.453236 0.615842 0.169995 0.106993
H55   H     H_    0.978886 0.840677 0.229225 0.112755
H56   H     H_    0.307466 0.817466 0.682025 0.161158
H57   H     H_    0.952532 0.113492 0.168501 0.107944
H58   H     H_    0.321123 0.321906 0.671522 0.235173
H59   H     H_    0.371450 0.730793 0.680998 0.227747
H60   H     H_    0.814618 0.831077 0.667315 0.235462
H61   H     H_    0.869566 0.228342 0.680461 0.220893
H62   H     H_    0.381831 0.266486 0.671519 0.155586
H63   H     H_    0.408183 0.799920 0.648590 0.183733
H64   H     H_    0.877722 0.774463 0.674696 0.153570
H65   H     H_    0.907790 0.298146 0.651631 0.169721
H66   H     H_    0.914138 0.605401 0.850476 0.332858
H67   H     H_    0.768328 0.726136 0.673478 0.212797
H68   H     H_    0.892465 0.485946 0.780933 0.350083
H69   H     H_    0.407545 0.073934 0.822851 0.340031
H70   H     H_    0.435708 0.968976 0.766420 0.348092
H71   H     H_    0.222412 0.479099 0.588254 0.342537
H72   H     H_    0.323064 0.549995 0.648763 0.334783
H73   H     H_    0.709395 0.984006 0.569472 0.346307
H74   H     H_    0.818795 0.048252 0.644487 0.337234
H75   H     H_    0.647863 0.826845 0.631328 0.355282
H76   H     H_    0.727358 0.178387 0.697525 0.346121
H77   H     H_    0.163184 0.320634 0.652559 0.348443
H78   H     H_    0.804874 0.313702 0.680221 0.182705
H79   H     H_    0.232296 0.679459 0.702727 0.348132
H80   H     H_    0.776577 0.750909 0.366599 0.169618
H81   H     H_    0.779270 0.287436 0.339867 0.164590
H82   H     H_    0.272109 0.250609 0.359342 0.175459
H83   H     H_    0.278324 0.786529 0.338301 0.176891
H84   H     H_    0.645475 0.572762 0.191817 0.346950
H85   H     H_    0.599002 0.419178 0.147173 0.320874
H86   H     H_    0.134324 0.076951 0.180242 0.344679
H87   H     H_    0.099626 0.919051 0.146238 0.322577
H88   H     H_    0.816748 0.304349 0.867292 0.345117
H89   H     H_    0.344689 0.212447 0.491376 0.200108
H90   H     H_    0.837260 0.592688 0.917402 0.365723
H91   H     H_    0.316126 0.802462 0.866923 0.339914
H92   H     H_    0.331589 0.086147 0.901437 0.369320
H93   H     H_    0.234970 0.461112 0.999445 0.322715
H94   H     H_    0.401065 0.193977 0.413508 0.327526
H95   H     H_    0.722328 0.971913 0.021541 0.332925
H96   H     H_    0.651140 0.863154 0.970680 0.335097
N1    N     N_R   0.389430 0.421450 0.294590 -0.048374
N2    N     N_R   0.581780 0.577610 0.443390 -0.042437
N3    N     N_R   0.081780 0.922390 0.443390 -0.049719
N4    N     N_R   0.081780 0.077610 0.443390 -0.041540
N5    N     N_R   0.419850 0.423100 0.556610 -0.042802
N6    N     N_R   0.419850 0.576900 0.556610 -0.045103
N7    N     N_R   0.919850 0.923100 0.556610 -0.044184
N8    N     N_R   0.919850 0.076900 0.556610 -0.043851
N9    N     N_R   0.627410 0.423100 0.556610 -0.047858
N10   N     N_R   0.627410 0.576900 0.556610 -0.048065
N11   N     N_R   0.127410 0.923100 0.556610 -0.053438
N12   N     N_R   0.389430 0.578550 0.294590 -0.051460
N13   N     N_R   0.127410 0.076900 0.556610 -0.051104
N14   N     N_R   0.374220 0.422390 0.443390 -0.038102
N15   N     N_R   0.374220 0.577610 0.443390 -0.038706
N16   N     N_R   0.874220 0.922390 0.443390 -0.044185
N17   N     N_R   0.874220 0.077610 0.443390 -0.036585
N18   N     N_R   0.555000 0.424040 0.705410 -0.055285
N19   N     N_R   0.555000 0.575960 0.705410 -0.054262
N20   N     N_R   0.055000 0.924040 0.705410 -0.056659
N21   N     N_R   0.055000 0.075960 0.705410 -0.054235
N22   N     N_R   0.446630 0.421450 0.294590 -0.057271
N23   N     N_R   0.889430 0.921450 0.294590 -0.045509
N24   N     N_R   0.446630 0.578550 0.294590 -0.053875
N25   N     N_R   0.946630 0.921450 0.294590 -0.056057
N26   N     N_R   0.946630 0.078550 0.294590 -0.052532
N27   N     N_R   0.889430 0.078550 0.294590 -0.050441
N28   N     N_R   0.612200 0.424040 0.705410 -0.069825
N29   N     N_R   0.612200 0.575960 0.705410 -0.076308
N30   N     N_R   0.112200 0.924040 0.705410 -0.069530
N31   N     N_R   0.112200 0.075960 0.705410 -0.072153
N32   N     N_R   0.581780 0.422390 0.443390 -0.043702
Ni1   Ni    Ni4+2 0.382890 0.500000 0.370170 0.254317
Ni2   Ni    Ni4+2 0.882890 0.000000 0.370170 0.255483
Ni3   Ni    Ni4+2 0.618740 0.500000 0.629830 0.278494
Ni4   Ni    Ni4+2 0.118740 0.000000 0.629830 0.280276
Ni5   Ni    Ni4+2 0.514090 0.500000 0.370170 0.244497
Ni6   Ni    Ni4+2 0.014090 0.000000 0.370170 0.245045
Ni7   Ni    Ni4+2 0.487550 0.500000 0.629830 0.226738
Ni8   Ni    Ni4+2 0.987550 0.000000 0.629830 0.225246
O1    O     O_2   0.872233 0.620050 0.663759 -0.615240
O2    O     O_R   0.240488 0.429872 0.579888 -0.789384
O3    O     O_2   0.235552 0.563626 0.449161 -0.625458
O4    O     O_R   0.313267 0.605824 0.627352 -0.784728
O5    O     O_2   0.640660 0.944809 0.378900 -0.579424
O6    O     O_R   0.729062 0.934083 0.566176 -0.782454
O7    O     O_2   0.734673 0.063350 0.444900 -0.625307
O8    O     O_R   0.809791 0.104262 0.623997 -0.782701
O9    O     O_2   0.571740 0.777239 0.445710 -0.630699
O10   O     O_R   0.676522 0.815068 0.606826 -0.750711
O11   O     O_2   0.627539 0.207510 0.507614 -0.617412
O12   O     O_R   0.869896 0.638679 0.805040 -0.798411
O13   O     O_R   0.744123 0.202556 0.659352 -0.756391
O14   O     O_2   0.080505 0.275340 0.465007 -0.630774
O15   O     O_R   0.188823 0.309168 0.622737 -0.761323
O16   O     O_2   0.130898 0.708177 0.513721 -0.636565
O17   O     O_R   0.248022 0.704220 0.663364 -0.754667
O18   O     O_2   0.647746 0.701211 0.243882 -0.646661
O19   O     O_R   0.683936 0.577862 0.275653 -0.759040
O20   O     O_2   0.644356 0.297673 0.237134 -0.657745
O21   O     O_R   0.643319 0.426233 0.227691 -0.780724
O22   O     O_2   0.142593 0.204347 0.241103 -0.664560
O23   O     O_2   0.861723 0.442756 0.609494 -0.605349
O24   O     O_R   0.174974 0.080051 0.263648 -0.730757
O25   O     O_2   0.143207 0.797787 0.237798 -0.659943
O26   O     O_R   0.144261 0.926092 0.226493 -0.769358
O27   O     O_2   0.766262 0.423636 0.860865 -0.573154
O28   O     O_R   0.765144 0.297488 0.830950 -0.827249
O29   O     O_2   0.745528 0.689373 0.821016 -0.602883
O30   O     O_R   0.790445 0.570302 0.887853 -0.739422
O31   O     O_2   0.266809 0.922200 0.861978 -0.584082
O32   O     O_R   0.264346 0.796253 0.829936 -0.827727
O33   O     O_2   0.252705 0.194560 0.828644 -0.633414
O34   O     O_R   0.863501 0.438244 0.756501 -0.787402
O35   O     O_R   0.282181 0.069130 0.866749 -0.745023
O36   O     O_2   0.147718 0.561277 0.899389 -0.613363
O37   O     O_R   0.258796 0.510213 0.006759 -0.802008
O38   O     O_2   0.290096 0.147362 0.249099 -0.630741
O39   O     O_R   0.392977 0.212145 0.344511 -0.780061
O40   O     O_2   0.641250 0.075156 0.913049 -0.619501
O41   O     O_R   0.747673 0.013667 0.015544 -0.770252
O42   O     O_2   0.744880 0.844813 0.962391 -0.572893
O43   O     O_R   0.682359 0.818467 0.019796 -0.825213
O44   O     O_2   0.377057 0.118314 0.651383 -0.621005
O45   O     O_R   0.367149 0.112302 0.785790 -0.807828
O46   O     O_2   0.312654 0.970135 0.602732 -0.648090
O47   O     O_R   0.415983 0.915924 0.751700 -0.776055
O48   O     O_2   0.145342 0.442678 0.395840 -0.583327

loop_
_geom_bond_atom_site_label_1
_geom_bond_atom_site_label_2
_ccdc_geom_bond_type
C55   H34   S    
C113  H57   S    
N3    Ni6   S    
C11   O16   D    
C62   C77   A    
C42   C58   S    
C107  H51   S    
N31   Ni4   S    
C105  H49   S    
H74   O8    S    
C15   O24   S    
C119  O23   D    
C13   C90   A    
C109  H53   S    
C79   H22   S    
C26   C92   A    
C81   C117  S    
C28   C94   A    
C7    C42   S    
C3    O47   S    
C11   O17   S    
C36   C53   S    
C17   C61   S    
C21   C83   S    
H84   O19   S    
C19   C63   S    
C43   C68   S    
C25   O42   D    
C70   C74   D    
C97   N10   A    
N9    Ni3   S    
N27   Ni2   S    
C30   H62   S    
C22   O39   S    
C76   C83   S    
C98   H42   S    
N17   Ni2   S    
N10   Ni3   S    
C45   C69   S    
N20   N30   A    
C46   C65   S    
C78   H21   S    
C41   H11   S    
C62   N29   A    
C109  N22   A    
C5    O4    S    
N8    N17   A    
C8    C57   S    
C75   C86   S    
C38   H56   S    
C45   H83   S    
H76   O13   S    
C90   H33   S    
C2    C52   S    
C10   O15   S    
H90   O30   S    
C27   C93   A    
C11   C60   S    
C120  O45   S    
N7    N16   A    
N8    Ni8   S    
N12   Ni1   S    
C55   C117  A    
C24   C100  A    
C15   O22   D    
C8    O9    D    
C53   C58   S    
C18   O30   S    
C66   C70   S    
H70   O47   S    
C100  H43   S    
C43   H89   S    
C82   C116  S    
C14   O20   D    
C108  N21   A    
C44   C116  A    
H85   O21   S    
C32   H60   S    
C24   C54   S    
N2    N10   A    
C52   C65   S    
C22   C84   S    
C103  H47   S    
C40   C60   S    
C79   C115  S    
C73   H30   S    
N21   Ni8   S    
C87   C110  A    
C99   C108  A    
C9    O11   D    
C34   C51   S    
N4    N13   A    
C95   H39   S    
C30   C48   S    
C100  N13   A    
N12   N24   A    
C54   C68   S    
C40   C49   S    
H95   O41   S    
C59   H16   S    
C16   O25   D    
N21   N31   A    
H71   O2    S    
H75   O10   S    
C17   O28   S    
C64   C99   A    
C120  O44   D    
C69   H8    S    
C80   H24   S    
N4    Ni6   S    
N5    N14   A    
C14   C67   S    
C7    O7    D    
C101  N14   A    
H77   O15   S    
C13   C56   S    
C102  H46   S    
H96   O43   S    
C106  H50   S    
N1    Ni1   S    
C12   O19   S    
C54   C59   S    
C21   O37   S    
N23   N25   A    
N32   Ni5   S    
C18   C62   S    
C37   H45   S    
C39   H9    S    
C29   C104  A    
C30   H58   S    
H86   O24   S    
C6    O6    S    
C21   O36   D    
C109  C114  A    
C113  C117  A    
C33   H12   S    
H79   O17   S    
C97   H41   S    
C108  H52   S    
C66   C105  A    
N15   Ni1   S    
C71   C77   S    
C98   N11   A    
C29   C51   S    
H66   O12   S    
C9    O13   S    
H91   O32   S    
H72   O4    S    
C58   H15   S    
C27   C102  A    
H73   O6    S    
N19   Ni7   S    
C75   H19   S    
C44   H23   S    
C19   O32   S    
C34   C36   S    
C74   C85   S    
C53   C67   S    
C1    H1    S    
C24   C91   A    
H69   O45   S    
C113  N26   A    
N18   N28   A    
N11   Ni4   S    
C35   C118  S    
C81   C85   D    
C27   C49   S    
C107  N20   A    
N5    Ni7   S    
N28   Ni3   S    
C63   C88   A    
C111  H54   S    
C105  N18   A    
C112  C116  A    
C80   C84   D    
N6    Ni7   S    
C74   H18   S    
C55   N27   A    
C92   N5    A    
C36   H78   S    
C5    O3    D    
C34   H61   S    
C9    C58   S    
C4    O48   D    
C91   N4    A    
C89   H32   S    
C89   N2    A    
N7    Ni8   S    
H94   O39   S    
C2    C97   A    
C93   N6    A    
N14   Ni1   S    
C3    O46   D    
C26   C48   S    
N9    N32   A    
N29   Ni3   S    
C94   H38   S    
N23   Ni2   S    
C31   C49   S    
C82   H26   S    
C33   C115  A    
N22   Ni5   S    
C8    O10   S    
C67   H6    S    
C12   O18   D    
C18   O29   D    
C88   C107  A    
C47   C51   S    
C82   C86   D    
C96   C110  A    
C56   C60   S    
C30   C37   S    
C31   H59   S    
C34   H65   S    
C45   C49   S    
C39   C59   S    
C25   O43   S    
C43   H82   S    
N26   N27   A    
N20   Ni8   S    
C68   H7    S    
H92   O35   S    
C118  O12   S    
C14   O21   S    
C112  N25   A    
C102  N15   A    
C57   H14   S    
C1    C114  A    
C22   O38   D    
C41   C50   S    
C40   H10   S    
C77   C106  A    
C101  H44   S    
C111  N24   A    
C45   H2    S    
C12   C65   S    
C31   C38   S    
C96   N9    A    
C10   C59   S    
C41   C57   S    
C79   C83   D    
C28   C103  A    
C47   H4    S    
C52   C57   S    
C17   O27   D    
C35   H67   S    
C10   O14   D    
C5    C40   S    
C35   C52   S    
C1    N1    A    
C70   H27   S    
N3    N11   A    
N18   Ni7   S    
C39   C48   S    
C53   C110  S    
C2    C89   A    
C72   C76   D    
C33   N12   A    
C87   N32   A    
C118  O1    D    
N30   Ni4   S    
C64   N31   A    
N24   Ni5   S    
C42   H13   S    
C20   O33   D    
C119  O34   S    
C26   C101  A    
C47   H81   S    
C13   C98   A    
C36   C119  S    
C28   C50   S    
C61   C66   A    
C3    C38   S    
C6    C41   S    
C73   C78   D    
C43   C48   S    
C23   O41   S    
C60   H17   S    
H93   O37   S    
C61   N28   A    
C71   H28   S    
C87   H31   S    
C47   C67   S    
C72   C88   S    
C46   C50   S    
H88   O28   S    
C76   H20   S    
C106  N19   A    
C32   C35   S    
C29   C95   A    
C65   H5    S    
C20   C64   S    
C91   H35   S    
C104  H48   S    
C46   H80   S    
C4    C39   S    
C19   O31   D    
C38   C56   S    
C7    O8    S    
C92   H36   S    
C93   H37   S    
C32   C50   S    
C90   N3    A    
C37   C54   S    
C104  N17   A    
C96   H40   S    
C80   C114  S    
N6    N15   A    
C56   C69   S    
C81   H25   S    
C94   N7    A    
N26   Ni6   S    
N16   Ni2   S    
C44   N23   A    
C103  N16   A    
C73   C99   S    
C63   N30   A    
C4    O2    S    
C31   H63   S    
C20   O35   S    
C32   H64   S    
C16   C69   S    
H68   O34   S    
C42   C51   S    
C95   N8    A    
H87   O26   S    
C71   C75   D    
C37   C120  S    
C15   C68   S    
C25   C86   S    
N2    Ni5   S    
C6    O5    D    
C16   O26   S    
C46   H3    S    
N13   Ni4   S    
C78   C84   S    
C112  H55   S    
C72   H29   S    
C23   C85   S    
C111  C115  A    
N25   Ni6   S    
N1    N22   A    
N19   N29   A    
C23   O40   D    
