data_mof_unit_52042.cif
_audit_creation_date              2012-10-26T19:40:40-0400
_audit_creation_method            fapswitch 2.2
_symmetry_space_group_name_H-M    P1
_symmetry_Int_Tables_number       1
_space_group_crystal_system       triclinic
_cell_length_a                    9.670842
_cell_length_b                    10.960102
_cell_length_c                    13.426045
_cell_angle_alpha                 89.918934
_cell_angle_beta                  72.417505
_cell_angle_gamma                 89.903955
_cell_volume                      1356.58816749

loop_
_atom_site_label
_atom_site_type_symbol
_atom_type_description
_atom_site_fract_x
_atom_site_fract_y
_atom_site_fract_z
_atom_type_partial_charge
C1    C     C_R   0.497565 0.734240 0.505990 0.582403
C2    C     C_R   0.375349 0.495143 0.815040 0.003721
C3    C     C_2   0.590270 0.066504 0.526451 0.269081
C4    C     C_R   0.422401 0.495177 0.700179 0.523480
C5    C     C_2   0.511730 0.134534 0.479368 0.287870
C6    C     C_2   0.607469 0.934942 0.499705 0.276030
C7    C     C_2   0.487774 0.864378 0.529515 0.289120
C8    C     C_2   0.059654 0.585884 0.542666 -0.036024
C9    C     C_2   0.897328 0.577747 0.555267 0.385831
C10   C     C_R   0.501783 0.265689 0.496660 0.570850
C11   C     C_R   0.577615 0.497408 0.299985 0.534043
C12   C     C_R   0.436400 0.489074 0.979107 0.017361
C13   C     C_R   0.774018 0.378045 0.032931 -0.123549
C14   C     C_R   0.621410 0.478410 0.187023 -0.003954
C15   C     C_R   0.240610 0.547425 0.867435 -0.138480
C16   C     C_R   0.201430 0.567260 0.974267 -0.143908
C17   C     C_R   0.298548 0.541121 0.029503 -0.111579
C18   C     C_3   0.477791 0.136627 0.316667 -0.125231
C19   C     C_3   0.838062 0.966050 0.383557 -0.111531
C20   C     C_3   0.296009 0.864415 0.680339 -0.134254
C21   C     C_3   0.835090 0.691917 0.708774 -0.140945
C22   C     C_3   0.913697 0.340032 0.756345 -0.121210
C23   C     C_R   0.468814 0.456085 0.872547 -0.019356
C24   C     C_3   0.688003 0.040663 0.663938 -0.124999
C25   C     C_R   0.541762 0.466710 0.031483 -0.018557
C26   C     C_R   0.670552 0.400778 0.980504 0.056585
C27   C     C_R   0.692952 0.356525 0.878933 0.250586
C28   C     C_R   0.591275 0.382316 0.826924 -0.101890
C29   C     C_R   0.522685 0.508028 0.133603 -0.131805
C30   C     C_R   0.749086 0.415957 0.135780 -0.166740
Cu1   Cu    Cu3+1 0.361370 0.499980 0.499980 0.920919
Cu2   Cu    Cu3+1 0.638630 0.500020 0.500020 1.019230
H1    H     H_    0.826397 0.391867 0.176493 0.124188
H2    H     H_    0.607186 0.339657 0.751732 0.173755
H3    H     H_    0.596780 0.152810 0.284579 0.081719
H4    H     H_    0.417229 0.223488 0.320120 0.149213
H5    H     H_    0.446408 0.075645 0.261282 0.146662
H6    H     H_    0.877019 0.035763 0.428740 0.154220
H7    H     H_    0.786790 0.009997 0.328704 0.100798
H8    H     H_    0.934476 0.915112 0.335800 0.147668
H9    H     H_    0.377868 0.859109 0.723407 0.088165
H10   H     H_    0.249833 0.772694 0.675708 0.129459
H11   H     H_    0.206088 0.923204 0.726619 0.143939
H12   H     H_    0.099651 0.666167 0.571850 0.152463
H13   H     H_    0.917179 0.765961 0.691758 0.102370
H14   H     H_    0.872036 0.612118 0.745295 0.084616
H15   H     H_    0.736194 0.728051 0.767016 0.138712
H16   H     H_    0.957032 0.418915 0.789640 0.108590
H17   H     H_    0.005512 0.276777 0.722531 0.159795
H18   H     H_    0.871986 0.369889 0.691623 0.133682
H19   H     H_    0.774767 0.974288 0.625939 0.166281
H20   H     H_    0.587011 0.992788 0.708715 0.107666
H21   H     H_    0.726288 0.093618 0.720769 0.180069
H22   H     H_    0.114108 0.420927 0.480670 0.199684
H23   H     H_    0.918145 0.447743 0.446633 0.160394
H24   H     H_    0.872940 0.328311 0.995531 0.158937
H25   H     H_    0.430450 0.562541 0.174734 0.126242
H26   H     H_    0.166621 0.576117 0.825303 0.109801
H27   H     H_    0.260380 0.559804 0.112041 0.106270
H28   H     H_    0.096602 0.606725 0.014148 0.118372
N1    N     N_2   0.152660 0.501340 0.501130 -0.382649
N2    N     N_2   0.846520 0.501370 0.501160 -0.316612
O1    O     O_R   0.382960 0.678040 0.499980 -0.498130
O2    O     O_3   0.743021 0.882848 0.450810 -0.565777
O3    O     O_3   0.353442 0.916436 0.580008 -0.564237
O4    O     O_3   0.799213 0.660205 0.617854 -0.496163
O5    O     O_3   0.806696 0.277507 0.834504 -0.595213
O6    O     O_3   0.662442 0.122410 0.590124 -0.599962
O7    O     O_R   0.617100 0.678080 0.500020 -0.411493
O8    O     O_R   0.325800 0.499940 0.650950 -0.519368
O9    O     O_R   0.559930 0.499980 0.650990 -0.470156
O10   O     O_R   0.382900 0.321920 0.499980 -0.498905
O11   O     O_R   0.617040 0.321960 0.500020 -0.489847
O12   O     O_R   0.440070 0.500020 0.349010 -0.502580
O13   O     O_R   0.674200 0.500060 0.349050 -0.506846
O14   O     O_3   0.440046 0.079302 0.415526 -0.568892

loop_
_geom_bond_atom_site_label_1
_geom_bond_atom_site_label_2
_ccdc_geom_bond_type
C12   C17   A    
C24   H20   S    
C20   H10   S    
Cu2   O7    S    
C19   H6    S    
C21   O4    S    
C7    O3    S    
C15   H26   S    
C18   H3    S    
Cu1   N1    S    
C2    C4    S    
C3    O6    S    
C8    N1    D    
C22   H18   S    
C3    C6    S    
C13   H24   S    
C5    O14   S    
C4    O8    A    
C20   H9    S    
C24   H21   S    
C3    C5    D    
Cu2   N2    S    
C5    C10   S    
C11   O13   A    
C23   C28   A    
C2    C15   A    
C12   C23   A    
C8    H12   S    
C26   C27   A    
C6    C7    D    
C19   H7    S    
C17   H27   S    
C22   H17   S    
C1    O1    A    
C27   C28   A    
Cu1   O10   S    
C11   C14   S    
C18   H5    S    
C14   C30   A    
C22   H16   S    
Cu2   O9    S    
C21   H13   S    
Cu1   O8    S    
C25   C29   A    
C13   C26   A    
C10   O11   A    
C22   O5    S    
C24   H19   S    
C27   O5    S    
C19   H8    S    
C24   O6    S    
C12   C25   A    
C28   H2    S    
C15   C16   A    
C11   O12   A    
H23   N2    S    
Cu1   O1    S    
C13   C30   A    
C2    C23   A    
C20   H11   S    
Cu2   O13   S    
Cu1   Cu2   S    
C21   H14   S    
C16   H28   S    
C6    O2    S    
Cu2   O11   S    
C9    O4    S    
C8    C9    S    
Cu1   O12   S    
C18   O14   S    
C14   C29   A    
C30   H1    S    
C21   H15   S    
C25   C26   A    
C1    C7    S    
C18   H4    S    
C19   O2    S    
C4    O9    A    
C1    O7    A    
C9    N2    D    
C29   H25   S    
C16   C17   A    
C20   O3    S    
H22   N1    S    
C10   O10   A    
