data_mof_unit_49748.cif
_audit_creation_date              2012-12-10T19:10:33-0500
_audit_creation_method            fapswitch 2.2
_symmetry_space_group_name_H-M    P1
_symmetry_Int_Tables_number       1
_space_group_crystal_system       triclinic
_cell_length_a                    10.689855
_cell_length_b                    9.891832
_cell_length_c                    15.71877
_cell_angle_alpha                 90.71656
_cell_angle_beta                  89.63145
_cell_angle_gamma                 90.295378
_cell_volume                      1661.95232976

loop_
_atom_site_label
_atom_site_type_symbol
_atom_type_description
_atom_site_fract_x
_atom_site_fract_y
_atom_site_fract_z
_atom_type_partial_charge
C1    C     C_R   0.258492 0.499619 0.501071 0.875324
C2    C     C_3   0.930717 0.361987 0.544232 -0.220322
C3    C     C_3   0.068831 0.499478 0.408084 -0.109080
C4    C     C_3   0.121944 0.498855 0.501914 -0.028065
C5    C     C_3   0.878531 0.499748 0.509965 -0.030766
C6    C     C_R   0.500591 0.499355 0.338777 0.959220
C7    C     C_3   0.923758 0.515288 0.415924 -0.472492
C8    C     C_3   0.460065 0.083362 0.582703 -0.211719
C9    C     C_3   0.441234 0.924096 0.577954 -0.201614
C10   C     C_3   0.406712 0.078307 0.437007 -0.282041
C11   C     C_3   0.421343 0.918048 0.428357 -0.253030
C12   C     C_3   0.648163 0.464708 0.952776 -0.103676
C13   C     C_3   0.624494 0.082682 0.473528 -0.166157
C14   C     C_3   0.628870 0.923328 0.487470 -0.157295
C15   C     C_R   0.741442 0.500331 0.506595 0.891554
C16   C     C_R   0.501713 0.500748 0.661194 0.938456
C17   C     C_3   0.477792 0.653288 0.049538 -0.153568
C18   C     C_3   0.402208 0.396983 0.045722 -0.134728
C19   C     C_3   0.417496 0.394549 0.946351 -0.442195
C20   C     C_3   0.467992 0.641228 0.949941 -0.430021
C21   C     C_1   0.508530 0.502282 0.749789 -0.024507
C22   C     C_3   0.502020 0.503207 0.082835 -0.005126
C23   C     C_3   0.635955 0.460492 0.052134 -0.479949
C24   C     C_3   0.514693 0.501335 0.916795 0.084496
C25   C     C_2   0.120932 0.618215 0.356166 0.885321
C26   C     C_2   0.103722 0.366018 0.361669 0.937520
C27   C     C_2   0.539801 0.128764 0.658155 1.027415
C28   C     C_2   0.471793 0.860751 0.662217 0.988327
C29   C     C_2   0.664304 0.127149 0.383872 0.987989
C30   C     C_2   0.711798 0.858690 0.419632 0.932973
C31   C     C_2   0.360216 0.718974 0.088525 0.938589
C32   C     C_2   0.269017 0.435985 0.072903 0.914743
C33   C     C_2   0.419270 0.251592 0.077236 0.961986
C34   C     C_1   0.513512 0.502298 0.824963 -0.010416
C35   C     C_2   0.584636 0.750502 0.075218 0.907005
C36   C     C_2   0.750103 0.567332 0.929360 0.995369
C37   C     C_2   0.691556 0.327646 0.916598 0.884987
C38   C     C_2   0.889121 0.642784 0.651993 0.954191
C39   C     C_2   0.876307 0.308279 0.626794 1.025592
C40   C     C_1   0.501414 0.500556 0.174837 0.109489
C41   C     C_1   0.501164 0.498647 0.250101 0.049308
C42   C     C_3   0.076239 0.622761 0.555799 -0.404687
C43   C     C_3   0.073774 0.371264 0.549714 -0.436040
C44   C     C_3   0.932715 0.624461 0.560829 -0.220655
H1    H     H_    0.902407 0.717179 0.527804 0.212151
H2    H     H_    0.515686 0.725108 0.916589 0.253479
H3    H     H_    0.707181 0.526807 0.083042 0.199821
H4    H     H_    0.660454 0.360349 0.077457 0.268047
H5    H     H_    0.110133 0.720344 0.530233 0.241091
H6    H     H_    0.113722 0.276196 0.522642 0.203904
H7    H     H_    0.369608 0.650761 0.928423 0.230918
H8    H     H_    0.327526 0.410695 0.913140 0.241490
H9    H     H_    0.134771 0.820245 0.341395 0.344230
H10   H     H_    0.239218 0.252550 0.306696 0.353516
H11   H     H_    0.539431 0.195446 0.780013 0.361224
H12   H     H_    0.909133 0.282152 0.496140 0.216196
H13   H     H_    0.404745 0.782922 0.771668 0.344454
H14   H     H_    0.309603 0.101618 0.458503 0.165867
H15   H     H_    0.327194 0.869976 0.429365 0.178512
H16   H     H_    0.782622 0.236213 0.311965 0.368668
H17   H     H_    0.883335 0.857290 0.366338 0.376964
H18   H     H_    0.412422 0.127214 0.374172 0.218076
H19   H     H_    0.460446 0.891552 0.364920 0.249914
H20   H     H_    0.275151 0.793162 0.194122 0.366409
H21   H     H_    0.097491 0.502515 0.041411 0.390779
H22   H     H_    0.502653 0.121274 0.156604 0.387278
H23   H     H_    0.893603 0.615664 0.392744 0.205242
H24   H     H_    0.710571 0.893671 0.041688 0.373329
H25   H     H_    0.930106 0.625773 0.943191 0.377545
H26   H     H_    0.702586 0.125025 0.929418 0.375640
H27   H     H_    0.118759 0.618130 0.620263 0.194988
H28   H     H_    0.105125 0.376841 0.617196 0.212458
H29   H     H_    0.799227 0.762652 0.736416 0.408594
H30   H     H_    0.886814 0.165943 0.717447 0.401284
H31   H     H_    0.872966 0.444419 0.373169 0.221422
H32   H     H_    0.366322 0.126807 0.597850 0.148198
H33   H     H_    0.337966 0.907250 0.574016 0.141562
H34   H     H_    0.696727 0.128822 0.514856 0.177905
H35   H     H_    0.680774 0.906115 0.547274 0.199302
H36   H     H_    0.446895 0.293252 0.922394 0.213817
N1    N     N_3   0.499750 0.138610 0.498180 -0.133986
N2    N     N_3   0.499750 0.861390 0.498180 -0.119336
O1    O     O_R   0.314910 0.616040 0.499980 -0.634976
O2    O     O_R   0.097199 0.751498 0.381611 -0.829091
O3    O     O_2   0.024877 0.279687 0.345471 -0.604306
O4    O     O_R   0.228040 0.342075 0.337841 -0.759505
O5    O     O_2   0.652844 0.112432 0.658702 -0.596390
O6    O     O_R   0.479308 0.176331 0.731764 -0.793400
O7    O     O_2   0.579923 0.849615 0.685494 -0.565183
O8    O     O_R   0.373915 0.819906 0.715780 -0.794481
O9    O     O_2   0.613398 0.080774 0.320369 -0.619685
O10   O     O_R   0.765248 0.215194 0.373920 -0.782717
O11   O     O_2   0.668685 0.792319 0.360845 -0.550014
O12   O     O_R   0.314910 0.383960 0.499980 -0.617222
O13   O     O_R   0.839305 0.890346 0.419837 -0.801998
O14   O     O_2   0.274699 0.758057 0.043816 -0.570531
O15   O     O_R   0.353458 0.742462 0.176400 -0.748649
O16   O     O_2   0.238273 0.427506 0.147759 -0.561854
O17   O     O_R   0.181037 0.480111 0.013982 -0.760668
O18   O     O_2   0.354970 0.160729 0.046546 -0.571507
O19   O     O_R   0.502665 0.220966 0.142367 -0.789113
O20   O     O_2   0.616606 0.759070 0.149749 -0.562799
O21   O     O_R   0.643193 0.834033 0.015625 -0.768721
O22   O     O_2   0.730447 0.657538 0.878819 -0.594614
O23   O     O_R   0.500120 0.616090 0.377110 -0.560795
O24   O     O_R   0.869658 0.553787 0.963822 -0.782815
O25   O     O_2   0.741558 0.321762 0.846371 -0.568886
O26   O     O_R   0.671352 0.207972 0.961413 -0.788324
O27   O     O_2   0.927256 0.569449 0.708162 -0.567553
O28   O     O_R   0.814409 0.753496 0.672964 -0.737114
O29   O     O_2   0.786207 0.361619 0.661394 -0.563082
O30   O     O_R   0.928642 0.192543 0.662023 -0.755342
O31   O     O_R   0.500120 0.383910 0.377110 -0.609518
O32   O     O_R   0.685320 0.616040 0.499960 -0.630716
O33   O     O_R   0.685320 0.383960 0.499960 -0.611713
O34   O     O_R   0.500110 0.615990 0.622830 -0.611799
O35   O     O_R   0.500110 0.384010 0.622830 -0.609649
O36   O     O_2   0.181570 0.597927 0.291080 -0.552381
Zn1   Zn    Zn3+2 0.500150 0.654960 0.499960 1.003694
Zn2   Zn    Zn3+2 0.500150 0.345040 0.499960 0.980756

loop_
_geom_bond_atom_site_label_1
_geom_bond_atom_site_label_2
_ccdc_geom_bond_type
C43   H28   S    
H24   O21   S    
C35   O20   D    
C25   O36   D    
H29   O28   S    
C12   C23   S    
C16   C21   S    
C27   O6    S    
H9    O2    S    
C33   O19   S    
C1    O1    A    
C13   C29   S    
C10   H14   S    
C37   O25   D    
C20   H7    S    
C35   O21   S    
H30   O30   S    
C31   O14   D    
C13   N1    S    
C8    H32   S    
C17   C20   S    
C18   C19   S    
O1    Zn1   S    
H11   O6    S    
O12   Zn2   S    
C2    C39   S    
C20   C24   S    
C8    C9    S    
C6    C41   S    
C25   O2    S    
C28   O7    D    
C12   C36   S    
O32   Zn1   S    
C9    N2    S    
C19   H8    S    
C39   O29   D    
C13   C14   S    
H22   O19   S    
C10   H18   S    
C42   C44   S    
N2    Zn1   S    
C14   C30   S    
C11   H15   S    
C16   O34   A    
H16   O10   S    
C11   N2    S    
C23   H3    S    
H13   O8    S    
C36   O24   S    
C8    N1    S    
O34   Zn1   S    
C3    C25   S    
H21   O17   S    
C37   O26   S    
O35   Zn2   S    
C5    C7    S    
C1    O12   A    
C7    H31   S    
C21   C34   T    
C38   O28   S    
C24   C34   S    
C6    O31   A    
C38   C44   S    
C30   O13   S    
O31   Zn2   S    
N1    Zn2   S    
C2    C43   S    
C26   O4    S    
C22   C40   S    
C15   O32   A    
C9    H33   S    
C14   H35   S    
C38   O27   D    
C27   O5    D    
H20   O15   S    
C5    C44   S    
C17   C31   S    
C15   O33   A    
C2    C5    S    
C18   C32   S    
C14   N2    S    
C3    C4    S    
C29   O9    D    
C44   H1    S    
H10   O4    S    
C13   H34   S    
C40   C41   T    
C23   H4    S    
C18   C22   S    
C3    C26   S    
H25   O24   S    
H17   O13   S    
C43   H6    S    
C4    C43   S    
C30   O11   D    
C12   C24   S    
C10   N1    S    
C3    C7    S    
C17   C22   S    
C32   O17   S    
C36   O22   D    
C33   O18   D    
C1    C4    S    
C19   C24   S    
C2    H12   S    
C16   O35   A    
C4    C42   S    
C26   O3    D    
C42   H27   S    
C6    O23   A    
C32   O16   D    
C31   O15   S    
C19   H36   S    
C18   C33   S    
C5    C15   S    
C10   C11   S    
C42   H5    S    
C7    H23   S    
O33   Zn2   S    
C12   C37   S    
C8    C27   S    
C22   C23   S    
O23   Zn1   S    
C28   O8    S    
C17   C35   S    
C11   H19   S    
H26   O26   S    
C29   O10   S    
C20   H2    S    
C9    C28   S    
C39   O30   S    
