data_mof_unit_64340.cif
_audit_creation_date              2013-03-05T16:13:11-0500
_audit_creation_method            fapswitch 2.2
_symmetry_space_group_name_H-M    P1
_symmetry_Int_Tables_number       1
_space_group_crystal_system       triclinic
_cell_length_a                    43.894938
_cell_length_b                    30.301255
_cell_length_c                    30.260821
_cell_angle_alpha                 89.999112
_cell_angle_beta                  133.460318
_cell_angle_gamma                 90.000063
_cell_volume                      29214.8193696

loop_
_atom_site_label
_atom_site_type_symbol
_atom_site_description
_atom_site_fract_x
_atom_site_fract_y
_atom_site_fract_z
_atom_type_partial_charge
O1    O     O_R   0.500000 0.963030 0.565470 -0.583045
O2    O     O_R   0.500000 0.963030 0.434530 -0.626938
O3    O     O_R   1.000000 0.463030 0.565470 -0.626707
O4    O     O_R   0.000000 0.463030 0.434530 -0.583537
O5    O     O_R   0.499990 0.036970 0.565490 -0.629390
O6    O     O_R   0.500010 0.036970 0.434510 -0.583877
O7    O     O_R   0.999990 0.536970 0.565490 -0.584091
O8    O     O_R   0.000010 0.536970 0.434510 -0.628945
C1    C     C_R   0.501156 0.999937 0.587338 0.918766
C2    C     C_R   0.498866 0.000046 0.412682 0.921243
C3    C     C_R   0.001134 0.500044 0.587318 0.921530
C4    C     C_R   0.998847 0.499939 0.412666 0.919321
O9    O     O_R   0.438570 0.963030 0.438570 -0.621013
O10   O     O_R   0.561430 0.963030 0.561430 -0.586832
O11   O     O_R   0.938570 0.463030 0.438570 -0.587856
O12   O     O_R   0.061430 0.463030 0.561430 -0.620353
O13   O     O_R   0.438570 0.036970 0.438590 -0.592233
O14   O     O_R   0.561430 0.036970 0.561410 -0.626023
O15   O     O_R   0.938570 0.536970 0.438590 -0.625439
O16   O     O_R   0.061430 0.536970 0.561410 -0.592834
C5    C     C_R   0.418934 0.000004 0.418949 0.918537
C6    C     C_R   0.581066 0.999997 0.581047 0.916287
C7    C     C_R   0.918935 0.499997 0.418957 0.916902
C8    C     C_R   0.081066 0.500003 0.581049 0.918745
Zn1   Zn    Zn3+2 0.500000 0.950630 0.500000 1.059124
Zn2   Zn    Zn3+2 0.000000 0.450630 0.500000 1.058808
Zn3   Zn    Zn3+2 0.500000 0.049370 0.500000 1.049611
Zn4   Zn    Zn3+2 0.000000 0.549370 0.500000 1.049879
C9    C     C_3   0.274173 0.952307 0.276283 -0.352188
C10   C     C_3   0.725833 0.957621 0.703747 -0.352172
C11   C     C_3   0.774170 0.456158 0.293245 -0.351034
C12   C     C_3   0.225830 0.452535 0.720872 -0.352659
C13   C     C_3   0.274384 0.025737 0.314263 -0.467110
C14   C     C_3   0.725607 0.040109 0.700274 -0.464069
C15   C     C_3   0.774388 0.538218 0.302475 -0.464784
C16   C     C_3   0.225613 0.528079 0.687325 -0.466613
C17   C     C_3   0.225767 0.025834 0.265659 -0.387739
C18   C     C_3   0.774222 0.040171 0.748923 -0.388684
C19   C     C_3   0.725774 0.538283 0.253833 -0.388338
C20   C     C_3   0.274229 0.528177 0.735937 -0.388012
H1    H     H_    0.213160 0.935036 0.243587 0.174759
H2    H     H_    0.786844 0.953860 0.731764 0.174935
H3    H     H_    0.713152 0.450098 0.264861 0.174964
H4    H     H_    0.286839 0.436980 0.752571 0.174753
H5    H     H_    0.284745 0.936928 0.318340 0.170517
H6    H     H_    0.715254 0.956932 0.658130 0.167068
H7    H     H_    0.784742 0.453025 0.338724 0.167218
H8    H     H_    0.215253 0.439050 0.677953 0.170290
H9    H     H_    0.285962 0.010205 0.356851 0.195048
H10   H     H_    0.714039 0.039085 0.654028 0.195954
H11   H     H_    0.785957 0.534777 0.348566 0.195734
H12   H     H_    0.214038 0.514416 0.643869 0.194880
H13   H     H_    0.214043 0.010327 0.284942 0.187046
H14   H     H_    0.785956 0.039174 0.725995 0.186637
H15   H     H_    0.714041 0.534860 0.276606 0.186672
H16   H     H_    0.285958 0.514548 0.715788 0.187037
H17   H     H_    0.214166 0.060481 0.253510 0.182105
H18   H     H_    0.785809 0.071345 0.775648 0.182119
H19   H     H_    0.714182 0.570441 0.229330 0.181975
H20   H     H_    0.285824 0.562730 0.750151 0.182276
C21   C     C_1   0.125588 0.000196 0.125403 -0.164878
C22   C     C_1   0.874410 0.000038 0.874601 -0.165379
C23   C     C_1   0.625590 0.500048 0.125398 -0.165359
C24   C     C_1   0.374411 0.500188 0.874597 -0.164858
C25   C     C_3   0.291169 0.000203 0.290245 0.200916
C26   C     C_3   0.708828 0.999788 0.709715 0.203460
C27   C     C_3   0.791174 0.499824 0.290286 0.203181
C28   C     C_3   0.208830 0.500166 0.709752 0.200477
C29   C     C_3   0.225640 0.952366 0.226380 -0.374351
C30   C     C_3   0.774368 0.957066 0.753529 -0.375912
C31   C     C_3   0.725635 0.455695 0.243416 -0.376370
C32   C     C_3   0.274362 0.452509 0.770766 -0.374158
C33   C     C_3   0.208857 0.000329 0.208087 0.273700
C34   C     C_3   0.791139 0.999902 0.791930 0.275385
C35   C     C_3   0.708862 0.499941 0.208068 0.275370
C36   C     C_3   0.291142 0.500295 0.791918 0.273619
C37   C     C_3   0.225391 0.022735 0.181974 -0.438216
C38   C     C_3   0.774598 0.002253 0.823524 -0.437935
C39   C     C_3   0.725409 0.505655 0.176766 -0.438052
C40   C     C_3   0.274604 0.520122 0.819289 -0.438366
C41   C     C_3   0.274184 0.023790 0.230999 0.187201
C42   C     C_3   0.725805 0.003364 0.774969 0.178879
C43   C     C_3   0.774203 0.506760 0.225403 0.178809
C44   C     C_3   0.225811 0.521200 0.770325 0.187966
C45   C     C_1   0.163129 0.000261 0.162700 -0.078929
C46   C     C_1   0.836869 0.999967 0.837313 -0.079445
C47   C     C_1   0.663132 0.499990 0.162685 -0.079377
C48   C     C_1   0.336870 0.500242 0.837301 -0.078855
C49   C     C_1   0.336923 0.000100 0.336426 -0.052503
C50   C     C_1   0.663075 0.999912 0.663541 -0.053256
C51   C     C_1   0.836926 0.499921 0.336469 -0.052844
C52   C     C_1   0.163077 0.500087 0.663567 -0.052070
C53   C     C_1   0.374452 0.000031 0.374233 -0.100586
C54   C     C_1   0.625546 0.999975 0.625746 -0.101410
C55   C     C_1   0.874455 0.499976 0.374264 -0.100893
C56   C     C_1   0.125547 0.500029 0.625760 -0.100116
H21   H     H_    0.283992 0.059080 0.242628 0.116233
H22   H     H_    0.716003 0.036143 0.778411 0.107511
H23   H     H_    0.784014 0.540377 0.224290 0.107493
H24   H     H_    0.216004 0.556536 0.760799 0.117274
H25   H     H_    0.213301 0.004903 0.140390 0.218756
H26   H     H_    0.786681 0.973639 0.854805 0.217062
H27   H     H_    0.713321 0.478463 0.143515 0.217127
H28   H     H_    0.286693 0.500560 0.859754 0.218763
H29   H     H_    0.286934 0.931373 0.262075 0.225329
H30   H     H_    0.713085 0.927294 0.706627 0.227566
H31   H     H_    0.786926 0.426997 0.288291 0.228156
H32   H     H_    0.213075 0.430039 0.733797 0.225360
H33   H     H_    0.214767 0.933797 0.185929 0.200588
H34   H     H_    0.785254 0.927759 0.783379 0.199882
H35   H     H_    0.714756 0.427789 0.211560 0.200073
H36   H     H_    0.285241 0.432208 0.810059 0.200477
H37   H     H_    0.213165 0.057095 0.167656 0.161121
H38   H     H_    0.786828 0.032505 0.852171 0.160852
H39   H     H_    0.713187 0.536988 0.150291 0.160758
H40   H     H_    0.286833 0.554292 0.835660 0.161389
C57   C     C_R   0.524937 0.965765 0.728058 0.230434
C58   C     C_R   0.474874 0.033946 0.271715 0.236134
C59   C     C_R   0.025173 0.533917 0.728324 0.236245
C60   C     C_R   0.974884 0.465877 0.271782 0.230657
C61   C     C_R   0.526372 0.966980 0.683150 0.211447
C62   C     C_R   0.473489 0.032798 0.316679 0.216315
C63   C     C_R   0.026557 0.532761 0.683360 0.217270
C64   C     C_R   0.973462 0.467109 0.316704 0.212622
C65   C     C_R   0.503183 0.999611 0.637253 -0.182836
C66   C     C_R   0.496852 0.000326 0.362778 -0.182492
C67   C     C_R   0.003151 0.500322 0.637224 -0.182171
C68   C     C_R   0.996812 0.499618 0.362748 -0.182369
C69   C     C_R   0.479971 0.031163 0.637234 -0.218871
C70   C     C_R   0.520238 0.968896 0.362996 -0.216557
C71   C     C_R   0.979728 0.468926 0.636972 -0.216599
C72   C     C_R   0.020175 0.531038 0.362911 -0.218873
C73   C     C_R   0.478754 0.030104 0.681638 -0.197688
C74   C     C_R   0.521460 0.969932 0.318590 -0.196778
C75   C     C_R   0.978508 0.469967 0.681380 -0.196581
C76   C     C_R   0.021385 0.529962 0.318499 -0.197288
H41   H     H_    0.460738 0.054889 0.681189 0.170902
H42   H     H_    0.539635 0.945269 0.319208 0.167383
H43   H     H_    0.960304 0.445330 0.680735 0.167369
H44   H     H_    0.039523 0.554643 0.319063 0.170898
C77   C     C_R   0.501014 0.997730 0.726859 -0.066930
C78   C     C_R   0.498996 0.002131 0.273147 -0.064271
C79   C     C_R   0.001011 0.502138 0.726859 -0.064305
C80   C     C_R   0.998964 0.497704 0.273126 -0.066981
C81   C     C_R   0.462558 0.995637 0.759081 -0.135863
C82   C     C_R   0.537376 0.005118 0.240851 -0.135708
C83   C     C_R   0.962633 0.505164 0.759156 -0.135808
C84   C     C_R   0.037413 0.495421 0.240894 -0.135956
H45   H     H_    0.433296 0.991684 0.712075 0.146499
H46   H     H_    0.566550 0.009735 0.287769 0.148390
H47   H     H_    0.933463 0.509810 0.712241 0.148389
H48   H     H_    0.066657 0.491324 0.287883 0.146464
C85   C     C_R   0.462286 0.996195 0.804618 -0.134993
C86   C     C_R   0.537637 0.004633 0.195300 -0.133362
C87   C     C_R   0.962369 0.504676 0.804704 -0.133302
C88   C     C_R   0.037691 0.495992 0.195362 -0.135087
H49   H     H_    0.432609 0.992791 0.792126 0.169162
H50   H     H_    0.567218 0.008805 0.207682 0.177008
H51   H     H_    0.932791 0.508875 0.792325 0.177065
H52   H     H_    0.067353 0.492448 0.207840 0.169022
C89   C     C_R   0.500140 0.000520 0.865661 -0.010552
C90   C     C_R   0.499875 0.999432 0.134359 -0.025766
C91   C     C_R   0.000126 0.499437 0.865641 -0.025831
C92   C     C_R   0.999858 0.500504 0.134338 -0.010412
C93   C     C_R   0.538145 0.005044 0.880662 -0.130452
C94   C     C_R   0.461982 0.994007 0.119481 -0.119645
C95   C     C_R   0.038015 0.493978 0.880517 -0.119712
C96   C     C_R   0.961871 0.505198 0.119353 -0.130451
H53   H     H_    0.567652 0.008810 0.927470 0.172235
H54   H     H_    0.432566 0.989521 0.072764 0.182380
H55   H     H_    0.067427 0.489462 0.927231 0.182431
H56   H     H_    0.932383 0.509113 0.072562 0.172265
C97   C     C_R   0.538333 0.004699 0.835076 -0.084532
C98   C     C_R   0.461802 0.994338 0.165082 -0.084775
C99   C     C_R   0.038197 0.494311 0.834918 -0.084518
C100  C     C_R   0.961678 0.504845 0.164935 -0.083957
C101  C     C_R   0.500624 0.999373 0.774417 0.152863
C102  C     C_R   0.499407 0.000478 0.225618 0.150493
C103  C     C_R   0.000599 0.500488 0.774386 0.150501
C104  C     C_R   0.999362 0.499335 0.225573 0.152764
O17   O     O_R   1.000000 0.934650 0.036980 -0.624029
O18   O     O_R   0.000000 0.934650 0.963020 -0.623250
O19   O     O_R   0.500000 0.434650 0.036980 -0.623236
O20   O     O_R   0.500000 0.434650 0.963020 -0.624023
C105  C     C_R   0.999997 0.913808 0.999997 0.866453
C106  C     C_R   0.500003 0.413808 0.000004 0.866428
O21   O     O_R   0.061420 0.000140 0.098400 -0.614881
O22   O     O_R   0.938580 0.000140 0.901600 -0.614618
O23   O     O_R   0.561420 0.500140 0.098400 -0.614665
O24   O     O_R   0.438580 0.500140 0.901600 -0.614861
O25   O     O_R   0.061430 0.000120 0.024480 -0.608509
O26   O     O_R   0.938570 0.000120 0.975520 -0.609323
O27   O     O_R   0.561430 0.500120 0.024480 -0.609193
O28   O     O_R   0.438570 0.500120 0.975520 -0.608536
C107  C     C_R   0.081088 0.000134 0.081057 0.909192
C108  C     C_R   0.918911 0.000113 0.918943 0.909255
C109  C     C_R   0.581089 0.500113 0.081057 0.909189
C110  C     C_R   0.418911 0.500134 0.918943 0.909198
Zn5   Zn    Zn3+2 1.000000 0.000140 0.049370 0.985999
Zn6   Zn    Zn3+2 0.000000 0.000140 0.950630 0.987566
Zn7   Zn    Zn3+2 0.500000 0.500140 0.049370 0.987496
Zn8   Zn    Zn3+2 0.500000 0.500140 0.950630 0.986244
O29   O     O_R   0.999990 0.065630 0.036960 -0.624083
O30   O     O_R   0.000010 0.065630 0.963040 -0.624296
O31   O     O_R   0.499990 0.565630 0.036960 -0.624347
O32   O     O_R   0.500010 0.565630 0.963040 -0.624020
C111  C     C_R   0.999995 0.086455 0.999996 0.865500
C112  C     C_R   0.500005 0.586455 0.000003 0.865487
O33   O     O_R   0.465320 0.065470 0.965350 -0.593856
O34   O     O_R   0.534680 0.065470 0.034650 -0.601164
O35   O     O_R   0.965320 0.565470 0.965350 -0.601068
O36   O     O_R   0.034680 0.565470 0.034650 -0.593923
C113  C     C_R   0.499999 0.086288 0.000004 1.005092
C114  C     C_R   1.000000 0.586288 0.999995 1.005064
O37   O     O_R   0.465320 0.999980 0.899860 -0.618075
O38   O     O_R   0.534680 0.999980 0.100140 -0.620324
O39   O     O_R   0.965320 0.499980 0.899860 -0.620308
O40   O     O_R   0.034680 0.499980 0.100140 -0.618075
O41   O     O_R   0.534680 0.999980 0.969230 -0.616080
O42   O     O_R   0.465320 0.999980 0.030770 -0.614209
O43   O     O_R   0.034680 0.499980 0.969230 -0.614233
O44   O     O_R   0.965320 0.499980 0.030770 -0.615958
C115  C     C_R   0.500037 0.000193 0.913569 0.957278
C116  C     C_R   0.499965 0.999775 0.086435 0.960798
C117  C     C_R   0.000035 0.499776 0.913565 0.960805
C118  C     C_R   0.999962 0.500190 0.086431 0.957258
Zn9   Zn    Zn3+2 0.453690 0.999980 0.953700 1.082870
Zn10  Zn    Zn3+2 0.546310 0.999980 0.046300 1.076107
Zn11  Zn    Zn3+2 0.953690 0.499980 0.953700 1.076398
Zn12  Zn    Zn3+2 0.046310 0.499980 0.046300 1.082794
O45   O     O_R   0.465320 0.934500 0.965310 -0.597892
O46   O     O_R   0.534680 0.934500 0.034690 -0.599572
O47   O     O_R   0.965320 0.434500 0.965310 -0.599545
O48   O     O_R   0.034680 0.434500 0.034690 -0.597937
C119  C     C_R   0.499999 0.913706 0.999986 1.003001
C120  C     C_R   0.000001 0.413706 0.000014 1.002989
C121  C     C_R   0.003864 0.796987 0.963917 -0.151772
C122  C     C_R   0.996069 0.796979 0.035988 -0.155883
C123  C     C_R   0.503928 0.296980 0.964012 -0.156097
C124  C     C_R   0.496132 0.296987 0.036082 -0.151636
H57   H     H_    0.007376 0.779544 0.936388 0.153333
H58   H     H_    0.992554 0.779529 0.063510 0.147741
H59   H     H_    0.507443 0.279530 0.936490 0.147657
H60   H     H_    0.492619 0.279544 0.063609 0.153422
C125  C     C_R   0.003819 0.842724 0.963852 -0.181447
C126  C     C_R   0.996135 0.842716 0.036086 -0.181992
C127  C     C_R   0.503863 0.342716 0.963914 -0.182067
C128  C     C_R   0.496178 0.342723 0.036147 -0.181392
H61   H     H_    0.007011 0.859920 0.935841 0.169749
H62   H     H_    0.992951 0.859906 0.064109 0.167859
H63   H     H_    0.507049 0.359906 0.935892 0.167851
H64   H     H_    0.492986 0.359919 0.064158 0.169802
C129  C     C_R   0.999985 0.865811 0.999980 -0.041801
C130  C     C_R   0.500014 0.365811 0.000020 -0.041820
C131  C     C_R   0.999964 0.774002 0.999947 0.154424
C132  C     C_R   0.500032 0.274002 0.000052 0.154410
C133  C     C_R   0.525128 0.203107 0.055190 -0.210333
C134  C     C_R   0.474893 0.203125 0.944885 -0.215293
C135  C     C_R   0.025103 0.703123 0.055114 -0.215409
C136  C     C_R   0.974868 0.703108 0.944808 -0.210129
C137  C     C_R   0.524891 0.157206 0.055894 0.282329
C138  C     C_R   0.475105 0.157225 0.944153 0.282077
C139  C     C_R   0.024892 0.657224 0.055846 0.282108
C140  C     C_R   0.975106 0.657208 0.944105 0.282299
C141  C     C_R   0.499998 0.134110 0.000017 -0.289186
C142  C     C_R   1.000000 0.634110 0.999982 -0.289168
C143  C     C_R   0.500020 0.225966 0.000044 -0.021578
C144  C     C_R   0.999975 0.725966 0.999955 -0.021588
C145  C     C_R   0.995900 0.203213 0.956034 -0.157513
C146  C     C_R   0.003988 0.203188 0.043934 -0.154164
C147  C     C_R   0.504093 0.703212 0.043958 -0.157561
C148  C     C_R   0.496023 0.703189 0.956073 -0.154113
H65   H     H_    0.992277 0.220680 0.921413 0.147059
H66   H     H_    0.007608 0.220634 0.078564 0.151609
H67   H     H_    0.507709 0.720678 0.078573 0.147030
H68   H     H_    0.492410 0.720637 0.921451 0.151674
C149  C     C_R   0.995974 0.157494 0.956064 -0.183845
C150  C     C_R   0.003949 0.157470 0.043903 -0.183195
C151  C     C_R   0.504019 0.657493 0.043928 -0.183926
C152  C     C_R   0.496062 0.657471 0.956104 -0.183096
H69   H     H_    0.992677 0.140308 0.921584 0.167178
H70   H     H_    0.007259 0.140266 0.078386 0.168613
H71   H     H_    0.507309 0.640307 0.078402 0.167153
H72   H     H_    0.492758 0.640268 0.921627 0.168674
C153  C     C_R   0.999975 0.134413 0.999988 -0.040326
C154  C     C_R   0.500026 0.634413 0.000012 -0.040338
C155  C     C_R   0.999941 0.226153 0.999990 0.155534
C156  C     C_R   0.500061 0.726153 0.000010 0.155518
C157  C     C_R   0.474854 0.796948 0.004901 -0.217339
C158  C     C_R   0.525174 0.796982 0.994986 -0.212404
C159  C     C_R   0.974837 0.296981 0.005033 -0.212511
C160  C     C_R   0.025139 0.296949 0.995081 -0.217243
H73   H     H_    0.455523 0.778908 0.008896 0.184538
H74   H     H_    0.544510 0.778965 0.990984 0.186425
H75   H     H_    0.955509 0.278964 0.009048 0.186359
H76   H     H_    0.044462 0.278910 0.991072 0.184612
C161  C     C_R   0.475056 0.842829 0.006051 0.281070
C162  C     C_R   0.524925 0.842866 0.993798 0.273328
C163  C     C_R   0.975087 0.342866 0.006222 0.273296
C164  C     C_R   0.024936 0.342830 0.993932 0.281013
C165  C     C_R   0.499995 0.865929 0.999947 -0.289573
C166  C     C_R   0.000007 0.365929 0.000054 -0.289548
C167  C     C_R   0.500034 0.774142 0.999972 -0.023183
C168  C     C_R   0.999967 0.274143 0.000028 -0.023175
N1    N     N_R   0.547910 0.932589 0.774840 0.224521
O49   O     O_R   0.587511 0.926014 0.806160 -0.285538
O50   O     O_R   0.529470 0.909256 0.786880 -0.327928
N2    N     N_R   0.451631 0.066883 0.224621 0.222515
O51   O     O_R   0.469847 0.090259 0.212242 -0.335140
O52   O     O_R   0.412013 0.073217 0.193386 -0.292649
N3    N     N_R   0.048455 0.566826 0.775452 0.222513
O53   O     O_R   0.030266 0.590230 0.787854 -0.335331
O54   O     O_R   0.088080 0.573106 0.806694 -0.293550
N4    N     N_R   0.951737 0.432827 0.224838 0.224470
O55   O     O_R   0.912101 0.426490 0.193484 -0.285163
O56   O     O_R   0.970053 0.409381 0.212680 -0.328034
N5    N     N_R   0.551375 0.935410 0.684408 0.245227
O57   O     O_R   0.546362 0.893344 0.686242 -0.298245
O58   O     O_R   0.579981 0.948704 0.685293 -0.328049
N6    N     N_R   0.448378 0.064289 0.315293 0.244280
O59   O     O_R   0.419921 0.050910 0.314683 -0.334756
O60   O     O_R   0.453174 0.106364 0.313132 -0.304015
N7    N     N_R   0.051711 0.564209 0.684782 0.243982
O61   O     O_R   0.080160 0.550782 0.685399 -0.336626
O62   O     O_R   0.046966 0.606293 0.686980 -0.304848
N8    N     N_R   0.948308 0.435685 0.315314 0.244955
O63   O     O_R   0.953081 0.393591 0.313225 -0.299149
O64   O     O_R   0.919798 0.449146 0.314554 -0.328901
H77   H     H_    0.462052 0.056160 0.602031 0.175700
H78   H     H_    0.538296 0.944025 0.398361 0.175426
H79   H     H_    0.961640 0.444080 0.601578 0.175268
H80   H     H_    0.038217 0.555941 0.398231 0.175466
H81   H     H_    0.567798 0.008284 0.846961 0.160601
H82   H     H_    0.432426 0.990103 0.153307 0.164604
H83   H     H_    0.067570 0.490048 0.846692 0.164794
H84   H     H_    0.932227 0.508572 0.153062 0.161117
H85   H     H_    0.544440 0.221119 0.097778 0.184626
H86   H     H_    0.455584 0.221150 0.902307 0.182862
H87   H     H_    0.044411 0.721147 0.097692 0.182826
H88   H     H_    0.955555 0.721122 0.902221 0.184688
N9    N     N_R   0.548834 0.134776 0.113272 0.222159
O65   O     O_R   0.532259 0.102376 0.118905 -0.397203
O66   O     O_R   0.584547 0.150975 0.162038 -0.363708
N10   N     N_R   0.451129 0.134817 0.886756 0.219577
O67   O     O_R   0.467680 0.102427 0.881064 -0.417594
O68   O     O_R   0.415405 0.151028 0.838027 -0.367747
N11   N     N_R   0.048869 0.634813 0.113243 0.219602
O69   O     O_R   0.032318 0.602422 0.118935 -0.417425
O70   O     O_R   0.084593 0.651024 0.161972 -0.367839
N12   N     N_R   0.951163 0.634779 0.886727 0.222156
O71   O     O_R   0.967739 0.602380 0.881094 -0.397319
O72   O     O_R   0.915449 0.650979 0.837961 -0.363444
N13   N     N_R   0.451026 0.865234 0.015509 0.219652
O73   O     O_R   0.467552 0.897604 0.054251 -0.420278
O74   O     O_R   0.415274 0.849031 0.992847 -0.362477
N14   N     N_R   0.548892 0.865312 0.984250 0.224911
O75   O     O_R   0.532337 0.897730 0.945567 -0.388627
O76   O     O_R   0.584611 0.849113 0.006772 -0.346768
N15   N     N_R   0.951130 0.365311 0.015790 0.224910
O77   O     O_R   0.967691 0.397732 0.054468 -0.388662
O78   O     O_R   0.915419 0.349109 0.993292 -0.346781
N16   N     N_R   0.048955 0.365237 0.984455 0.219666
O79   O     O_R   0.032424 0.397611 0.945717 -0.420247
O80   O     O_R   0.084701 0.349031 0.007096 -0.362211
H89   H     H_    0.286129 0.060337 0.325631 0.185129
H90   H     H_    0.713848 0.071334 0.703459 0.184946
H91   H     H_    0.786142 0.570408 0.301505 0.184900
H92   H     H_    0.213861 0.562594 0.678009 0.185751
N17   N     N_R   0.291603 0.005130 0.207487 0.220950
O81   O     O_R   0.280543 0.966168 0.182602 -0.383271
O82   O     O_R   0.316817 0.028753 0.208474 -0.300517
N18   N     N_R   0.708367 0.969233 0.786769 0.228583
O83   O     O_R   0.719428 0.928069 0.793937 -0.365012
O84   O     O_R   0.683077 0.980476 0.793359 -0.313283
N19   N     N_R   0.791642 0.474737 0.211300 0.229061
O85   O     O_R   0.780547 0.433414 0.201193 -0.363183
O86   O     O_R   0.816995 0.488148 0.205682 -0.317386
N20   N     N_R   0.208385 0.500146 0.792644 0.220684
O87   O     O_R   0.219455 0.460436 0.815210 -0.383760
O88   O     O_R   0.183130 0.522277 0.792949 -0.303051

loop_
_geom_bond_atom_site_label_1
_geom_bond_atom_site_label_2
_geom_bond_distance
_ccdc_geom_bond_type
O1    Zn1   2.016497 S    
C32   H36   1.113138 S    
C73   H41   1.083865 S    
C24   C110  1.417815 S    
C59   C79   1.410434 A    
C146  H66   1.083413 S    
C37   H25   1.112833 S    
C60   C80   1.410606 A    
C22   C108  1.417842 S    
C136  C140  1.391164 A    
C9    H29   1.110081 S    
C100  H84   1.083535 S    
C93   H53   1.083067 S    
C75   H43   1.083865 S    
C63   N7    1.436531 S    
C133  C137  1.391163 A    
C106  C130  1.454391 S    
C135  C139  1.391120 A    
C8    C56   1.417253 S    
C131  C144  1.455551 S    
C133  H85   1.083707 S    
O43   C117  1.275170 A    
C124  H60   1.083386 S    
N18   O83   1.301422 A    
N8    O64   1.301296 A    
C82   H46   1.083532 S    
C40   H40   1.113456 S    
O44   Zn11  2.015411 S    
C30   C34   1.549268 S    
N8    O63   1.301153 A    
C151  H71   1.083077 S    
O4    C4    1.282567 A    
C83   C87   1.386401 A    
C76   H44   1.083855 S    
C147  C151  1.385352 A    
C42   H22   1.115434 S    
C70   C74   1.381539 A    
O48   C120  1.271939 A    
C37   H37   1.113463 S    
C159  C168  1.395877 A    
N13   O74   1.301390 A    
C9    C29   1.546967 S    
C61   N5    1.436554 S    
C11   H31   1.110080 S    
C94   C98   1.385392 A    
N7    O61   1.301256 A    
C44   H24   1.115435 S    
C151  C154  1.401985 A    
C92   C96   1.402130 A    
C140  N12   1.439032 S    
C12   C32   1.546943 S    
O15   C7    1.283166 A    
C95   H55   1.083097 S    
O16   Zn4   1.992967 S    
N4    O55   1.301223 A    
O28   Zn7   1.993779 S    
C125  C129  1.402165 A    
O33   C113  1.272320 A    
O7    Zn4   2.017374 S    
C20   C36   1.550655 S    
O42   Zn9   2.015411 S    
C9    H5    1.113433 S    
O18   C105  1.284933 A    
C60   N4    1.437929 S    
C159  H75   1.083739 S    
O38   C116  1.274627 A    
C111  C153  1.453191 S    
C26   C42   1.562669 S    
C71   H79   1.083739 S    
C38   C42   1.554984 S    
C82   C86   1.386394 A    
C88   H52   1.083061 S    
O9    C5    1.283193 A    
C21   C45   1.196112 T    
C69   C73   1.381381 A    
C59   C63   1.403574 A    
C15   H11   1.113411 S    
O8    Zn4   2.017388 S    
C134  H86   1.083713 S    
C44   N20   1.469304 S    
C86   C90   1.402853 A    
H1    C29   1.113248 S    
O23   C109  1.282290 A    
H3    C31   1.113244 S    
C59   N3    1.437946 S    
O34   Zn10  2.018721 S    
O3    Zn2   2.016497 S    
N19   O85   1.301427 A    
C16   C28   1.551268 S    
C86   H50   1.083082 S    
C4    C68   1.450599 S    
C126  C129  1.402141 A    
C164  N16   1.438997 S    
C157  C161  1.390551 A    
C5    C53   1.417260 S    
C28   C52   1.457836 S    
C7    C55   1.417214 S    
Zn12  O48   2.018435 S    
N12   O71   1.301118 A    
C163  N15   1.439099 S    
O3    C3    1.285412 A    
C83   C103  1.397532 A    
N15   O77   1.301140 A    
C33   C37   1.549532 S    
C123  H59   1.083388 S    
C158  C167  1.395879 A    
C96   C100  1.385237 A    
N20   O87   1.301435 A    
C91   C117  1.452985 S    
C35   C39   1.549600 S    
O40   C118  1.274673 A    
C89   C93   1.402131 A    
C128  H64   1.083071 S    
Zn9   O45   2.018426 S    
C62   N6    1.436535 S    
C20   H20   1.113140 S    
C150  C153  1.402044 A    
C39   H39   1.113466 S    
C83   H47   1.083533 S    
C133  C143  1.396091 A    
Zn8   O32   2.019600 S    
C14   C26   1.551232 S    
C147  C156  1.399767 A    
O5    C1    1.285457 A    
C22   C46   1.196133 T    
O38   Zn10  2.014758 S    
C72   C76   1.381405 A    
C13   H89   1.113268 S    
N16   O79   1.301072 A    
O22   Zn6   1.991734 S    
C113  C141  1.449091 S    
C52   C56   1.195795 T    
C15   H91   1.113252 S    
C82   C102  1.397523 A    
C58   C62   1.403569 A    
C97   H81   1.083530 S    
C135  C144  1.396072 A    
C30   H34   1.113127 S    
O5    Zn3   2.017374 S    
C63   C67   1.413375 A    
C80   C104  1.451918 S    
N1    O50   1.301301 A    
O43   Zn12  2.015408 S    
H4    C32   1.113266 S    
C19   C35   1.550655 S    
O41   Zn10  2.015408 S    
C136  C144  1.396091 A    
C16   H12   1.113413 S    
Zn6   O30   2.019600 S    
C17   H13   1.113178 S    
C11   C31   1.547025 S    
C42   N18   1.469338 S    
C148  C152  1.385325 A    
C18   H18   1.113155 S    
C6    C54   1.417218 S    
C39   H27   1.112834 S    
C134  C138  1.391122 A    
N2    O52   1.301218 A    
C67   C71   1.396963 A    
N9    O66   1.301389 A    
C124  C132  1.399977 A    
C87   H51   1.083079 S    
O13   Zn3   1.992983 S    
C160  H76   1.083742 S    
O25   Zn6   1.993779 S    
O19   C106  1.284932 A    
C41   N17   1.469305 S    
O24   Zn8   1.991734 S    
C87   C91   1.402851 A    
C149  C153  1.401983 A    
C1    C65   1.450704 S    
N7    O62   1.301152 A    
N6    O60   1.301153 A    
C3    C67   1.450722 S    
C61   C65   1.413432 A    
C65   C69   1.396916 A    
C112  C154  1.453191 S    
C136  H88   1.083709 S    
C15   C27   1.551214 S    
O8    C4    1.285392 A    
N14   O76   1.301393 A    
C145  C149  1.385352 A    
O15   Zn4   1.992983 S    
C33   C45   1.456977 S    
C9    C25   1.551674 S    
C35   C47   1.457019 S    
C94   H54   1.083097 S    
C155  C168  1.454139 S    
N3    O54   1.301220 A    
C156  C167  1.454133 S    
O17   Zn5   2.019541 S    
C95   C99   1.385398 A    
C18   C34   1.550658 S    
C98   H82   1.083542 S    
C98   C102  1.398291 A    
O14   C6    1.283165 A    
C10   H6    1.113439 S    
C36   C40   1.549563 S    
C120  C166  1.447706 S    
C127  H63   1.083069 S    
O34   C113  1.272336 A    
O33   Zn9   2.018730 S    
C25   C49   1.457852 S    
C121  H57   1.083386 S    
C122  C131  1.400001 A    
O10   C6    1.283023 A    
O28   C110  1.281935 A    
C89   C115  1.452874 S    
N18   O84   1.301067 A    
O37   Zn9   2.014758 S    
C49   C53   1.195799 T    
C163  C166  1.414442 A    
C152  C154  1.402044 A    
C51   C55   1.195773 T    
C127  C130  1.402143 A    
C100  C104  1.398364 A    
O35   C114  1.272334 A    
N10   O67   1.301120 A    
C161  C165  1.414413 A    
C43   H23   1.115441 S    
C2    C66   1.450757 S    
O39   C117  1.274631 A    
N17   O82   1.301055 A    
C38   H26   1.112832 S    
C158  C162  1.390670 A    
C146  C155  1.399701 A    
C40   C44   1.554965 S    
C138  C141  1.414591 A    
N13   O73   1.301072 A    
C26   C50   1.457820 S    
C27   C43   1.562665 S    
C40   H28   1.112856 S    
C77   C101  1.451831 S    
O26   C108  1.281927 A    
C105  C129  1.454391 S    
O32   C112  1.284387 A    
C66   C70   1.396977 A    
C13   H9    1.113392 S    
C138  N10   1.439003 S    
C123  C127  1.385872 A    
N4    O56   1.301318 A    
N5    O58   1.301280 A    
O40   Zn12  2.014758 S    
C125  H61   1.083069 S    
C90   C94   1.402181 A    
C19   H15   1.113188 S    
C20   H16   1.113189 S    
C23   C47   1.196142 T    
C29   C33   1.549279 S    
C21   C107  1.417806 S    
C64   C68   1.413362 A    
C137  N9    1.439032 S    
C84   C104  1.397660 A    
C11   H7    1.113442 S    
Zn5   O29   2.019588 S    
C12   H8    1.113458 S    
C38   H38   1.113461 S    
C10   C30   1.547014 S    
C164  C166  1.414417 A    
C50   C54   1.195779 T    
O12   Zn2   1.992978 S    
C114  C142  1.449088 S    
C28   C44   1.562721 S    
C84   H48   1.083536 S    
O1    C1    1.282573 A    
N11   O69   1.301118 A    
C13   C17   1.548985 S    
O27   Zn8   1.993779 S    
O21   Zn5   1.991726 S    
C162  C165  1.414445 A    
O19   Zn7   2.019541 S    
C15   C19   1.548910 S    
C137  C141  1.414609 A    
C74   C78   1.396368 A    
C25   C41   1.562718 S    
C18   H14   1.113188 S    
O30   C111  1.284476 A    
C37   C41   1.554969 S    
C148  H68   1.083412 S    
C19   H19   1.113151 S    
C122  C126  1.385875 A    
C27   C51   1.457802 S    
C16   H92   1.113245 S    
O18   Zn6   2.019530 S    
N12   O72   1.301390 A    
C132  C143  1.455551 S    
O36   C114  1.272322 A    
C135  H87   1.083711 S    
C157  C167  1.395816 A    
C161  N13   1.439003 S    
C160  C164  1.390553 A    
N20   O88   1.301077 A    
Zn10  O46   2.018435 S    
O24   C110  1.282251 A    
C43   N19   1.469360 S    
C149  H69   1.083077 S    
O35   Zn11  2.018730 S    
C121  C131  1.399976 A    
O6    C2    1.282610 A    
O4    Zn2   2.016489 S    
C73   C77   1.396479 A    
C145  H65   1.083412 S    
C146  C150  1.385322 A    
C76   C80   1.396518 A    
C39   C43   1.554996 S    
N16   O80   1.301394 A    
O20   C106  1.284965 A    
O2    Zn1   2.016489 S    
O10   Zn1   1.992978 S    
C85   H49   1.083056 S    
C157  H73   1.083742 S    
C11   C27   1.551701 S    
O41   C115  1.275090 A    
C23   C109  1.417857 S    
C96   H56   1.083068 S    
C140  C142  1.414608 A    
N1    O49   1.301222 A    
C34   C38   1.549581 S    
C85   C89   1.402796 A    
C123  C132  1.399998 A    
C124  C128  1.385868 A    
C92   C118  1.452892 S    
C84   C88   1.386335 A    
C24   C48   1.196118 T    
C81   H45   1.083534 S    
O13   C5    1.283010 A    
C139  C142  1.414593 A    
N3    O53   1.301285 A    
C57   C77   1.410568 A    
H2    C30   1.113248 S    
C32   C36   1.549280 S    
C69   H77   1.083742 S    
C13   C25   1.551282 S    
C78   C102  1.451568 S    
N9    O65   1.301122 A    
O7    C3    1.282617 A    
C147  H67   1.083413 S    
C71   C75   1.381548 A    
C14   H90   1.113263 S    
C128  C130  1.402160 A    
C72   H80   1.083747 S    
O44   C118  1.275091 A    
C93   C97   1.385220 A    
O26   Zn5   1.993779 S    
C57   C61   1.403496 A    
O39   Zn11  2.014758 S    
C29   H33   1.113125 S    
O16   C8    1.283006 A    
C58   N2    1.437947 S    
C159  C163  1.390672 A    
C36   C48   1.456983 S    
C99   H83   1.083543 S    
C12   C28   1.551680 S    
C81   C85   1.386315 A    
O11   C7    1.283006 A    
O12   C8    1.283191 A    
C10   H30   1.110081 S    
Zn11  O47   2.018426 S    
O9    Zn1   1.992975 S    
C134  C143  1.396069 A    
C68   C72   1.396863 A    
O47   C120  1.272004 A    
O25   C107  1.281937 A    
N19   O86   1.301091 A    
C14   H10   1.113394 S    
O20   Zn8   2.019530 S    
C121  C125  1.385868 A    
C16   C20   1.548973 S    
O17   C105  1.284964 A    
O11   Zn2   1.992975 S    
C99   C103  1.398297 A    
O23   Zn7   1.991726 S    
O29   C111  1.284386 A    
O46   C119  1.272009 A    
C31   H35   1.113132 S    
C62   C66   1.413407 A    
C91   C95   1.402178 A    
C162  N14   1.439099 S    
N11   O70   1.301392 A    
O36   Zn12  2.018721 S    
O6    Zn3   2.017388 S    
C97   C101  1.398348 A    
C139  N11   1.439004 S    
N15   O78   1.301399 A    
C34   C46   1.457010 S    
O22   C108  1.282265 A    
C10   C26   1.551715 S    
C119  C165  1.447713 S    
N10   O68   1.301391 A    
C79   C103  1.451598 S    
C12   H32   1.110094 S    
O2    C2    1.285433 A    
O42   C116  1.275172 A    
N2    O51   1.301284 A    
N17   O81   1.301420 A    
C126  H62   1.083068 S    
O31   C112  1.284475 A    
C17   C33   1.550636 S    
Zn7   O31   2.019588 S    
O21   C107  1.282244 A    
C14   C18   1.548939 S    
C145  C155  1.399772 A    
O14   Zn3   1.992967 S    
C152  H72   1.083079 S    
C57   N1    1.437944 S    
C58   C78   1.410423 A    
O37   C115  1.274662 A    
C74   H42   1.083867 S    
O45   C119  1.271937 A    
C17   H17   1.113156 S    
C148  C156  1.399702 A    
C122  H58   1.083387 S    
N6    O59   1.301249 A    
C70   H78   1.083740 S    
C31   C35   1.549287 S    
C41   H21   1.115437 S    
O27   C109  1.281920 A    
C75   C79   1.396381 A    
N14   O75   1.301140 A    
C160  C168  1.395819 A    
N5    O57   1.301154 A    
C64   N8    1.436562 S    
C88   C92   1.402781 A    
C150  H70   1.083080 S    
C81   C101  1.397634 A    
C90   C116  1.452980 S    
C158  H74   1.083736 S    
C60   C64   1.403534 A    
