data_mof_unit_37332.cif
_audit_creation_date              2012-12-11T16:26:29-0500
_audit_creation_method            fapswitch 2.2
_symmetry_space_group_name_H-M    P1
_symmetry_Int_Tables_number       1
_space_group_crystal_system       triclinic
_cell_length_a                    6.937608
_cell_length_b                    17.528327
_cell_length_c                    19.457602
_cell_angle_alpha                 108.528864
_cell_angle_beta                  89.662655
_cell_angle_gamma                 90.752112
_cell_volume                      2243.28641931

loop_
_atom_site_label
_atom_site_type_symbol
_atom_type_description
_atom_site_fract_x
_atom_site_fract_y
_atom_site_fract_z
_atom_type_partial_charge
O1    O     O_R   0.494330 0.415720 0.413720 -0.538012
O2    O     O_R   0.819330 0.430070 0.560210 -0.542612
O3    O     O_R   0.994320 0.584280 0.586280 -0.535014
C1    C     C_R   0.649989 0.414506 0.581450 0.705049
O4    O     O_R   0.823730 0.406300 0.412670 -0.538056
O5    O     O_R   0.998760 0.560340 0.437690 -0.543835
C2    C     C_R   0.654715 0.383576 0.384950 0.691812
O6    O     O_R   0.489890 0.439660 0.562310 -0.545323
O7    O     O_3   0.662340 0.550560 0.508380 -0.366866
V1    V     V_3+5 0.935370 0.490620 0.498450 1.413993
O8    O     O_R   0.328750 0.569930 0.439790 -0.538850
C3    C     C_R   0.160868 0.584867 0.418065 0.699455
O9    O     O_R   0.324340 0.593700 0.587330 -0.539404
C4    C     C_R   0.156034 0.616859 0.614712 0.696404
V2    V     V_3+5 0.435940 0.509380 0.501550 1.414938
O10   O     O_3   0.159100 0.449440 0.491620 -0.369659
H1    H     H_    0.941568 0.861339 0.567995 0.116407
C5    C     C_R   0.273882 0.598300 0.750369 -0.149757
C6    C     C_R   0.315784 0.584320 0.815047 -0.210124
C7    C     C_R   0.273077 0.641992 0.880634 -0.190855
C8    C     C_R   0.191727 0.715344 0.882440 0.446584
C9    C     C_R   0.170236 0.734988 0.817173 -0.022763
C10   C     C_R   0.199135 0.672849 0.749885 0.021749
C11   C     C_R   0.115214 0.813075 0.817134 -0.192257
C12   C     C_R   0.070719 0.825826 0.750471 0.057122
C13   C     C_R   0.083602 0.761413 0.684004 0.076815
C14   C     C_R   0.148302 0.685019 0.683694 -0.159458
C15   C     C_R   0.012610 0.902279 0.748555 -0.149391
C16   C     C_R   0.966140 0.914566 0.683320 -0.116508
C17   C     C_R   0.977315 0.851476 0.618581 -0.114637
C18   C     C_R   0.035886 0.775742 0.618573 -0.136899
H2    H     H_    0.301533 0.549967 0.700819 0.118739
H3    H     H_    0.374699 0.527142 0.814241 0.142063
H4    H     H_    0.295339 0.628533 0.930599 0.127713
H5    H     H_    0.002074 0.953364 0.797324 0.091906
H6    H     H_    0.921423 0.973418 0.683040 0.118353
H7    H     H_    0.044971 0.728917 0.566685 0.093451
C19   C     C_R   0.286778 0.621809 0.311595 -0.220314
C20   C     C_R   0.153470 0.634143 0.368770 -0.082613
C21   C     C_R   0.011591 0.693170 0.378224 -0.191305
C22   C     C_R   0.003387 0.740215 0.331737 0.031960
C23   C     C_R   0.134272 0.726266 0.273411 0.039826
C24   C     C_R   0.276439 0.666667 0.263261 0.111583
C25   C     C_R   0.868646 0.801955 0.343459 -0.266822
C26   C     C_R   0.859834 0.849132 0.297149 0.450521
C27   C     C_R   0.987144 0.834336 0.237517 0.003822
C28   C     C_R   0.124862 0.772668 0.225803 -0.019484
C29   C     C_R   0.256324 0.758455 0.167443 0.096518
C30   C     C_R   0.395618 0.698437 0.157452 -0.206570
C31   C     C_R   0.406170 0.653266 0.205096 -0.194812
C32   C     C_R   0.980749 0.880191 0.189732 -0.226729
C33   C     C_R   0.111545 0.866449 0.131752 -0.105236
C34   C     C_R   0.249831 0.805886 0.121270 -0.186297
H8    H     H_    0.395979 0.576124 0.303925 0.120295
H9    H     H_    0.909976 0.703498 0.422732 0.118260
H10   H     H_    0.771320 0.814708 0.389409 0.143797
H11   H     H_    0.876079 0.927637 0.197974 0.156497
H12   H     H_    0.351629 0.795386 0.076815 0.142201
H13   H     H_    0.498254 0.687137 0.113249 0.121662
H14   H     H_    0.516275 0.607880 0.196512 0.126519
C35   C     C_R   0.468864 0.186738 0.868519 -0.211122
C36   C     C_R   0.624243 0.136627 0.870799 -0.077230
C37   C     C_R   0.784797 0.133763 0.825586 -0.209536
C38   C     C_R   0.788523 0.178479 0.777160 0.089025
C39   C     C_R   0.631938 0.228433 0.775192 0.053782
C40   C     C_R   0.472413 0.233116 0.821564 0.087924
C41   C     C_R   0.945343 0.173606 0.730154 -0.193169
C42   C     C_R   0.948143 0.218429 0.682121 -0.179913
C43   C     C_R   0.794124 0.268868 0.680231 0.087984
C44   C     C_R   0.634647 0.273611 0.726630 0.055147
C45   C     C_R   0.477888 0.323422 0.724519 0.091300
C46   C     C_R   0.321399 0.328536 0.771740 -0.200614
C47   C     C_R   0.318703 0.283790 0.819862 -0.180776
C48   C     C_R   0.797190 0.314797 0.632920 -0.217160
C49   C     C_R   0.641269 0.364445 0.630183 -0.082100
C50   C     C_R   0.480979 0.367595 0.675616 -0.227631
H15   H     H_    0.345030 0.189927 0.903544 0.142282
H16   H     H_    0.905063 0.095453 0.826925 0.117442
H17   H     H_    0.066378 0.135351 0.730738 0.132312
H18   H     H_    0.071525 0.213987 0.646702 0.134409
H19   H     H_    0.920981 0.311483 0.597852 0.128328
H20   H     H_    0.360294 0.405576 0.673978 0.120250
H21   H     H_    0.200403 0.366817 0.771173 0.134023
H22   H     H_    0.195454 0.288333 0.855370 0.144135
H23   H     H_    0.280192 0.160315 0.422085 0.116185
C51   C     C_R   0.831053 0.393230 0.252445 -0.216639
C52   C     C_R   0.917083 0.400301 0.189895 -0.232955
C53   C     C_R   0.902432 0.337232 0.123904 0.520548
C54   C     C_R   0.806636 0.266350 0.123062 -0.190494
C55   C     C_R   0.721016 0.256960 0.186224 -0.001647
C56   C     C_R   0.732917 0.321892 0.252267 0.073562
C57   C     C_R   0.620010 0.185111 0.183801 -0.157969
C58   C     C_R   0.528257 0.178942 0.247328 0.071804
C59   C     C_R   0.541044 0.243855 0.313516 0.066284
C60   C     C_R   0.643886 0.315263 0.316101 -0.166973
C61   C     C_R   0.425580 0.108281 0.246788 -0.142825
C62   C     C_R   0.334010 0.102701 0.308918 -0.107469
C63   C     C_R   0.348732 0.165535 0.373621 -0.103741
C64   C     C_R   0.452804 0.234920 0.376435 -0.137147
H24   H     H_    0.842318 0.444894 0.300758 0.139903
H25   H     H_    0.995031 0.455343 0.193713 0.126140
H26   H     H_    0.797549 0.219287 0.071348 0.133047
H27   H     H_    0.414646 0.056331 0.198732 0.110455
H28   H     H_    0.252452 0.049000 0.306978 0.115416
H29   H     H_    0.463433 0.280992 0.428664 0.110741
O11   O     O_R   0.775200 0.060470 0.937800 -0.544169
O12   O     O_R   0.441110 0.093720 0.087350 -0.540260
O13   O     O_R   0.266330 0.939630 0.062280 -0.540219
C65   C     C_R   0.609977 0.116554 0.115090 0.689769
O14   O     O_R   0.445750 0.069950 0.939820 -0.544968
O15   O     O_R   0.271000 0.915700 0.913700 -0.534323
C66   C     C_R   0.615156 0.085895 0.918917 0.706415
O16   O     O_R   0.770530 0.084400 0.086380 -0.540124
O17   O     O_3   0.602830 0.949510 0.991680 -0.371190
V3    V     V_3+5 0.329710 0.009370 0.001550 1.438795
O18   O     O_R   0.940990 0.906170 0.912570 -0.539253
C67   C     C_R   0.109267 0.882274 0.885635 0.798202
O19   O     O_R   0.936350 0.929940 0.060100 -0.544554
C68   C     C_R   0.104254 0.915867 0.082548 0.770723
V4    V     V_3+5 0.829160 0.990450 0.998310 1.422696
O20   O     O_3   0.105910 0.050480 0.008320 -0.372144
O21   O     O_3   0.737582 0.914138 0.314393 -0.553578
C69   C     C_3   0.553886 0.886635 0.286332 -0.240407
H30   H     H_    0.557576 0.865235 0.226119 0.141478
H31   H     H_    0.452623 0.937510 0.303571 0.164570
H32   H     H_    0.496801 0.838753 0.307498 0.147973
O22   O     O_3   0.989113 0.339067 0.059715 -0.554680
C70   C     C_3   0.980666 0.415896 0.050998 -0.262894
H33   H     H_    0.097992 0.455552 0.082003 0.144231
H34   H     H_    0.837194 0.444258 0.066256 0.129460
H35   H     H_    0.004456 0.408995 0.992903 0.164726
O23   O     O_3   0.120928 0.764389 0.947779 -0.575464
C71   C     C_3   0.934944 0.735611 0.957775 -0.261138
H36   H     H_    0.939783 0.673513 0.961291 0.130431
H37   H     H_    0.834941 0.737834 0.913897 0.142506
H38   H     H_    0.874378 0.774411 0.009692 0.166516

loop_
_geom_bond_atom_site_label_1
_geom_bond_atom_site_label_2
_ccdc_geom_bond_type
C42   H18   S    
C52   C53   A    
C58   C59   A    
V3    O20   S    
C54   H26   S    
C22   C23   A    
C6    C7    A    
C1    O6    A    
C70   H33   S    
O17   V3    S    
C69   H30   S    
O11   C66   A    
C26   C27   A    
V4    O20   S    
C12   C15   A    
C16   H6    S    
C11   C67   S    
C36   C37   A    
O13   V3    S    
C15   C16   A    
C53   O22   S    
C51   C56   A    
O5    C3    A    
C17   C18   A    
C57   C65   S    
C69   H31   S    
V2    O10   S    
C63   C64   A    
O18   C67   A    
C5    C6    A    
O19   C68   A    
C1    C49   S    
H23   C63   S    
C52   H25   S    
O8    V2    S    
C35   C40   A    
C15   H5    S    
C35   H15   S    
O23   C71   S    
C71   H38   S    
C44   C45   A    
C32   H11   S    
C10   C14   A    
C4    C14   S    
C51   H24   S    
O7    V1    S    
C47   H22   S    
C35   C36   A    
C65   O16   A    
C7    H4    S    
C13   C18   A    
O9    C4    A    
H1    C17   S    
O12   C65   A    
O13   C68   A    
C43   C44   A    
C62   C63   A    
O19   V4    S    
C29   C34   A    
C64   H29   S    
C48   C49   A    
C32   C33   A    
C46   H21   S    
C38   C41   A    
C41   H17   S    
C11   C12   A    
C6    H3    S    
C50   H20   S    
C20   C21   A    
O4    C2    A    
C51   C52   A    
C42   C43   A    
C69   H32   S    
C12   C13   A    
C40   C47   A    
C27   C32   A    
C41   C42   A    
C18   H7    S    
C19   C20   A    
O2    C1    A    
C49   C50   A    
C8    O23   S    
C16   C17   A    
O16   V4    S    
C25   H10   S    
C55   C57   A    
C28   C29   A    
C19   H8    S    
C34   H12   S    
C21   H9    S    
C61   C62   A    
C13   C14   A    
C43   C48   A    
C53   C54   A    
O12   V3    S    
O3    C4    A    
O1    V2    S    
C21   C22   A    
C39   C40   A    
C58   C61   A    
O9    V2    S    
C71   H36   S    
C22   C25   A    
C9    C11   A    
C5    H2    S    
C23   C24   A    
C48   H19   S    
O22   C70   S    
O2    V1    S    
C70   H35   S    
C33   C34   A    
C27   C28   A    
C29   C30   A    
O11   V4    S    
O1    C2    A    
C25   C26   A    
C46   C47   A    
C70   H34   S    
O5    V1    S    
O8    C3    A    
C24   C31   A    
O21   C69   S    
C26   O21   S    
O6    V2    S    
C2    C60   S    
C30   H13   S    
O15   C67   A    
C31   H14   S    
C38   C39   A    
C3    C20   S    
O7    V2    S    
C19   C24   A    
O3    V1    S    
V1    O10   S    
C55   C56   A    
C45   C50   A    
C59   C64   A    
C5    C10   A    
C57   C58   A    
C23   C28   A    
C59   C60   A    
O14   C66   A    
C62   H28   S    
C56   C60   A    
C37   C38   A    
C33   C68   S    
O18   V4    S    
O4    V1    S    
C36   C66   S    
C7    C8    A    
C30   C31   A    
C61   H27   S    
C71   H37   S    
C9    C10   A    
O15   V3    S    
C45   C46   A    
C54   C55   A    
C8    C9    A    
O14   V3    S    
O17   V4    S    
C39   C44   A    
C37   H16   S    
