data_mof_unit_33365.cif
_audit_creation_date              2012-12-10T17:15:11-0500
_audit_creation_method            fapswitch 2.2
_symmetry_space_group_name_H-M    P1
_symmetry_Int_Tables_number       1
_space_group_crystal_system       triclinic
_cell_length_a                    15.859199
_cell_length_b                    12.999721
_cell_length_c                    11.675998
_cell_angle_alpha                 100.264673
_cell_angle_beta                  93.47775
_cell_angle_gamma                 90.600758
_cell_volume                      2363.73948242

loop_
_atom_site_label
_atom_site_type_symbol
_atom_type_description
_atom_site_fract_x
_atom_site_fract_y
_atom_site_fract_z
_atom_type_partial_charge
C1    C     C_R   0.500170 0.298946 0.478067 0.824668
C2    C     C_R   0.500281 0.701114 0.522023 0.826743
C3    C     C_R   0.518106 0.013278 0.347715 -0.265263
C4    C     C_R   0.484834 0.987108 0.653244 -0.279670
C5    C     C_R   0.517689 0.121682 0.356561 0.421079
C6    C     C_R   0.485265 0.878646 0.644487 0.438531
C7    C     C_R   0.492584 0.139682 0.563085 -0.292533
C8    C     C_R   0.509090 0.860564 0.437505 -0.280907
C9    C     C_R   0.494929 0.031963 0.554628 0.101008
C10   C     C_R   0.507302 0.968334 0.446126 0.095013
C11   C     C_R   0.422389 0.397711 0.022025 0.423311
C12   C     C_R   0.583346 0.594979 0.977190 0.388925
C13   C     C_R   0.428838 0.410242 0.144474 -0.116433
C14   C     C_R   0.573122 0.587247 0.855168 -0.139644
C15   C     C_R   0.535512 0.541406 0.157331 0.786145
C16   C     C_R   0.465300 0.457580 0.842463 0.776745
C17   C     C_R   0.530733 0.533960 0.034004 -0.284051
C18   C     C_R   0.472039 0.462444 0.965445 -0.306127
C19   C     C_R   0.339784 0.500155 0.500544 0.814640
C20   C     C_R   0.660152 0.500030 0.499452 0.812760
C21   C     C_3   0.973891 0.430055 0.559654 0.395172
C22   C     C_3   0.025567 0.571857 0.439444 0.397452
C23   C     C_3   0.024695 0.403315 0.449480 -0.462782
C24   C     C_3   0.974736 0.598564 0.549627 -0.468889
C25   C     C_1   0.250181 0.500468 0.501529 -0.148657
C26   C     C_1   0.749627 0.500430 0.498363 -0.161371
C27   C     C_3   0.031819 0.524934 0.609162 0.403491
C28   C     C_3   0.967587 0.476975 0.390010 0.400176
C29   C     C_3   0.082959 0.499985 0.499914 -0.033546
C30   C     C_3   0.916631 0.501935 0.499281 -0.029112
C31   C     C_1   0.174644 0.500482 0.501211 0.077994
C32   C     C_1   0.825077 0.501022 0.498356 0.070532
C33   C     C_R   0.498623 0.814975 0.535808 -0.161261
C34   C     C_R   0.502986 0.185235 0.464728 -0.151365
Cu1   Cu    Cu3+1 0.506200 0.507730 0.615930 1.002056
Cu2   Cu    Cu3+1 0.493800 0.492270 0.384070 1.004734
H1    H     H_    0.046508 0.325035 0.409384 0.159932
H2    H     H_    0.952788 0.676799 0.589641 0.158539
H3    H     H_    0.519276 0.812231 0.353883 0.212390
H4    H     H_    0.481996 0.187974 0.646590 0.187965
H5    H     H_    0.527413 0.964631 0.264022 0.164010
H6    H     H_    0.476420 0.035905 0.737122 0.135293
H7    H     H_    0.611871 0.635759 0.812109 0.180137
H8    H     H_    0.389510 0.362451 0.187597 0.182230
N1    N     N_R   0.515540 0.519350 0.790140 -0.255987
N2    N     N_R   0.484460 0.480650 0.209860 -0.265458
O1    O     O_R   0.504400 0.354460 0.582000 -0.553071
O2    O     O_R   0.495600 0.645540 0.418000 -0.545939
O3    O     O_R   0.493920 0.341410 0.386200 -0.553915
O4    O     O_R   0.506080 0.658590 0.613800 -0.548082
O5    O     O_R   0.384320 0.506520 0.597880 -0.521810
O6    O     O_R   0.615680 0.493480 0.402120 -0.529203
O7    O     O_R   0.373840 0.493460 0.402080 -0.592532
O8    O     O_R   0.626160 0.506540 0.597920 -0.599370
O9    O     O_3   0.939520 0.358837 0.623302 -0.582615
C35   C     C_3   0.004095 0.295937 0.659753 0.084056
H9    H     H_    0.055816 0.344332 0.712596 0.183859
H10   H     H_    0.030485 0.245945 0.583334 0.148138
C36   C     C_3   0.967324 0.224763 0.735125 -0.799536
H11   H     H_    0.917322 0.172680 0.683724 0.252900
H12   H     H_    0.017835 0.175990 0.766243 0.204291
H13   H     H_    0.939520 0.272320 0.811706 0.247753
O10   O     O_3   0.059161 0.643185 0.375286 -0.577133
C37   C     C_3   0.994116 0.706444 0.340699 0.076731
H14   H     H_    0.970708 0.758576 0.417895 0.149190
H15   H     H_    0.940452 0.658433 0.292235 0.172887
C38   C     C_3   0.028705 0.774583 0.260470 -0.803643
H16   H     H_    0.053966 0.724767 0.183352 0.249743
H17   H     H_    0.977547 0.823066 0.230437 0.201220
H18   H     H_    0.080212 0.826894 0.307661 0.256086
O11   O     O_3   0.926326 0.454556 0.277584 -0.577684
C39   C     C_3   0.986169 0.425412 0.193911 0.088279
H19   H     H_    0.018094 0.352450 0.207932 0.147591
H20   H     H_    0.034353 0.488768 0.196507 0.178126
C40   C     C_3   0.941095 0.404771 0.073056 -0.820338
H21   H     H_    0.908781 0.476275 0.055654 0.242242
H22   H     H_    0.987648 0.382023 0.006313 0.206178
H23   H     H_    0.893505 0.340375 0.066660 0.252945
O12   O     O_3   0.072021 0.547319 0.722251 -0.568507
C41   C     C_3   0.011295 0.577709 0.804443 0.074829
H24   H     H_    0.960466 0.516913 0.798327 0.171178
H25   H     H_    0.982792 0.653054 0.791856 0.144300
C42   C     C_3   0.054036 0.593004 0.926573 -0.791729
H26   H     H_    0.103415 0.655798 0.937289 0.255212
H27   H     H_    0.006449 0.615488 0.991932 0.191557
H28   H     H_    0.083737 0.519257 0.941895 0.257626
O13   O     O_3   0.477152 0.835751 0.743585 -0.562703
C43   C     C_3   0.390806 0.832789 0.766283 0.067640
H29   H     H_    0.352077 0.790455 0.688913 0.137539
H30   H     H_    0.366774 0.913368 0.791159 0.132224
C44   C     C_3   0.380287 0.775095 0.867172 -0.716704
H31   H     H_    0.418465 0.814809 0.945846 0.245523
H32   H     H_    0.312792 0.774012 0.887378 0.196617
H33   H     H_    0.401297 0.693275 0.843509 0.255612
O14   O     O_3   0.527589 0.164457 0.257875 -0.583546
C45   C     C_3   0.614751 0.174346 0.242776 0.093345
H34   H     H_    0.643964 0.096040 0.224550 0.141604
H35   H     H_    0.648107 0.222454 0.321439 0.137082
C46   C     C_3   0.626451 0.228586 0.139465 -0.769082
H36   H     H_    0.599164 0.307745 0.155878 0.248758
H37   H     H_    0.694816 0.236386 0.126268 0.202829
H38   H     H_    0.594535 0.182186 0.059185 0.237560
F1    F     F_    0.407850 0.392206 0.774537 -0.642735
F2    F     F_    0.591036 0.609461 0.225463 -0.630675
O15   O     O_3   0.364970 0.324686 0.959766 -0.533682
C47   C     C_3   0.406184 0.229481 0.922087 0.131319
H39   H     H_    0.476124 0.237768 0.918331 0.110246
H40   H     H_    0.381128 0.197262 0.831776 0.186631
C48   C     C_3   0.386370 0.150275 0.998906 -0.850720
H41   H     H_    0.316990 0.137207 0.997682 0.252353
H42   H     H_    0.416345 0.074814 0.966021 0.217502
H43   H     H_    0.411232 0.179069 0.089863 0.285521
O16   O     O_3   0.642170 0.665456 0.040485 -0.523418
C49   C     C_3   0.723364 0.622631 0.028433 0.120475
H44   H     H_    0.742164 0.616663 0.937168 0.108846
H45   H     H_    0.725620 0.543738 0.053464 0.151085
C50   C     C_3   0.787439 0.693641 0.108405 -0.745866
H46   H     H_    0.772130 0.698400 0.200760 0.269574
H47   H     H_    0.851787 0.661986 0.097542 0.180277
H48   H     H_    0.786643 0.773322 0.086448 0.238540

loop_
_geom_bond_atom_site_label_1
_geom_bond_atom_site_label_2
_ccdc_geom_bond_type
C25   C31   T    
O13   C43   S    
C11   C18   A    
C26   C32   T    
C22   C29   S    
C27   C29   S    
C39   H20   S    
O14   C45   S    
C24   C27   S    
O9    C35   S    
Cu1   O1    S    
C4    H6    S    
C49   H44   S    
C47   H40   S    
C23   C29   S    
C12   O16   S    
C27   O12   S    
C48   H42   S    
C13   N2    A    
C47   H39   S    
C45   C46   S    
C35   H9    S    
C15   C17   A    
Cu2   O7    S    
C2    O4    A    
C22   O10   S    
C42   H26   S    
C45   H35   S    
C12   C17   A    
C11   O15   S    
C24   H2    S    
C7    H4    S    
Cu2   N2    S    
C8    H3    S    
C15   F2    S    
C9    C10   A    
Cu2   O6    S    
C39   H19   S    
C19   O7    A    
C21   C27   S    
C36   H11   S    
C22   C28   S    
C5    C34   A    
Cu1   O8    S    
C41   C42   S    
C5    O14   S    
C1    C34   S    
C14   N1    A    
C36   H12   S    
C38   H16   S    
C37   C38   S    
C20   O8    A    
C48   H43   S    
C44   H31   S    
C21   O9    S    
C1    O1    A    
C2    O2    A    
C23   H1    S    
C6    O13   S    
O12   C41   S    
C38   H17   S    
Cu1   Cu2   S    
C37   H15   S    
C40   H21   S    
C44   H32   S    
C16   F1    S    
C46   H36   S    
C43   C44   S    
C29   C31   S    
C45   H34   S    
C42   H28   S    
Cu1   O4    S    
C17   C18   A    
C16   C18   A    
C23   C28   S    
C40   H22   S    
C2    C33   S    
C4    C6    A    
C42   H27   S    
C12   C14   A    
C21   C23   S    
Cu1   O5    S    
C7    C34   A    
C22   C24   S    
C50   H48   S    
C28   O11   S    
Cu1   N1    S    
O16   C49   S    
C21   C30   S    
C7    C9    A    
C3    H5    S    
C36   H13   S    
C46   H37   S    
C43   H30   S    
C41   H24   S    
C3    C5    A    
C16   N1    A    
C49   H45   S    
C35   C36   S    
O15   C47   S    
C6    C33   A    
C38   H18   S    
C37   H14   S    
C50   H47   S    
O11   C39   S    
C20   O6    A    
C3    C10   A    
C48   H41   S    
C44   H33   S    
C30   C32   S    
C11   C13   A    
C39   C40   S    
C20   C26   S    
C28   C30   S    
C41   H25   S    
C35   H10   S    
Cu2   O2    S    
C8    C33   A    
C19   C25   S    
C40   H23   S    
C24   C30   S    
C49   C50   S    
O10   C37   S    
C19   O5    A    
C46   H38   S    
C43   H29   S    
C8    C10   A    
C15   N2    A    
C4    C9    A    
C50   H46   S    
C1    O3    A    
C13   H8    S    
Cu2   O3    S    
C14   H7    S    
C47   C48   S    
