data_mof_unit_10546.cif
_audit_creation_date              2012-10-26T19:19:26-0400
_audit_creation_method            fapswitch 2.2
_symmetry_space_group_name_H-M    P1
_symmetry_Int_Tables_number       1
_space_group_crystal_system       triclinic
_cell_length_a                    15.871128
_cell_length_b                    10.890571
_cell_length_c                    9.823708
_cell_angle_alpha                 91.51046
_cell_angle_beta                  89.607354
_cell_angle_gamma                 90.757648
_cell_volume                      1697.21082386

loop_
_atom_site_label
_atom_site_type_symbol
_atom_type_description
_atom_site_fract_x
_atom_site_fract_y
_atom_site_fract_z
_atom_type_partial_charge
C1    C     C_R   0.503574 0.266131 0.498242 0.569805
C2    C     C_2   0.485281 0.865479 0.509395 -0.060834
C3    C     C_2   0.469803 0.064556 0.412584 -0.116400
C4    C     C_R   0.340566 0.499957 0.500502 0.534464
C5    C     C_2   0.519716 0.136053 0.492417 0.263962
C6    C     C_2   0.477658 0.410433 0.928551 0.349931
C7    C     C_2   0.510445 0.406019 0.069788 0.384423
C8    C     C_R   0.496398 0.734079 0.501933 0.546508
C9    C     C_R   0.659383 0.500165 0.499551 0.596138
C10   C     C_3   0.045535 0.429026 0.631443 0.132524
C11   C     C_3   0.047644 0.430068 0.371030 0.089102
C12   C     C_3   0.947917 0.439018 0.632225 -0.183823
C13   C     C_3   0.949628 0.424462 0.377335 -0.245334
C14   C     C_1   0.748933 0.500181 0.498859 0.116771
C15   C     C_3   0.082964 0.495152 0.504256 -0.038940
C16   C     C_3   0.916613 0.500988 0.501485 -0.062111
C17   C     C_3   0.954399 0.633758 0.490387 0.136820
C18   C     C_3   0.051735 0.630097 0.505123 -0.230143
C19   C     C_1   0.824444 0.500651 0.499464 0.037967
C20   C     C_1   0.175306 0.496819 0.503182 0.064542
C21   C     C_1   0.250913 0.498723 0.501781 0.101922
C22   C     C_2   0.479226 0.932078 0.398209 -0.097349
Cu1   Cu    Cu3+1 0.500020 0.500020 0.638630 1.238203
Cu2   Cu    Cu3+1 0.499980 0.499980 0.361370 1.138461
H1    H     H_    0.940929 0.665332 0.385913 0.146957
H2    H     H_    0.732764 0.177267 0.625542 0.377747
H3    H     H_    0.421335 0.102980 0.800355 0.362708
H4    H     H_    0.655520 0.751499 0.826525 0.378159
H5    H     H_    0.659145 0.167517 0.978079 0.392398
H6    H     H_    0.061389 0.330475 0.621475 0.212599
H7    H     H_    0.066052 0.487906 0.283545 0.147934
H8    H     H_    0.075325 0.095376 0.405798 0.395659
H9    H     H_    0.923841 0.460077 0.281118 0.150674
H10   H     H_    0.072878 0.680092 0.598607 0.244473
H11   H     H_    0.081155 0.679898 0.418962 0.101570
H12   H     H_    0.476774 0.889532 0.297044 0.199395
H13   H     H_    0.786490 0.835522 0.621061 0.396858
H14   H     H_    0.454471 0.559415 0.121619 0.219713
H15   H     H_    0.926122 0.328102 0.384748 0.214128
H16   H     H_    0.919883 0.345009 0.638241 0.137792
H17   H     H_    0.087913 0.637225 0.928678 0.381977
H18   H     H_    0.925063 0.489804 0.724115 0.235744
H19   H     H_    0.479546 0.908788 0.609795 0.164713
H20   H     H_    0.419028 0.104989 0.355822 0.160465
N1    N     N_2   0.499090 0.498660 0.846910 -0.117145
N2    N     N_2   0.499070 0.498630 0.153040 -0.319729
O1    O     O_R   0.500010 0.321960 0.617040 -0.441033
O2    O     O_2   0.182377 0.460394 0.795484 -0.219840
O3    O     O_3   0.066294 0.623510 0.835088 -0.488557
O4    O     O_2   0.600244 0.033251 0.701119 -0.254562
O5    O     O_2   0.657605 0.993951 0.471798 -0.238470
O6    O     O_3   0.681214 0.209920 0.584136 -0.505304
O7    O     O_2   0.358846 0.251353 0.006381 -0.237091
O8    O     O_2   0.346926 0.322680 0.774379 -0.239182
O9    O     O_3   0.463896 0.166371 0.826837 -0.443526
O10   O     O_2   0.523159 0.709872 0.987166 -0.295122
O11   O     O_2   0.637643 0.560641 0.993509 -0.238431
O12   O     O_R   0.499990 0.321920 0.382900 -0.478590
O13   O     O_3   0.621136 0.686423 0.780413 -0.443913
O14   O     O_2   0.641596 0.315947 0.211583 -0.226546
O15   O     O_2   0.526695 0.173743 0.145851 -0.255412
O16   O     O_3   0.630373 0.245268 0.958831 -0.449282
O17   O     O_2   0.058913 0.241897 0.189420 -0.183361
O18   O     O_2   0.183320 0.280762 0.329657 -0.248992
O19   O     O_3   0.052879 0.174855 0.440146 -0.522242
O20   O     O_2   0.907664 0.710337 0.747845 -0.220954
O21   O     O_2   0.958073 0.866758 0.591396 -0.228659
O22   O     O_3   0.808577 0.774649 0.553601 -0.489703
O23   O     O_R   0.379450 0.500030 0.617120 -0.468067
O24   O     O_R   0.379420 0.499980 0.382980 -0.522498
O25   O     O_R   0.500010 0.678080 0.617100 -0.450162
O26   O     O_R   0.499990 0.678040 0.382960 -0.504166
O27   O     O_R   0.620580 0.500020 0.617020 -0.432164
O28   O     O_R   0.620550 0.499970 0.382880 -0.447852
O29   O     O_2   0.050082 0.396122 0.901686 -0.214807
S1    S     S_3+6 0.088520 0.476470 0.795088 0.031449
S2    S     S_3+6 0.616148 0.087704 0.564223 0.064361
S3    S     S_3+6 0.407912 0.287894 0.882065 0.098364
S4    S     S_3+6 0.570424 0.613771 0.906168 0.128836
S5    S     S_3+6 0.578381 0.282884 0.103492 0.137945
S6    S     S_3+6 0.088640 0.279131 0.329659 0.029591
S7    S     S_3+6 0.908086 0.749176 0.602314 0.046540

loop_
_geom_bond_atom_site_label_1
_geom_bond_atom_site_label_2
_ccdc_geom_bond_type
C15   C18   S    
Cu1   N1    S    
C6    N1    D    
O2    S1    D    
O29   S1    D    
C4    O24   A    
Cu2   O24   S    
C11   S6    S    
O10   S4    D    
O17   S6    D    
C1    C5    S    
O16   S5    S    
C10   C15   S    
H3    O9    S    
C6    S3    S    
O15   S5    D    
H13   O22   S    
C17   S7    S    
O11   S4    D    
C12   H18   S    
C11   C15   S    
C12   C16   S    
C16   C17   S    
C2    C22   D    
Cu1   Cu2   S    
C18   H11   S    
C11   H7    S    
C9    O27   A    
Cu1   O27   S    
H17   O3    S    
C4    O23   A    
C15   C20   S    
C3    H20   S    
C8    O26   A    
C13   H15   S    
C7    N2    D    
Cu1   O25   S    
Cu1   O1    S    
O13   S4    S    
O9    S3    S    
C1    O1    A    
Cu1   O23   S    
C12   H16   S    
C9    C14   S    
O5    S2    D    
C13   H9    S    
H2    O6    S    
O20   S7    D    
C10   H6    S    
O19   S6    S    
C2    H19   S    
C17   C18   S    
O3    S1    S    
N1    S4    S    
C18   H10   S    
C10   C12   S    
C9    O28   A    
C5    S2    S    
O6    S2    S    
O4    S2    D    
Cu2   O26   S    
H4    O13   S    
H5    O16   S    
O14   S5    D    
C8    O25   A    
C10   S1    S    
C14   C19   T    
C2    C8    S    
C17   H1    S    
C3    C5    D    
C6    C7    S    
C22   H12   S    
Cu2   N2    S    
O7    S3    D    
O22   S7    S    
C1    O12   A    
C4    C21   S    
C11   C13   S    
Cu2   O28   S    
C16   C19   S    
O18   S6    D    
H14   N2    S    
C20   C21   T    
O21   S7    D    
Cu2   O12   S    
C13   C16   S    
H8    O19   S    
C3    C22   S    
C7    S5    S    
O8    S3    D    
