data_mof_unit_58770.cif
_audit_creation_date              2013-03-05T15:51:48-0500
_audit_creation_method            fapswitch 2.2
_symmetry_space_group_name_H-M    P1
_symmetry_Int_Tables_number       1
_space_group_crystal_system       triclinic
_cell_length_a                    15.85068
_cell_length_b                    10.838188
_cell_length_c                    9.578188
_cell_angle_alpha                 89.848777
_cell_angle_beta                  90.029259
_cell_angle_gamma                 92.236514
_cell_volume                      1644.20300081

loop_
_atom_site_label
_atom_site_type_symbol
_atom_site_description
_atom_site_fract_x
_atom_site_fract_y
_atom_site_fract_z
_atom_type_partial_charge
O1    O     O_R   0.499990 0.319640 0.618810 -0.593545
O2    O     O_R   0.500000 0.319660 0.381240 -0.583389
C1    C     C_R   0.505689 0.262503 0.500982 0.791078
O3    O     O_R   0.379070 0.499980 0.618770 -0.560068
O4    O     O_R   0.379080 0.500000 0.381190 -0.569170
C2    C     C_R   0.339861 0.499183 0.499951 0.824694
Cu1   Cu    Cu3+1 0.499990 0.499990 0.640660 0.951365
Cu2   Cu    Cu3+1 0.500010 0.500010 0.359340 0.932892
O5    O     O_R   0.500000 0.680340 0.618760 -0.557824
O6    O     O_R   0.500010 0.680360 0.381190 -0.609979
O7    O     O_R   0.620920 0.500000 0.618810 -0.601561
O8    O     O_R   0.620930 0.500020 0.381230 -0.591695
C3    C     C_R   0.493100 0.737042 0.500524 0.795617
C4    C     C_R   0.660109 0.500084 0.500059 0.798616
C5    C     C_3   0.968838 0.410299 0.591867 -0.121430
C6    C     C_3   0.024331 0.381808 0.463361 -0.221046
H1    H     H_    0.045908 0.289197 0.433935 0.143321
H2    H     H_    0.942029 0.341198 0.667028 0.133527
H3    H     H_    0.945092 0.444003 0.265729 0.132376
C7    C     C_1   0.250037 0.497139 0.499899 -0.187522
C8    C     C_1   0.749823 0.498820 0.500142 -0.181477
C9    C     C_3   0.028624 0.522080 0.629199 -0.221784
C10   C     C_3   0.082597 0.493769 0.500679 0.140479
C11   C     C_3   0.975210 0.608175 0.537897 -0.253877
C12   C     C_3   0.917028 0.495887 0.499979 0.133589
C13   C     C_3   0.029502 0.577337 0.410572 0.519565
C14   C     C_3   0.970674 0.466603 0.370837 -0.241510
C15   C     C_1   0.174384 0.495247 0.500110 -0.029014
C16   C     C_1   0.825382 0.497408 0.500140 -0.057362
H4    H     H_    0.954259 0.701267 0.566777 0.135554
H5    H     H_    0.053436 0.541906 0.735467 0.148664
H6    H     H_    0.504615 0.111677 0.278681 0.159070
C17   C     C_R   0.537966 0.112425 0.761320 -0.168565
H7    H     H_    0.574528 0.198469 0.766918 0.175300
C18   C     C_R   0.521905 0.050173 0.886620 -0.252296
H8    H     H_    0.542367 0.091056 0.984576 0.156621
C19   C     C_R   0.475069 0.939101 0.886229 -0.179842
H9    H     H_    0.455887 0.896686 0.984293 0.152720
C20   C     C_R   0.451030 0.884016 0.759854 0.469945
C21   C     C_R   0.481411 0.936606 0.631536 -0.035500
C22   C     C_R   0.510513 0.060895 0.632518 0.046440
C23   C     C_R   0.510378 0.127720 0.504513 -0.093959
C24   C     C_R   0.502900 0.063611 0.378032 -0.209354
H10   H     H_    0.495683 0.888898 0.278102 0.167328
C25   C     C_R   0.494768 0.936236 0.377567 -0.216869
C26   C     C_R   0.485241 0.871111 0.503378 -0.116408
H11   H     H_    0.406341 0.358307 0.129611 0.137665
C27   C     C_R   0.610793 0.665720 0.143804 -0.150032
H12   H     H_    0.617038 0.672614 0.253711 0.200212
C28   C     C_R   0.664376 0.747373 0.071325 -0.226723
H13   H     H_    0.706597 0.810660 0.127454 0.149027
C29   C     C_R   0.664477 0.747280 0.927564 -0.206932
H14   H     H_    0.706712 0.810571 0.871165 0.151978
C30   C     C_R   0.610991 0.665545 0.855439 -0.124888
H15   H     H_    0.617355 0.672405 0.745520 0.191327
C31   C     C_R   0.554367 0.581627 0.924940 0.223583
C32   C     C_R   0.554310 0.581646 0.074652 0.203418
N1    N     N_R   0.500800 0.501210 0.147910 -0.197522
C33   C     C_R   0.448500 0.422146 0.074120 -0.065931
H16   H     H_    0.406409 0.358343 0.870819 0.139417
C34   C     C_R   0.448515 0.422191 0.926101 -0.057794
N2    N     N_R   0.500830 0.501290 0.852040 -0.190371
O9    O     O_3   0.392127 0.786122 0.765539 -0.592603
C35   C     C_3   0.316636 0.818859 0.697915 0.066288
H17   H     H_    0.317775 0.786551 0.587838 0.143958
H18   H     H_    0.307180 0.920657 0.698125 0.123566
C36   C     C_3   0.241321 0.756153 0.772726 -0.323011
H19   H     H_    0.245775 0.654187 0.766617 0.230419
H20   H     H_    0.242444 0.783260 0.884626 0.220061
C37   C     C_3   0.158008 0.793742 0.708256 -0.934755
H21   H     H_    0.152881 0.895636 0.711589 0.254627
H22   H     H_    0.104538 0.751366 0.768396 0.254720
H23   H     H_    0.153464 0.762198 0.598161 0.280600
O10   O     O_3   0.066962 0.665031 0.318011 -0.622086
C38   C     C_3   0.005022 0.718727 0.233225 0.046779
H24   H     H_    0.016954 0.820406 0.234622 0.160996
H25   H     H_    0.938815 0.701763 0.270531 0.125354
C39   C     C_3   0.013500 0.673360 0.082773 -0.335475
H26   H     H_    0.077520 0.699854 0.042762 0.225912
H27   H     H_    0.005903 0.571115 0.079976 0.211575
C40   C     C_3   0.947353 0.728339 0.987582 -0.942248
H28   H     H_    0.882758 0.701426 0.024461 0.263986
H29   H     H_    0.954995 0.693272 0.879684 0.256015
H30   H     H_    0.955076 0.830633 0.985721 0.255174

loop_
_geom_bond_atom_site_label_1
_geom_bond_atom_site_label_2
_geom_bond_distance
_ccdc_geom_bond_type
C5    H2    1.110119 S    
C1    C23   1.465883 S    
C22   C23   1.422396 A    
C18   H8    1.082822 S    
C40   H28   1.111168 S    
C27   C32   1.417553 A    
C25   C26   1.400181 A    
C29   H14   1.083098 S    
Cu1   O7    1.928314 S    
C13   C14   1.539293 S    
C4    C8    1.422626 S    
C18   C19   1.389459 A    
C11   C13   1.537929 S    
O4    C2    1.296417 A    
O7    C4    1.296248 A    
C39   H27   1.110389 S    
C5    C12   1.537498 S    
C5    C6    1.551893 S    
C31   C32   1.433966 A    
C10   C13   1.525812 S    
O5    C3    1.293677 A    
C13   O10   1.412084 S    
Cu2   N1    2.025166 S    
C5    C9    1.551119 S    
C6    H1    1.110082 S    
C28   C29   1.376971 A    
C37   H21   1.111023 S    
H3    C14   1.109539 S    
C6    C14   1.552178 S    
C27   C28   1.387506 A    
O3    Cu1   1.927989 S    
C40   H29   1.110394 S    
C29   C30   1.387348 A    
C17   H7    1.080023 S    
C12   C16   1.453398 S    
C30   C31   1.417612 A    
C33   C34   1.417754 A    
C9    H5    1.109520 S    
C36   H19   1.111812 S    
C35   C36   1.528217 S    
Cu1   Cu2   2.694535 S    
C11   C12   1.542032 S    
O3    C2    1.296316 A    
O10   C38   1.415406 S    
C20   C21   1.429278 A    
C39   H26   1.111808 S    
C7    C15   1.198539 T    
N1    C33   1.366824 A    
C8    C16   1.198350 T    
H16   C34   1.081753 S    
O1    C1    1.293637 A    
C35   H18   1.119224 S    
C21   C26   1.422119 A    
C38   H24   1.110941 S    
Cu1   N2    2.024758 S    
C19   H9    1.083106 S    
C38   H25   1.117027 S    
Cu2   O8    1.927987 S    
C37   H23   1.110838 S    
C28   H13   1.083107 S    
C10   C15   1.454365 S    
C24   C25   1.381512 A    
C21   C22   1.406769 A    
O8    C4    1.296275 A    
C6    C10   1.538722 S    
C9    C11   1.552053 S    
C23   C24   1.400838 A    
C40   H30   1.110751 S    
C20   O9    1.386654 S    
H10   C25   1.083629 S    
Cu1   O5    1.965333 S    
C30   H15   1.059836 S    
C27   H12   1.059867 S    
O1    Cu1   1.966388 S    
O2    Cu2   1.965334 S    
O6    C3    1.305730 A    
O4    Cu2   1.928316 S    
C12   C14   1.542083 S    
C2    C7    1.423077 S    
C36   C37   1.526777 S    
C17   C22   1.416821 A    
C35   H17   1.112215 S    
O2    C1    1.306824 A    
C19   C20   1.397277 A    
C39   C40   1.526623 S    
C32   N1    1.382545 A    
C3    C26   1.463565 S    
C17   C18   1.393922 A    
H6    C24   1.083506 S    
C31   N2    1.382299 A    
C34   N2    1.366632 A    
C38   C39   1.531524 S    
C11   H4    1.110183 S    
H11   C33   1.081710 S    
O9    C35   1.417171 S    
Cu2   O6    1.966388 S    
C9    C10   1.537839 S    
C37   H22   1.108961 S    
C36   H20   1.112033 S    
