data_mof_unit_65703.cif
_audit_creation_date              2013-03-05T16:20:58-0500
_audit_creation_method            fapswitch 2.2
_symmetry_space_group_name_H-M    P1
_symmetry_Int_Tables_number       1
_space_group_crystal_system       triclinic
_cell_length_a                    21.749891
_cell_length_b                    21.798962
_cell_length_c                    22.261753
_cell_angle_alpha                 119.227817
_cell_angle_beta                  119.651129
_cell_angle_gamma                 89.979641
_cell_volume                      7589.26624071

loop_
_atom_site_label
_atom_site_type_symbol
_atom_site_description
_atom_site_fract_x
_atom_site_fract_y
_atom_site_fract_z
_atom_type_partial_charge
O1    O     O_R   0.447800 0.090170 0.500010 -0.588325
O2    O     O_R   0.552190 0.090170 0.499980 -0.559020
C1    C     C_R   0.501348 0.119900 0.502190 0.816535
O3    O     O_R   0.508090 0.060280 0.620580 -0.585018
O4    O     O_R   0.612480 0.060280 0.620550 -0.590990
C2    C     C_R   0.580158 0.079865 0.659792 0.807392
Cu1   Cu    Cu3+1 0.438190 0.000000 0.500020 0.984121
Cu2   Cu    Cu3+1 0.561810 0.000000 0.499980 0.997466
O5    O     O_R   0.447810 0.909830 0.500020 -0.589248
O6    O     O_R   0.552200 0.909830 0.499990 -0.569725
O7    O     O_R   0.387520 0.939720 0.379450 -0.567069
O8    O     O_R   0.491910 0.939720 0.379420 -0.564574
C3    C     C_R   0.500140 0.881125 0.499575 0.895222
C4    C     C_R   0.419893 0.920071 0.340214 0.821389
C5    C     C_3   0.676980 0.275642 0.951976 0.795513
C6    C     C_3   0.790528 0.248329 0.949924 -0.369933
C7    C     C_3   0.838183 0.307047 0.047030 0.819944
H1    H     H_    0.738552 0.378192 0.080392 0.236239
H2    H     H_    0.818110 0.206678 0.931613 0.190421
H3    H     H_    0.788239 0.275505 0.917874 0.202798
C8    C     C_1   0.876563 0.375630 0.250571 -0.139469
C9    C     C_3   0.709358 0.210291 0.916828 -0.065088
C10   C     C_3   0.722987 0.317078 0.049820 -0.479551
C11   C     C_3   0.794766 0.293621 0.083056 -0.070670
C12   C     C_3   0.761512 0.210142 0.047482 0.013423
C13   C     C_3   0.718264 0.160024 0.950850 0.222564
C14   C     C_1   0.839863 0.338686 0.175218 0.019362
C15   C     C_1   0.663417 0.163403 0.824687 -0.024916
C16   C     C_1   0.625556 0.125071 0.749360 -0.190537
H4    H     H_    0.663013 0.127732 0.927079 0.034684
H5    H     H_    0.719369 0.208646 0.061676 0.127550
H6    H     H_    0.688181 0.307496 0.069685 0.154640
C17   C     C_R   0.449597 0.220996 0.506338 -0.069020
C18   C     C_R   0.506391 0.190665 0.510641 -0.234257
C19   C     C_R   0.569240 0.232807 0.526962 0.439577
C20   C     C_R   0.564141 0.293394 0.518905 0.196252
C21   C     C_R   0.500330 0.316606 0.503703 -0.234658
C22   C     C_R   0.448792 0.284842 0.508850 -0.165232
C23   C     C_3   0.364986 0.263936 0.468265 0.862479
C24   C     C_3   0.367563 0.190470 0.461585 -0.405081
H7    H     H_    0.353397 0.183763 0.500134 0.205688
H8    H     H_    0.341289 0.139956 0.397607 0.155515
C25   C     C_3   0.211450 0.749280 0.047051 0.238920
C26   C     C_3   0.327377 0.733556 0.049901 0.022047
C27   C     C_3   0.277840 0.684449 0.951206 0.352122
H9    H     H_    0.142857 0.644365 0.925540 0.102265
H10   H     H_    0.220249 0.705967 0.060637 0.123368
H11   H     H_    0.328757 0.697469 0.072302 0.170021
C28   C     C_1   0.124354 0.624752 0.749210 -0.129993
C29   C     C_3   0.291906 0.792842 0.083055 -0.112862
C30   C     C_3   0.160651 0.704092 0.949539 0.154634
C31   C     C_3   0.208016 0.711707 0.916890 -0.087660
C32   C     C_3   0.236321 0.796788 0.951345 0.831336
C33   C     C_3   0.289329 0.841399 0.049364 -0.464354
C34   C     C_1   0.161742 0.663616 0.824502 0.074794
C35   C     C_1   0.337425 0.838229 0.175329 0.091714
C36   C     C_1   0.374796 0.875499 0.250640 -0.110468
H12   H     H_    0.274143 0.891044 0.078377 0.142717
H13   H     H_    0.347002 0.865367 0.071242 0.219162
C37   C     C_R   0.437094 0.753387 0.442718 -0.070675
C38   C     C_R   0.501918 0.813916 0.498030 -0.244043
C39   C     C_R   0.569860 0.808292 0.550743 0.366402
C40   C     C_R   0.569133 0.746834 0.556623 0.181142
C41   C     C_R   0.502480 0.686484 0.501485 -0.205024
C42   C     C_R   0.437458 0.691336 0.445766 -0.052045
C43   C     C_3   0.363295 0.685999 0.435589 0.623428
C44   C     C_3   0.361557 0.751707 0.426727 0.044121
H14   H     H_    0.361951 0.802195 0.476257 0.140337
O9    O     O_R   0.910020 0.552220 0.500020 -0.571422
O10   O     O_R   0.909990 0.447840 0.500030 -0.583792
C45   C     C_R   0.881035 0.499535 0.499207 0.799734
O11   O     O_R   0.939920 0.491910 0.379430 -0.581455
O12   O     O_R   0.939890 0.387530 0.379440 -0.575238
C46   C     C_R   0.920520 0.420173 0.340216 0.818828
Cu3   Cu    Cu3+1 0.000200 0.561800 0.500000 1.048706
Cu4   Cu    Cu3+1 0.000170 0.438200 0.500000 1.003722
O13   O     O_R   0.090380 0.552160 0.499970 -0.536640
O14   O     O_R   0.090350 0.447780 0.499980 -0.602915
O15   O     O_R   0.060480 0.612470 0.620560 -0.570041
O16   O     O_R   0.060450 0.508090 0.620570 -0.565601
C47   C     C_R   0.118328 0.499509 0.499347 0.881860
C48   C     C_R   0.079938 0.579821 0.659708 0.817102
O17   O     O_R   0.625130 0.534920 0.569820 -0.562237
O18   O     O_R   0.555400 0.465140 0.430260 -0.576502
C49   C     C_R   0.619308 0.501107 0.500357 0.874180
O19   O     O_R   0.534920 0.444720 0.569790 -0.578960
O20   O     O_R   0.465190 0.374940 0.430230 -0.590667
C50   C     C_R   0.496872 0.381336 0.500393 0.854683
Cu5   Cu    Cu3+1 0.541330 0.541310 0.582630 1.062623
Cu6   Cu    Cu3+1 0.458770 0.458690 0.417370 1.071563
O21   O     O_R   0.444700 0.534860 0.569740 -0.580861
O22   O     O_R   0.374970 0.465080 0.430180 -0.531711
O23   O     O_R   0.534910 0.625060 0.569770 -0.557693
O24   O     O_R   0.465180 0.555280 0.430210 -0.551601
C51   C     C_R   0.380353 0.500082 0.499123 0.834135
C52   C     C_R   0.499932 0.619271 0.500360 0.908810
C53   C     C_R   0.808454 0.565326 0.551375 0.047126
C54   C     C_R   0.815298 0.499340 0.500893 -0.095436
C55   C     C_R   0.759839 0.432186 0.455959 -0.170596
H15   H     H_    0.764980 0.379792 0.418566 0.166336
C56   C     C_R   0.694939 0.432767 0.454824 -0.136613
H16   H     H_    0.651022 0.380885 0.416615 0.180248
C57   C     C_R   0.686491 0.500211 0.501494 -0.030373
C58   C     C_R   0.745309 0.565859 0.552279 0.020483
C59   C     C_3   0.745898 0.637095 0.557465 0.015213
C60   C     C_3   0.815092 0.635806 0.556123 0.057366
H17   H     H_    0.756998 0.683078 0.617673 0.218874
H18   H     H_    0.807279 0.628305 0.499394 0.189405
C61   C     C_R   0.251659 0.551002 0.566470 -0.074709
C62   C     C_R   0.183476 0.497017 0.497409 -0.156182
C63   C     C_R   0.181431 0.434693 0.431615 0.357262
C64   C     C_R   0.244517 0.435993 0.428300 0.217174
C65   C     C_R   0.312450 0.495406 0.497157 -0.210419
C66   C     C_R   0.315391 0.548477 0.567927 0.008981
C67   C     C_3   0.347282 0.630903 0.620646 0.059592
C68   C     C_3   0.275816 0.633822 0.617653 0.067415
H19   H     H_    0.355544 0.651805 0.587941 0.198657
H20   H     H_    0.283730 0.657430 0.678881 0.181552
O25   O     O_3   0.598239 0.255757 0.916302 -0.607745
C69   C     C_3   0.566836 0.194911 0.910298 -0.019999
H21   H     H_    0.600131 0.197307 0.968804 0.130515
H22   H     H_    0.558176 0.142402 0.855943 0.158454
C70   C     C_3   0.490250 0.196083 0.893697 -0.711719
H23   H     H_    0.453920 0.193052 0.834902 0.251136
H24   H     H_    0.463944 0.147881 0.887579 0.199155
H25   H     H_    0.495566 0.247953 0.946208 0.255317
Br1   Br    Br    0.821649 0.165429 0.104645 -0.545817
O26   O     O_3   0.633333 0.212622 0.544259 -0.533959
C71   C     C_3   0.675793 0.232828 0.627933 0.119519
H26   H     H_    0.707965 0.193636 0.630939 0.177955
H27   H     H_    0.641291 0.228483 0.650534 0.097592
C72   C     C_3   0.731272 0.310868 0.687207 -0.774671
H28   H     H_    0.701204 0.352377 0.691651 0.255019
H29   H     H_    0.769210 0.322377 0.750468 0.200449
H30   H     H_    0.765192 0.316034 0.664600 0.287438
Br2   Br    Br    0.644111 0.342115 0.526947 -0.521100
O27   O     O_3   0.343397 0.304047 0.523478 -0.588954
C73   C     C_3   0.376548 0.381170 0.569830 0.065556
H31   H     H_    0.369971 0.398503 0.528464 0.145947
H32   H     H_    0.436883 0.397783 0.618458 0.158239
C74   C     C_3   0.339473 0.420372 0.614021 -0.713090
H33   H     H_    0.343705 0.401361 0.653611 0.260632
H34   H     H_    0.367796 0.481133 0.654676 0.240315
H35   H     H_    0.279675 0.408021 0.567423 0.224021
O28   O     O_3   0.318833 0.258117 0.391474 -0.571685
C75   C     C_3   0.333238 0.216038 0.329900 0.064478
H36   H     H_    0.378532 0.191570 0.347884 0.120570
H37   H     H_    0.349743 0.252916 0.315829 0.208255
C76   C     C_3   0.262001 0.154024 0.250092 -0.778462
H38   H     H_    0.217065 0.177621 0.227917 0.281056
H39   H     H_    0.272184 0.122175 0.200758 0.201166
H40   H     H_    0.243516 0.115814 0.261619 0.232986
O29   O     O_3   0.694124 0.329760 0.938989 -0.553560
C77   C     C_3   0.636827 0.321222 0.864047 0.167861
H41   H     H_    0.599240 0.352305 0.875878 0.185996
H42   H     H_    0.602712 0.262631 0.811772 0.151020
C78   C     C_3   0.671747 0.353179 0.836591 -0.834297
H43   H     H_    0.709250 0.322493 0.824101 0.239688
H44   H     H_    0.627404 0.347864 0.778556 0.207157
H45   H     H_    0.704511 0.412682 0.886280 0.273250
Br3   Br    Br    0.434224 0.777182 0.103465 -0.391265
Br4   Br    Br    0.245944 0.580574 0.912744 -0.475497
Br5   Br    Br    0.333886 0.680001 0.902412 -0.300583
O30   O     O_3   0.176461 0.827528 0.931893 -0.610262
C79   C     C_3   0.128440 0.802267 0.846666 0.115922
H46   H     H_    0.078856 0.755865 0.814711 0.217708
H47   H     H_    0.154738 0.783106 0.811623 0.160529
C80   C     C_3   0.101029 0.864867 0.841675 -0.759868
H48   H     H_    0.149055 0.913140 0.874083 0.222921
H49   H     H_    0.063141 0.845924 0.775290 0.244592
H50   H     H_    0.070180 0.882173 0.871627 0.266497
O31   O     O_3   0.175762 0.786551 0.087253 -0.541570
C81   C     C_3   0.173257 0.855988 0.098919 0.155746
H51   H     H_    0.154666 0.854374 0.041928 0.224113
H52   H     H_    0.228381 0.898967 0.152075 0.126135
C82   C     C_3   0.117930 0.879134 0.121664 -0.769221
H53   H     H_    0.136270 0.884624 0.180817 0.260981
H54   H     H_    0.114520 0.933339 0.130128 0.196640
H55   H     H_    0.061776 0.837051 0.071326 0.253564
O32   O     O_3   0.097507 0.727802 0.920559 -0.542480
C83   C     C_3   0.033337 0.680674 0.895829 0.082606
H56   H     H_    0.042619 0.679106 0.948860 0.185350
H57   H     H_    0.018221 0.623529 0.842434 0.146679
C84   C     C_3   0.968250 0.709718 0.867281 -0.720667
H58   H     H_    0.956639 0.709603 0.812757 0.276470
H59   H     H_    0.917670 0.673779 0.848871 0.209430
H60   H     H_    0.981597 0.767185 0.918496 0.246854
O33   O     O_3   0.277107 0.804158 0.919592 -0.577301
C85   C     C_3   0.300879 0.877314 0.942380 0.059700
H61   H     H_    0.296446 0.920691 0.992991 0.143621
H62   H     H_    0.266344 0.879369 0.886787 0.164602
C86   C     C_3   0.381586 0.896546 0.970068 -0.704166
H63   H     H_    0.386738 0.855939 0.918936 0.279360
H64   H     H_    0.400211 0.952902 0.985939 0.191536
H65   H     H_    0.418146 0.895349 0.025925 0.264487
O34   O     O_3   0.634895 0.867565 0.605069 -0.574366
C87   C     C_3   0.678984 0.851489 0.572665 0.150471
H66   H     H_    0.647773 0.838832 0.508303 0.162229
H67   H     H_    0.697715 0.803545 0.571029 0.203363
C88   C     C_3   0.747912 0.918459 0.628336 -0.750677
H68   H     H_    0.782649 0.929655 0.691765 0.250227
H69   H     H_    0.781523 0.907478 0.601712 0.211367
H70   H     H_    0.731246 0.967928 0.632876 0.250836
Br6   Br    Br    0.657240 0.753142 0.648304 -0.510652
Br7   Br    Br    0.290026 0.590412 0.336127 -0.330788
O35   O     O_3   0.363351 0.699410 0.505346 -0.581864
C89   C     C_3   0.421295 0.762004 0.585364 -0.011091
H71   H     H_    0.455814 0.798717 0.584902 0.125564
H72   H     H_    0.459550 0.742086 0.622482 0.199399
C90   C     C_3   0.388248 0.809787 0.630830 -0.692536
H73   H     H_    0.362974 0.779694 0.645475 0.275912
H74   H     H_    0.432930 0.861134 0.690514 0.196401
H75   H     H_    0.345091 0.825323 0.591723 0.255992
Br8   Br    Br    0.291744 0.731302 0.316190 -0.392797
Br9   Br    Br    0.661023 0.626851 0.458692 -0.524482
Br10  Br    Br    0.904662 0.714391 0.660418 -0.570881
O36   O     O_3   0.115318 0.376861 0.365906 -0.563183
C91   C     C_3   0.118222 0.317868 0.376683 0.077245
H76   H     H_    0.126530 0.335502 0.436975 0.155676
H77   H     H_    0.164213 0.296303 0.375314 0.200526
C92   C     C_3   0.045017 0.254756 0.306203 -0.696522
H78   H     H_    0.037702 0.232571 0.245581 0.247573
H79   H     H_    0.045388 0.209456 0.316048 0.206812
H80   H     H_    0.997536 0.274750 0.304376 0.268076
Br11  Br    Br    0.231934 0.357900 0.326425 -0.446906
Br12  Br    Br    0.434577 0.667044 0.731163 -0.462523
Br13  Br    Br    0.216869 0.674766 0.555743 -0.453966
O37   O     O_3   0.837133 0.376984 0.056701 -0.568876
C93   C     C_3   0.900664 0.438102 0.130955 0.153847
H81   H     H_    0.946118 0.440784 0.121711 0.197796
H82   H     H_    0.921627 0.435189 0.185858 0.159877
C94   C     C_3   0.880565 0.509129 0.149930 -0.768935
H83   H     H_    0.835862 0.508270 0.160554 0.247004
H84   H     H_    0.930376 0.557674 0.206944 0.222292
H85   H     H_    0.860656 0.514586 0.096743 0.262415
O38   O     O_3   0.914434 0.307943 0.083567 -0.625303
C95   C     C_3   0.930417 0.249470 0.092555 0.025498
H86   H     H_    0.887321 0.195436 0.038121 0.228973
H87   H     H_    0.939013 0.262846 0.151507 0.217133
C96   C     C_3   0.003486 0.243720 0.100630 -0.706984
H88   H     H_    0.049430 0.296205 0.156331 0.291692
H89   H     H_    0.017096 0.197525 0.107620 0.207558
H90   H     H_    0.998543 0.232816 0.043936 0.247712
O39   O     O_3   0.757852 0.111605 0.927611 -0.556530
C97   C     C_3   0.711936 0.036675 0.869073 0.105931
H91   H     H_    0.660309 0.029316 0.813866 0.135538
H92   H     H_    0.696569 0.016904 0.898922 0.174140
C98   C     C_3   0.754534 0.989647 0.838705 -0.685080
H93   H     H_    0.805472 0.994033 0.892020 0.251277
H94   H     H_    0.718727 0.930733 0.791795 0.249704
H95   H     H_    0.770970 0.009100 0.809437 0.242263

loop_
_geom_bond_atom_site_label_1
_geom_bond_atom_site_label_2
_geom_bond_distance
_ccdc_geom_bond_type
C12   H5    1.112521 S    
O20   C50   1.287010 A    
C23   O27   1.420231 S    
C56   H16   1.082780 S    
C59   Br9   1.948632 S    
C87   C88   1.520206 S    
O12   C46   1.299574 A    
C21   C50   1.448498 S    
C63   C64   1.411094 A    
C11   C14   1.475736 S    
C39   O34   1.384059 S    
C27   Br4   1.965145 S    
O26   C71   1.419010 S    
C66   C67   1.491013 S    
C70   H23   1.110942 S    
C96   H90   1.110745 S    
C81   H51   1.105990 S    
O39   C97   1.413620 S    
Cu1   O7    1.943063 S    
C59   H17   1.107932 S    
C79   H46   1.109602 S    
C59   C60   1.519951 S    
O30   C79   1.418886 S    
C32   O33   1.429621 S    
Cu4   O14   1.972808 S    
C71   H26   1.110471 S    
C93   C94   1.519997 S    
C74   H34   1.109606 S    
O28   C75   1.419636 S    
C22   C23   1.521683 S    
C43   O35   1.432418 S    
O7    C4    1.298131 A    
C13   O39   1.424748 S    
C70   H24   1.110645 S    
C87   H66   1.114265 S    
C67   C68   1.525165 S    
C75   C76   1.522158 S    
C95   H87   1.107179 S    
C83   H56   1.113231 S    
O19   C50   1.277464 A    
C35   C36   1.205611 T    
C85   H62   1.110029 S    
C18   C19   1.424106 A    
C87   H67   1.112121 S    
O5    C3    1.300646 A    
C62   C63   1.409022 A    
O37   C93   1.416846 S    
C27   Br5   1.970408 S    
C61   C68   1.494380 S    
O20   Cu6   1.976154 S    
Cu6   O22   1.974346 S    
C90   H73   1.106923 S    
C5    C9    1.610450 S    
C7    O37   1.433682 S    
C19   C20   1.414352 A    
C37   C44   1.495281 S    
C84   H59   1.110365 S    
C88   H68   1.110074 S    
C67   H19   1.106110 S    
C89   C90   1.521761 S    
C10   C11   1.572327 S    
Cu6   O24   1.976755 S    
O10   C45   1.294251 A    
Cu5   O21   1.970611 S    
C77   H42   1.109474 S    
C49   C57   1.449159 S    
C98   H95   1.110193 S    
Cu2   O8    1.939422 S    
C71   C72   1.524836 S    
C5    C10   1.576180 S    
C82   H54   1.110675 S    
C43   C44   1.536417 S    
C8    C14   1.206654 T    
C79   H47   1.110565 S    
C9    C15   1.475116 S    
C97   H91   1.113194 S    
C40   C41   1.415191 A    
C78   H43   1.110167 S    
C76   H39   1.110491 S    
C85   H61   1.113498 S    
C74   H33   1.110577 S    
O18   Cu6   1.970613 S    
O11   Cu3   1.941782 S    
C20   Br2   1.921680 S    
C25   O31   1.428419 S    
C96   H89   1.110468 S    
C58   C59   1.499450 S    
C98   H94   1.110268 S    
C53   C54   1.393181 A    
C75   H37   1.109314 S    
C33   H13   1.109571 S    
C80   H50   1.110827 S    
O17   Cu5   1.974347 S    
C45   C54   1.448752 S    
C17   C24   1.487773 S    
O9    C45   1.298345 A    
C40   Br6   1.926949 S    
C68   Br13  1.947315 S    
C89   H71   1.104713 S    
C7    C11   1.612270 S    
C86   H65   1.110191 S    
C80   H48   1.110270 S    
Cu1   Cu2   2.689162 S    
O18   C49   1.281296 A    
C41   C52   1.453700 S    
C77   C78   1.520263 S    
O11   C46   1.299394 A    
O38   C95   1.401988 S    
C95   C96   1.520815 S    
C83   H57   1.113730 S    
Cu5   Cu6   2.645410 S    
C23   C24   1.538041 S    
C43   Br7   1.946669 S    
O35   C89   1.424637 S    
C6    C7    1.570864 S    
C70   H25   1.110843 S    
C1    C18   1.457152 S    
O3    Cu1   1.939424 S    
C12   C13   1.552271 S    
C32   C33   1.573447 S    
H9    C30   1.116626 S    
O19   Cu5   1.976755 S    
C94   H85   1.110765 S    
C29   C35   1.477307 S    
H1    C10   1.113335 S    
O33   C85   1.420877 S    
O1    C1    1.301048 A    
C86   H64   1.110416 S    
C28   C48   1.432794 S    
C21   C22   1.397946 A    
C85   C86   1.521379 S    
Cu3   Cu4   2.694352 S    
C93   H81   1.111841 S    
O15   C48   1.298352 A    
C92   H78   1.109385 S    
C91   H77   1.112808 S    
C55   H15   1.083261 S    
O13   C47   1.295883 A    
C6    H3    1.113593 S    
C23   O28   1.427091 S    
C39   C40   1.409084 A    
C94   H84   1.110466 S    
C17   C18   1.384350 A    
O23   C52   1.276262 A    
C25   C29   1.573677 S    
C29   C33   1.555549 S    
C31   C32   1.597348 S    
C11   C12   1.577534 S    
C44   H14   1.110286 S    
O24   C52   1.288961 A    
Cu3   O13   1.972851 S    
C77   H41   1.111381 S    
C65   C66   1.394636 A    
C81   H52   1.108991 S    
C73   H32   1.112218 S    
C61   C66   1.372107 A    
C67   Br12  1.940332 S    
C84   H60   1.109730 S    
C53   C60   1.489643 S    
Cu2   O6    1.976889 S    
C24   H7    1.112188 S    
C55   C56   1.399410 A    
O8    C4    1.296701 A    
C37   C42   1.386876 A    
C42   C43   1.509815 S    
C78   H45   1.110591 S    
C90   H74   1.110623 S    
C97   H92   1.112899 S    
O10   Cu4   1.972850 S    
O12   Cu4   1.940768 S    
C76   H40   1.110108 S    
O3    C2    1.297658 A    
Cu3   O15   1.940766 S    
C26   Br3   1.969548 S    
O9    Cu3   1.972806 S    
C30   O32   1.420545 S    
C73   C74   1.520434 S    
C57   C58   1.397487 A    
C98   H93   1.110615 S    
C69   H22   1.109915 S    
C91   C92   1.520334 S    
C75   H36   1.110491 S    
C33   H12   1.107084 S    
C7    O38   1.436043 S    
C26   C29   1.562478 S    
Cu1   O5    1.976643 S    
C4    C36   1.433807 S    
C15   C16   1.205889 T    
C6    C9    1.569911 S    
C64   Br11  1.931912 S    
C83   C84   1.520164 S    
O17   C49   1.282112 A    
O1    Cu1   1.976886 S    
O2    Cu2   1.976643 S    
C26   C27   1.579832 S    
Cu4   O16   1.941781 S    
O34   C87   1.414232 S    
O6    C3    1.287729 A    
O4    Cu2   1.943065 S    
C78   H44   1.110768 S    
O25   C69   1.407441 S    
C69   C70   1.520524 S    
C32   O30   1.434078 S    
C13   H4    1.107824 S    
C79   C80   1.520500 S    
C74   H35   1.110278 S    
C92   H80   1.110648 S    
C90   H75   1.110348 S    
C60   Br10  1.939939 S    
O27   C73   1.407703 S    
C17   C22   1.365794 A    
C27   C31   1.593022 S    
C56   C57   1.404172 A    
C88   H70   1.110887 S    
C92   H79   1.110335 S    
C10   H6    1.110781 S    
C82   H55   1.109808 S    
C82   H53   1.110819 S    
O2    C1    1.291288 A    
C12   Br1   1.960544 S    
C30   C31   1.573503 S    
C93   H82   1.109143 S    
C28   C34   1.205639 T    
C76   H38   1.110737 S    
C86   H63   1.110836 S    
C96   H88   1.111079 S    
C31   C34   1.479557 S    
O14   C47   1.290944 A    
C25   C30   1.562947 S    
C91   H76   1.112728 S    
O4    C2    1.297267 A    
C60   H18   1.111973 S    
C20   C21   1.413773 A    
C51   C65   1.457826 S    
C6    H2    1.109293 S    
C8    C46   1.435268 S    
C41   C42   1.393610 A    
C80   H49   1.110375 S    
C72   H30   1.110425 S    
C81   C82   1.520514 S    
O16   C48   1.299405 A    
C5    O25   1.438821 S    
C72   H28   1.110116 S    
C64   C65   1.425432 A    
O22   C51   1.276764 A    
Cu5   O23   1.976153 S    
C38   C39   1.414348 A    
C95   H86   1.103388 S    
C5    O29   1.433338 S    
C53   C58   1.383415 A    
O36   C91   1.414757 S    
C73   H31   1.104839 S    
O21   C51   1.290269 A    
O31   C81   1.411249 S    
C2    C16   1.433744 S    
C3    C38   1.449560 S    
C47   C62   1.439016 S    
C72   H29   1.110161 S    
C54   C55   1.405676 A    
C9    C13   1.573870 S    
C97   C98   1.519412 S    
C19   O26   1.385307 S    
C89   H72   1.110625 S    
C24   H8    1.109587 S    
C69   H21   1.106278 S    
C37   C38   1.393554 A    
C44   Br8   1.947639 S    
C84   H58   1.109443 S    
C63   O36   1.384191 S    
O29   C77   1.418031 S    
C61   C62   1.387910 A    
C25   H10   1.114039 S    
C88   H69   1.110421 S    
O32   C83   1.412392 S    
C26   H11   1.112068 S    
C94   H83   1.110635 S    
C71   H27   1.115984 S    
C68   H20   1.111430 S    
