data_mof_unit_9564.cif
_audit_creation_date              2012-12-10T17:27:02-0500
_audit_creation_method            fapswitch 2.2
_symmetry_space_group_name_H-M    P1
_symmetry_Int_Tables_number       1
_space_group_crystal_system       triclinic
_cell_length_a                    18.078485
_cell_length_b                    18.118954
_cell_length_c                    12.175892
_cell_angle_alpha                 89.958738
_cell_angle_beta                  91.146118
_cell_angle_gamma                 90.024412
_cell_volume                      3987.57530815

loop_
_atom_site_label
_atom_site_type_symbol
_atom_type_description
_atom_site_fract_x
_atom_site_fract_y
_atom_site_fract_z
_atom_type_partial_charge
C1    C     C_R   0.409218 0.108492 0.518641 0.940047
C2    C     C_R   0.593247 0.893338 0.482437 0.972244
C3    C     C_R   0.590729 0.108554 0.481316 0.940461
C4    C     C_R   0.406805 0.893272 0.517680 0.972117
C5    C     C_R   0.909218 0.608492 0.518641 0.940047
C6    C     C_R   0.093247 0.393338 0.482437 0.972243
C7    C     C_R   0.090729 0.608554 0.481316 0.940461
C8    C     C_R   0.906805 0.393272 0.517680 0.972116
C9    C     C_R   0.464904 0.988465 0.974375 -0.273119
C10   C     C_R   0.535273 0.988610 0.025691 -0.272955
C11   C     C_R   0.964903 0.488465 0.974375 -0.273120
C12   C     C_R   0.035273 0.488610 0.025691 -0.272957
C13   C     C_R   0.588657 0.992359 0.841515 0.389978
C14   C     C_R   0.411405 0.991809 0.158442 0.389720
C15   C     C_R   0.088657 0.492359 0.841515 0.389978
C16   C     C_R   0.911405 0.491810 0.158442 0.389720
C17   C     C_R   0.596062 0.976962 0.956430 0.324016
C18   C     C_R   0.404174 0.976376 0.043549 0.327001
C19   C     C_R   0.096062 0.476962 0.956430 0.324017
C20   C     C_R   0.904174 0.476376 0.043549 0.326999
C21   C     C_R   0.458122 0.996197 0.855956 0.563802
C22   C     C_R   0.541948 0.996334 0.144136 0.560937
C23   C     C_R   0.958122 0.496197 0.855956 0.563802
C24   C     C_R   0.041948 0.496333 0.144136 0.560940
C25   C     C_R   0.630258 0.179516 0.470688 -0.350067
C26   C     C_R   0.358942 0.828632 0.524102 -0.316189
C27   C     C_R   0.369544 0.179284 0.529197 -0.370206
C28   C     C_R   0.641017 0.828684 0.476400 -0.323565
C29   C     C_R   0.130258 0.679516 0.470688 -0.350065
C30   C     C_R   0.858942 0.328632 0.524102 -0.316191
C31   C     C_R   0.869544 0.679284 0.529197 -0.370206
C32   C     C_R   0.141016 0.328683 0.476400 -0.323567
C33   C     C_R   0.283644 0.754149 0.641920 0.395202
C34   C     C_R   0.694221 0.271717 0.364525 0.401142
C35   C     C_R   0.715184 0.752996 0.358985 0.402258
C36   C     C_R   0.306191 0.271907 0.635109 0.412835
C37   C     C_R   0.783644 0.254149 0.641920 0.395202
C38   C     C_R   0.194222 0.771717 0.364524 0.401139
C39   C     C_R   0.215183 0.252995 0.358985 0.402261
C40   C     C_R   0.806191 0.771907 0.635109 0.412836
C41   C     C_R   0.351153 0.789854 0.623172 0.296949
C42   C     C_R   0.637327 0.219165 0.369412 0.222008
C43   C     C_R   0.648114 0.789294 0.377874 0.315941
C44   C     C_R   0.362884 0.219171 0.630296 0.318325
C45   C     C_R   0.851153 0.289854 0.623172 0.296951
C46   C     C_R   0.137327 0.719165 0.369412 0.222007
C47   C     C_R   0.148113 0.289294 0.377874 0.315944
C48   C     C_R   0.862884 0.719171 0.630296 0.318325
C49   C     C_R   0.315509 0.809393 0.433038 0.454164
C50   C     C_R   0.664629 0.209536 0.564954 0.467341
C51   C     C_R   0.684724 0.809700 0.567353 0.453043
C52   C     C_R   0.334469 0.208756 0.435057 0.462501
C53   C     C_R   0.815509 0.309394 0.433038 0.454165
C54   C     C_R   0.164629 0.709536 0.564953 0.467341
C55   C     C_R   0.184724 0.309700 0.567353 0.453045
C56   C     C_R   0.834469 0.708757 0.435057 0.462501
C57   C     C_R   0.248141 0.774572 0.448922 -0.197996
C58   C     C_R   0.731571 0.246685 0.553770 -0.192202
C59   C     C_R   0.751845 0.774513 0.551264 -0.216388
C60   C     C_R   0.267686 0.245928 0.446644 -0.199878
C61   C     C_R   0.748141 0.274573 0.448922 -0.197996
C62   C     C_R   0.231571 0.746685 0.553770 -0.192202
C63   C     C_R   0.251844 0.274513 0.551263 -0.216388
C64   C     C_R   0.767687 0.745929 0.446644 -0.199879
N1    N     N_R   0.480750 1.000000 0.209750 -0.194357
N2    N     N_R   0.519250 1.000000 0.790250 -0.193943
N3    N     N_R   0.980750 0.500000 0.209750 -0.194356
N4    N     N_R   0.019250 0.500000 0.790250 -0.193943
O1    O     O_R   0.418020 0.076820 0.422210 -0.542224
O2    O     O_R   0.581980 0.923180 0.577790 -0.555061
O3    O     O_R   0.581980 0.076820 0.577790 -0.542473
O4    O     O_R   0.418020 0.923180 0.422210 -0.553962
O5    O     O_R   0.918020 0.576820 0.422210 -0.542224
O6    O     O_R   0.081980 0.423180 0.577790 -0.555061
O7    O     O_R   0.081980 0.576820 0.577790 -0.542473
O8    O     O_R   0.918020 0.423180 0.422210 -0.553962
O9    O     O_R   0.430370 0.076830 0.608590 -0.552276
O10   O     O_R   0.569630 0.923170 0.391410 -0.571552
O11   O     O_R   0.569630 0.076830 0.391410 -0.552605
O12   O     O_R   0.430370 0.923170 0.608590 -0.571249
O13   O     O_R   0.930370 0.576830 0.608590 -0.552276
O14   O     O_R   0.069630 0.423170 0.391410 -0.571550
O15   O     O_R   0.069630 0.576830 0.391410 -0.552605
O16   O     O_R   0.930370 0.423170 0.608590 -0.571249
Zn1   Zn    Zn3+2 0.491750 0.000000 0.375560 1.173722
Zn2   Zn    Zn3+2 0.508250 1.000000 0.624440 1.174612
Zn3   Zn    Zn3+2 0.991750 0.500000 0.375560 1.173723
Zn4   Zn    Zn3+2 0.008250 0.500000 0.624440 1.174613
S1    S     S_3+6 0.329773 0.024301 0.221926 0.170552
O17   O     O_2   0.312096 0.983871 0.325385 -0.242213
O18   O     O_2   0.343561 0.103607 0.247028 -0.215412
O19   O     O_3   0.253955 0.021661 0.140239 -0.411162
H1    H     H_    0.214224 0.044139 0.183988 0.418483
S2    S     S_3+6 0.669958 0.025597 0.777837 0.167881
O20   O     O_2   0.687635 0.985378 0.674274 -0.241237
O21   O     O_2   0.655557 0.104865 0.752903 -0.219876
O22   O     O_3   0.745963 0.023403 0.859181 -0.415505
H2    H     H_    0.785361 0.046567 0.815463 0.418416
S3    S     S_3+6 0.829773 0.524302 0.221926 0.170550
O23   O     O_2   0.812097 0.483872 0.325385 -0.242213
O24   O     O_2   0.843562 0.603608 0.247028 -0.215413
O25   O     O_3   0.753954 0.521662 0.140239 -0.411162
H3    H     H_    0.714224 0.544141 0.183988 0.418482
S4    S     S_3+6 0.169958 0.525597 0.777837 0.167881
O26   O     O_2   0.187634 0.485379 0.674274 -0.241237
O27   O     O_2   0.155557 0.604865 0.752903 -0.219876
O28   O     O_3   0.245963 0.523403 0.859181 -0.415504
H4    H     H_    0.285361 0.546567 0.815463 0.418416
Cl1   Cl    Cl    0.628460 0.013351 0.207494 -0.388058
Cl2   Cl    Cl    0.371532 0.013268 0.792817 -0.382961
Cl3   Cl    Cl    0.128460 0.513351 0.207494 -0.388058
Cl4   Cl    Cl    0.871532 0.513267 0.792817 -0.382960
Cl5   Cl    Cl    0.606150 0.243044 0.666776 -0.370081
Cl6   Cl    Cl    0.356345 0.806693 0.302348 -0.378556
Cl7   Cl    Cl    0.391898 0.241627 0.331506 -0.404792
Cl8   Cl    Cl    0.644287 0.807416 0.698357 -0.359089
Cl9   Cl    Cl    0.106150 0.743044 0.666776 -0.370082
Cl10  Cl    Cl    0.856344 0.306694 0.302347 -0.378555
Cl11  Cl    Cl    0.891899 0.741628 0.331507 -0.404786
Cl12  Cl    Cl    0.144287 0.307417 0.698357 -0.359092
S5    S     S_3+6 0.578666 0.211240 0.248560 0.163152
O29   O     O_2   0.626471 0.188855 0.154695 -0.164351
O30   O     O_2   0.515566 0.158012 0.255012 -0.213817
O31   O     O_3   0.541892 0.294218 0.217833 -0.392420
H5    H     H_    0.528939 0.316107 0.289443 0.381330
S6    S     S_3+6 0.433132 0.765364 0.699066 0.154088
O32   O     O_2   0.492226 0.747732 0.618289 -0.208716
O33   O     O_2   0.460048 0.828298 0.769362 -0.243927
O34   O     O_3   0.421305 0.690204 0.778198 -0.443161
H6    H     H_    0.425040 0.708022 0.855016 0.412013
S7    S     S_3+6 0.421424 0.211220 0.751242 0.151370
O35   O     O_2   0.373320 0.190241 0.845621 -0.207003
O36   O     O_2   0.483936 0.157287 0.745647 -0.227556
O37   O     O_3   0.459251 0.294221 0.778728 -0.418051
H7    H     H_    0.479364 0.290212 0.854783 0.425523
S8    S     S_3+6 0.565803 0.765343 0.302671 0.144207
O38   O     O_2   0.506410 0.750433 0.384235 -0.252544
O39   O     O_2   0.540897 0.827431 0.229216 -0.225210
O40   O     O_3   0.576524 0.688847 0.226493 -0.449548
H8    H     H_    0.527438 0.680070 0.191285 0.410104
S9    S     S_3+6 0.078667 0.711239 0.248559 0.163153
O41   O     O_2   0.126472 0.688853 0.154696 -0.164352
O42   O     O_2   0.015565 0.658012 0.255012 -0.213814
O43   O     O_3   0.041893 0.794218 0.217832 -0.392422
H9    H     H_    0.028943 0.816109 0.289440 0.381333
S10   S     S_3+6 0.933132 0.265364 0.699066 0.154086
O44   O     O_2   0.992226 0.247733 0.618289 -0.208718
O45   O     O_2   0.960047 0.328298 0.769363 -0.243930
O46   O     O_3   0.921306 0.190204 0.778197 -0.443162
H10   H     H_    0.925041 0.208021 0.855015 0.412010
S11   S     S_3+6 0.921424 0.711219 0.751242 0.151370
O47   O     O_2   0.873320 0.690241 0.845621 -0.207002
O48   O     O_2   0.983936 0.657287 0.745647 -0.227558
O49   O     O_3   0.959251 0.794220 0.778728 -0.418050
H11   H     H_    0.979366 0.790210 0.854783 0.425523
S12   S     S_3+6 0.065802 0.265343 0.302671 0.144207
O50   O     O_2   0.006408 0.250435 0.384235 -0.252519
O51   O     O_2   0.040898 0.327432 0.229215 -0.225236
O52   O     O_3   0.076522 0.188847 0.226495 -0.449546
H12   H     H_    0.027445 0.180089 0.191247 0.410105
Cl13  Cl    Cl    0.765625 0.221190 0.775160 -0.369089
Cl14  Cl    Cl    0.190187 0.843787 0.266469 -0.372879
Cl15  Cl    Cl    0.231950 0.218576 0.226200 -0.321222
Cl16  Cl    Cl    0.811056 0.844458 0.732187 -0.346238
Cl17  Cl    Cl    0.265624 0.721191 0.775160 -0.369090
Cl18  Cl    Cl    0.690186 0.343788 0.266470 -0.372876
Cl19  Cl    Cl    0.731951 0.718578 0.226199 -0.321213
Cl20  Cl    Cl    0.311057 0.344459 0.732186 -0.346240
S13   S     S_3+6 0.670637 0.919283 0.003860 0.183558
O53   O     O_2   0.733325 0.964098 0.051947 -0.133323
O54   O     O_2   0.643752 0.866904 0.089761 -0.217088
O55   O     O_3   0.703035 0.868957 0.900679 -0.411484
H13   H     H_    0.729953 0.827555 0.936583 0.429815
S14   S     S_3+6 0.330196 0.917976 0.995976 0.178044
O56   O     O_2   0.266986 0.962149 0.948092 -0.122583
O57   O     O_2   0.357604 0.866177 0.909847 -0.244435
O58   O     O_3   0.298480 0.866921 0.098941 -0.411888
H14   H     H_    0.272186 0.825188 0.062908 0.428840
S15   S     S_3+6 0.170637 0.419284 0.003860 0.183555
O59   O     O_2   0.233325 0.464099 0.051947 -0.133323
O60   O     O_2   0.143753 0.366905 0.089760 -0.217096
O61   O     O_3   0.203036 0.368958 0.900679 -0.411484
H15   H     H_    0.229953 0.327555 0.936583 0.429814
S16   S     S_3+6 0.830195 0.417977 0.995976 0.178043
O62   O     O_2   0.766986 0.462151 0.948092 -0.122582
O63   O     O_2   0.857603 0.366177 0.909848 -0.244435
O64   O     O_3   0.798478 0.366922 0.098942 -0.411888
H16   H     H_    0.772185 0.325189 0.062909 0.428839

loop_
_geom_bond_atom_site_label_1
_geom_bond_atom_site_label_2
_ccdc_geom_bond_type
C7    O15   A    
S6    O32   D    
C7    C29   S    
C21   N2    A    
C1    O9    A    
S13   O53   D    
C14   C18   A    
C30   C45   A    
C6    C32   S    
N1    Zn1   S    
C34   C42   A    
O4    Zn1   S    
S7    O37   S    
C3    O11   A    
S4    O27   D    
C21   Cl2   S    
O46   H10   S    
C57   C62   A    
C14   S1    S    
C10   C22   A    
C44   S7    S    
C15   C19   A    
C23   Cl4   S    
C59   C64   A    
C60   C63   A    
C6    O14   A    
C39   C47   A    
S12   O50   D    
C40   Cl16  S    
O3    Zn2   S    
S9    O42   D    
C27   C52   A    
C28   C51   A    
C17   S13   S    
C47   S12   S    
C39   C60   A    
C10   C17   A    
O14   Zn3   S    
C38   C57   A    
O22   H2    S    
C8    O8    A    
C49   C57   A    
S16   O62   D    
S11   O49   S    
S14   O56   D    
O5    Zn3   S    
S5    O31   S    
O12   Zn2   S    
C52   C60   A    
C24   N3    A    
O25   H3    S    
C25   C50   A    
C53   C61   A    
C27   C44   A    
S3    O23   D    
C33   C62   A    
C55   C63   A    
C35   Cl19  S    
S11   O47   D    
C56   C64   A    
C35   C64   A    
C15   S4    S    
S1    O18   D    
C36   C63   A    
C35   C43   A    
C9    C10   A    
C32   C55   A    
C37   C58   A    
C20   S16   S    
S15   O61   S    
C58   C61   A    
C13   N2    A    
C49   Cl6   S    
C40   C59   A    
S15   O60   D    
S13   O54   D    
S2    O20   D    
C24   Cl3   S    
S8    O40   S    
S4    O26   D    
C6    O6    A    
C46   S9    S    
S10   O45   D    
C55   Cl12  S    
C30   C53   A    
C11   C20   A    
S5    O30   D    
C45   S10   S    
C50   C58   A    
C3    C25   S    
S8    O39   D    
C26   C49   A    
C53   Cl10  S    
O43   H9    S    
C7    O7    A    
C54   C62   A    
S2    O22   S    
C36   Cl20  S    
C1    O1    A    
C23   N4    A    
C3    O3    A    
C22   N1    A    
C2    O10   A    
S10   O46   S    
C5    O13   A    
C9    C18   A    
O52   H12   S    
S14   O58   S    
C16   C20   A    
C22   Cl1   S    
C4    O4    A    
S5    O29   D    
C13   S2    S    
C16   N3    A    
S1    O19   S    
S2    O21   D    
O8    Zn3   S    
O15   Zn3   S    
O49   H11   S    
C18   S14   S    
O10   Zn1   S    
S3    O24   D    
O9    Zn2   S    
C31   C48   A    
C31   C56   A    
C32   C47   A    
S9    O43   S    
C51   C59   A    
O28   H4    S    
C39   Cl15  S    
S7    O35   D    
O2    Zn2   S    
C19   S15   S    
O11   Zn1   S    
O1    Zn1   S    
O55   H13   S    
C37   Cl13  S    
S10   O44   D    
C52   Cl7   S    
C40   C48   A    
S6    O33   D    
C8    O16   A    
C41   S6    S    
S12   O52   S    
C33   Cl17  S    
O16   Zn4   S    
S8    O38   D    
S7    O36   D    
C25   C42   A    
N2    Zn2   S    
C4    C26   S    
O40   H8    S    
C16   S3    S    
C4    O12   A    
O37   H7    S    
C12   C24   A    
C28   C43   A    
N3    Zn3   S    
C51   Cl8   S    
S6    O34   S    
S16   O64   S    
C13   C17   A    
C29   C46   A    
C50   Cl5   S    
C8    C30   S    
S12   O51   D    
O34   H6    S    
C33   C41   A    
O64   H16   S    
C2    O2    A    
S9    O41   D    
C9    C21   A    
C42   S5    S    
C48   S11   S    
N4    Zn4   S    
C15   N4    A    
C12   C19   A    
C11   C23   A    
O19   H1    S    
C56   Cl11  S    
C14   N1    A    
S16   O63   D    
S11   O48   D    
C5    O5    A    
C43   S8    S    
S14   O57   D    
C38   C46   A    
O13   Zn4   S    
C36   C44   A    
C29   C54   A    
S15   O59   D    
O7    Zn4   S    
C38   Cl14  S    
S3    O25   S    
C26   C41   A    
O58   H14   S    
C34   C61   A    
C54   Cl9   S    
C1    C27   S    
C2    C28   S    
S13   O55   S    
O6    Zn4   S    
S1    O17   D    
C34   Cl18  S    
C37   C45   A    
S4    O28   S    
O61   H15   S    
C11   C12   A    
O31   H5    S    
C5    C31   S    
