data_mof_unit_53034.cif
_audit_creation_date              2012-10-26T19:02:58-0400
_audit_creation_method            fapswitch 2.2
_symmetry_space_group_name_H-M    P1
_symmetry_Int_Tables_number       1
_space_group_crystal_system       triclinic
_cell_length_a                    15.011197
_cell_length_b                    10.900612
_cell_length_c                    9.79707
_cell_angle_alpha                 109.971057
_cell_angle_beta                  98.343126
_cell_angle_gamma                 90.640247
_cell_volume                      1487.57588901

loop_
_atom_site_label
_atom_site_type_symbol
_atom_type_description
_atom_site_fract_x
_atom_site_fract_y
_atom_site_fract_z
_atom_type_partial_charge
C1    C     C_R   0.490005 0.253752 0.442982 0.564479
C2    C     C_2   0.491129 0.491531 0.919751 -0.028798
C3    C     C_R   0.328904 0.499757 0.501096 0.539605
C4    C     C_R   0.670933 0.499517 0.498632 0.545044
C5    C     C_R   0.808551 0.585603 0.445123 -0.136107
C6    C     C_R   0.190167 0.409840 0.548979 -0.125945
C7    C     C_R   0.766922 0.497896 0.495528 -0.004448
C8    C     C_R   0.232527 0.500044 0.502712 -0.013579
C9    C     C_R   0.816592 0.409446 0.544401 -0.131760
C10   C     C_R   0.182558 0.587366 0.451971 -0.135276
C11   C     C_R   0.909074 0.406918 0.541948 -0.009543
C12   C     C_R   0.503078 0.745987 0.557397 0.540737
C13   C     C_R   0.089721 0.588064 0.450912 -0.019471
C14   C     C_R   0.952382 0.497092 0.494264 0.021736
C15   C     C_R   0.046098 0.496689 0.496239 0.016514
C16   C     C_R   0.901998 0.587943 0.445557 0.026331
C17   C     C_R   0.096246 0.404637 0.542779 0.048070
C18   C     C_R   0.958340 0.314335 0.584673 -0.120504
C19   C     C_R   0.040214 0.678723 0.404841 -0.094778
C20   C     C_3   0.106879 0.097267 0.482803 -0.329175
C21   C     C_3   0.890583 0.895088 0.470934 -0.322116
C22   C     C_3   0.366186 0.828964 0.237947 -0.286581
C23   C     C_R   0.051211 0.310069 0.581907 0.141315
C24   C     C_3   0.343211 0.138704 0.692158 -0.296981
C25   C     C_R   0.946915 0.679720 0.401458 0.141262
C26   C     C_2   0.476776 0.114116 0.417608 -0.098795
C27   C     C_2   0.498458 0.885290 0.583174 -0.118535
C28   C     C_2   0.448556 0.070764 0.518827 0.137221
C29   C     C_2   0.442400 0.929978 0.492455 0.122890
C30   C     C_2   0.507254 0.511235 0.081068 -0.030385
Cu1   Cu    Cu3+1 0.515770 0.521810 0.644910 0.941208
Cu2   Cu    Cu3+1 0.484230 0.478190 0.355090 0.924708
H1    H     H_    0.767392 0.653482 0.409932 0.107786
H2    H     H_    0.559714 0.582998 0.153027 0.145167
H3    H     H_    0.590427 0.619711 0.932651 0.201374
H4    H     H_    0.410997 0.378036 0.066719 0.201721
H5    H     H_    0.072501 0.178008 0.690431 0.247074
H6    H     H_    0.141369 0.019399 0.515012 0.137292
H7    H     H_    0.147557 0.127768 0.412382 0.158783
H8    H     H_    0.039451 0.056267 0.418342 0.156630
H9    H     H_    0.842001 0.738783 0.279550 0.246703
H10   H     H_    0.862331 0.967955 0.423229 0.139860
H11   H     H_    0.957143 0.935818 0.538973 0.154461
H12   H     H_    0.230688 0.342865 0.587067 0.141476
H13   H     H_    0.844204 0.877921 0.542178 0.139395
H14   H     H_    0.346890 0.769164 0.413143 0.262051
H15   H     H_    0.310467 0.755677 0.171388 0.139710
H16   H     H_    0.430926 0.791453 0.203527 0.154663
H17   H     H_    0.353301 0.920871 0.215697 0.144641
H18   H     H_    0.482503 0.169362 0.742006 0.244334
H19   H     H_    0.332411 0.219850 0.792585 0.124625
H20   H     H_    0.338230 0.044956 0.712817 0.145820
H21   H     H_    0.289998 0.137398 0.600600 0.176145
H22   H     H_    0.782703 0.341378 0.581997 0.108631
H23   H     H_    0.216202 0.655810 0.415031 0.100290
H24   H     H_    0.924196 0.242616 0.616599 0.098383
H25   H     H_    0.074070 0.749252 0.370765 0.122969
H26   H     H_    0.545353 0.952489 0.673622 0.067319
H27   H     H_    0.490175 0.045399 0.313777 0.061333
H28   H     H_    0.437205 0.422306 0.848516 0.166132
N1    N     N_2   0.460520 0.445420 0.137370 -0.351290
N2    N     N_2   0.539480 0.554580 0.862630 -0.353540
N3    N     N_2   0.097769 0.207323 0.613170 -0.541503
N4    N     N_2   0.900413 0.774456 0.353681 -0.526469
N5    N     N_2   0.367627 0.850411 0.392256 -0.513692
N6    N     N_2   0.430889 0.159337 0.656349 -0.501265
O1    O     O_R   0.508410 0.332340 0.577400 -0.462447
O2    O     O_R   0.491590 0.667660 0.422600 -0.491528
O3    O     O_R   0.481780 0.295500 0.332650 -0.494687
O4    O     O_R   0.518220 0.704500 0.667350 -0.489507
O5    O     O_R   0.383570 0.518390 0.622380 -0.493910
O6    O     O_R   0.616430 0.481610 0.377620 -0.496076
O7    O     O_R   0.356940 0.481550 0.377630 -0.495933
O8    O     O_R   0.643060 0.518450 0.622370 -0.491262

loop_
_geom_bond_atom_site_label_1
_geom_bond_atom_site_label_2
_ccdc_geom_bond_type
C18   C23   A    
C24   H20   S    
C3    O5    A    
C22   H16   S    
C5    C7    A    
C11   C18   A    
Cu2   O3    S    
C1    O1    A    
C24   N6    S    
C27   C29   D    
C12   O2    A    
C26   H27   S    
C28   N6    S    
Cu1   Cu2   S    
C18   H24   S    
C2    C30   S    
Cu1   O4    S    
C24   H19   S    
Cu1   O5    S    
C22   H15   S    
C20   H7    S    
C10   C13   A    
C22   N5    S    
C6    H12   S    
Cu2   O2    S    
C19   H25   S    
Cu1   O1    S    
C10   H23   S    
H18   N6    S    
Cu1   N2    S    
C9    C11   A    
C17   C23   A    
C2    H28   S    
C4    O8    A    
C20   N3    S    
C22   H17   S    
C29   N5    S    
C6    C8    A    
C23   N3    S    
C28   C29   S    
H5    N3    S    
Cu2   N1    S    
H3    N2    S    
C21   H13   S    
C13   C15   A    
C21   N4    S    
C1    C26   S    
C20   H8    S    
C11   C14   A    
C14   C16   A    
C30   H2    S    
C19   C25   A    
C27   H26   S    
H4    N1    S    
C7    C9    A    
C4    O6    A    
C20   H6    S    
H14   N5    S    
Cu2   O6    S    
C3    C8    S    
C30   N1    D    
C16   C25   A    
C15   C17   A    
C6    C17   A    
C13   C19   A    
C14   C15   A    
C5    C16   A    
C12   O4    A    
C9    H22   S    
C12   C27   S    
H9    N4    S    
C4    C7    S    
C24   H21   S    
C21   H11   S    
C3    O7    A    
C26   C28   D    
Cu2   O7    S    
C8    C10   A    
C1    O3    A    
C21   H10   S    
C2    N2    D    
Cu1   O8    S    
C25   N4    S    
C5    H1    S    
