data_mof_unit_21170.cif
_audit_creation_date              2013-03-05T16:12:47-0500
_audit_creation_method            fapswitch 2.2
_symmetry_space_group_name_H-M    P1
_symmetry_Int_Tables_number       1
_space_group_crystal_system       triclinic
_cell_length_a                    8.372822
_cell_length_b                    16.434911
_cell_length_c                    18.932457
_cell_angle_alpha                 112.285178
_cell_angle_beta                  91.676321
_cell_angle_gamma                 84.492733
_cell_volume                      2399.44089958

loop_
_atom_site_label
_atom_site_type_symbol
_atom_site_description
_atom_site_fract_x
_atom_site_fract_y
_atom_site_fract_z
_atom_type_partial_charge
P1    P     P_3+3 0.582960 0.413890 0.320860 0.590463
O1    O     O_2   0.402610 0.439360 0.314250 -0.320440
O2    O     O_3   0.648560 0.446300 0.404730 -0.339217
O3    O     O_3   0.108870 0.604000 0.387500 -0.388246
O4    O     O_2   0.249449 0.527101 0.251794 -0.314826
O5    O     O_3   0.605485 0.297093 0.271900 -0.619566
O6    O     O_3   0.134194 0.688018 0.284075 -0.510525
H1    H     H_    0.966089 0.753968 0.370512 0.136836
C1    C     C_3   0.034779 0.839546 0.317440 -0.787021
H2    H     H_    0.137853 0.862298 0.355702 0.266163
H3    H     H_    0.061447 0.837388 0.259655 0.281330
P2    P     P_3+3 0.071690 0.707860 0.593450 0.673844
P3    P     P_3+3 0.499124 0.767878 0.458384 0.596322
O7    O     O_2   0.241370 0.719440 0.573960 -0.380648
O8    O     O_3   0.507090 0.652150 0.432150 -0.320449
O9    O     O_2   0.369194 0.807956 0.520727 -0.320611
O10   O     O_3   0.062995 0.749680 0.693433 -0.547362
O11   O     O_3   0.416458 0.797829 0.383416 -0.575283
C2    C     C_3   0.532774 0.781966 0.325966 1.149064
C3    C     C_3   0.459800 0.801996 0.257810 -0.177446
H4    H     H_    0.343838 0.772521 0.241702 0.159699
C4    C     C_3   0.606812 0.738383 0.667877 0.933289
H5    H     H_    0.507179 0.723288 0.626715 -0.006339
C5    C     C_3   0.605289 0.838619 0.707962 -0.095006
H6    H     H_    0.638740 0.866263 0.665964 0.089290
H7    H     H_    0.482355 0.867407 0.729269 0.191631
Ba1   Ba    Ba6+2 0.333520 0.539550 0.472180 1.810094
C6    C     C_3   0.592923 0.240445 0.311250 1.116116
C7    C     C_3   0.746349 0.176410 0.296600 -0.225526
H8    H     H_    0.758661 0.148483 0.341826 0.145040
H9    H     H_    0.849429 0.212920 0.299538 0.140755
C8    C     C_3   0.154526 0.697417 0.725624 0.925786
H10   H     H_    0.273398 0.673876 0.697272 -0.056995
C9    C     C_3   0.177141 0.755745 0.809776 0.621777
H11   H     H_    0.058088 0.786999 0.835747 0.102131
P4    P     P_3+3 0.606720 0.586180 0.679160 0.622747
O12   O     O_2   0.787080 0.560670 0.685800 -0.258309
O13   O     O_3   0.541120 0.553770 0.595290 -0.306546
O14   O     O_3   0.080800 0.396070 0.612520 -0.266779
O15   O     O_3   0.590536 0.701464 0.722113 -0.584770
P5    P     P_3+3 0.694534 0.232537 0.545130 0.605301
O16   O     O_3   0.164600 0.390590 0.443970 -0.337772
O17   O     O_3   0.682580 0.347920 0.567870 -0.317583
O18   O     O_2   0.850356 0.191001 0.498171 -0.371817
O19   O     O_3   0.724661 0.211325 0.628833 -0.452759
Ba2   Ba    Ba6+2 0.856270 0.460520 0.527840 1.802212
P6    P     P_3+3 0.099030 0.587566 0.290647 0.517612
C10   C     C_3   0.999258 0.748485 0.312287 0.383387
H12   H     H_    0.898644 0.728367 0.271801 0.123310
H13   H     H_    0.929001 0.887768 0.340956 0.266423
O20   O     O_3   0.025080 0.609480 0.556050 -0.288290
C11   C     C_3   0.048333 0.320791 0.285366 0.356312
H14   H     H_    0.939385 0.353177 0.320605 0.026829
H15   H     H_    0.137171 0.369971 0.296645 0.145323
C12   C     C_3   0.000222 0.289050 0.201446 -0.706914
H16   H     H_    0.880194 0.264211 0.193954 0.241172
H17   H     H_    0.995185 0.344114 0.180946 0.203404
H18   H     H_    0.087563 0.235090 0.165447 0.332820
P7    P     P_3+3 0.125836 0.279046 0.400703 0.531485
O21   O     O_2   0.948320 0.280590 0.426090 -0.382271
O22   O     O_3   0.115795 0.248306 0.301749 -0.507413
H19   H     H_    0.541361 0.770169 0.207510 0.117442
C13   C     C_3   0.688783 0.289421 0.692921 0.245865
H20   H     H_    0.769039 0.340164 0.695576 0.062717
H21   H     H_    0.564274 0.317265 0.691754 0.121594
C14   C     C_3   0.708999 0.269457 0.765065 0.578407
H22   H     H_    0.690941 0.331493 0.816033 -0.066464
H23   H     H_    0.831332 0.238543 0.767438 0.086762
P8    P     P_3+3 0.095743 0.410304 0.708793 0.615442
C15   C     C_3   0.162827 0.241281 0.666667 0.840132
O23   O     O_2   0.951062 0.474548 0.750396 -0.352816
O24   O     O_3   0.055826 0.310229 0.714193 -0.670563
H24   H     H_    0.151869 0.234818 0.606099 0.048261
H25   H     H_    0.233759 0.109089 0.659965 0.170286
C16   C     C_3   0.124950 0.155567 0.672667 0.426328
H26   H     H_    0.086962 0.167162 0.731626 0.090079
C17   C     C_R   0.532126 0.445491 0.031019 -0.101717
C18   C     C_R   0.450766 0.404438 0.071803 0.234128
C19   C     C_R   0.379036 0.380890 0.910816 -0.062581
C20   C     C_R   0.485824 0.440508 0.956029 0.084768
C21   C     C_R   0.305189 0.390736 0.848026 0.075223
C22   C     C_R   0.357285 0.448749 0.817567 -0.129229
C23   C     C_R   0.491180 0.495540 0.851529 -0.005676
C24   C     C_R   0.552381 0.493807 0.922778 0.099255
C25   C     C_R   0.285628 0.458062 0.752137 0.205197
C26   C     C_R   0.362030 0.503463 0.715308 0.531812
C27   C     C_R   0.507092 0.539226 0.741046 -0.069677
C28   C     C_R   0.563653 0.543313 0.814285 -0.124112
C29   C     C_R   0.667332 0.490955 0.065767 0.016438
C30   C     C_R   0.722429 0.490990 0.138756 0.067568
C31   C     C_R   0.640748 0.447691 0.178333 -0.161506
C32   C     C_R   0.515222 0.397640 0.138764 0.244381
H27   H     H_    0.211418 0.349093 0.822866 0.170360
C33   C     C_R   0.683015 0.597146 0.853734 0.101339
C34   C     C_R   0.734285 0.600346 0.925825 -0.067579
C35   C     C_R   0.681394 0.543181 0.958902 0.028620
C36   C     C_R   0.749126 0.535428 0.027356 -0.078001
C37   C     C_R   0.897621 0.568435 0.058419 0.344510
C38   C     C_R   0.862077 0.532682 0.171183 -0.018390
C39   C     C_R   0.946198 0.570367 0.130264 -0.219712
C40   C     C_R   0.918083 0.533127 0.242691 0.214165
C41   C     C_R   0.828728 0.497503 0.283777 -0.381530
C42   C     C_R   0.687398 0.457855 0.255661 0.273166
H28   H     H_    0.732467 0.640751 0.831084 0.180402
H29   H     H_    0.059992 0.595676 0.150714 0.210740
H30   H     H_    0.868447 0.503175 0.340211 0.128809
H31   H     H_    0.352070 0.323965 0.921318 0.189959
H32   H     H_    0.813663 0.650142 0.955536 0.177941
C43   C     C_2   0.394656 0.236338 0.480555 0.091035
C44   C     C_R   0.815704 0.754285 0.510530 -0.421493
C45   C     C_2   0.226389 0.117809 0.410029 -0.207079
C46   C     C_2   0.252898 0.203195 0.434157 0.100557
C47   C     C_2   0.514276 0.181601 0.491905 0.135251
C48   C     C_3   0.470499 0.091163 0.484413 -0.145243
C49   C     C_3   0.348119 0.050897 0.422084 0.341625
C50   C     C_2   0.602459 0.023283 0.486492 -0.134853
C51   C     C_2   0.581349 0.970699 0.525094 0.425809
C52   C     C_R   0.840552 0.935191 0.574966 0.220341
C53   C     C_R   0.710128 0.904149 0.528644 -0.291128
C54   C     C_R   0.955864 0.878862 0.593091 0.158419
C55   C     C_R   0.945388 0.785797 0.559315 0.177065
C56   C     C_R   0.691520 0.812800 0.499951 0.228242
H33   H     H_    0.124351 0.094101 0.373841 0.189364
H34   H     H_    0.801994 0.684207 0.487783 0.198768
H35   H     H_    0.711523 0.013934 0.453523 0.171508
N1    N     N_R   0.716307 0.862974 0.772118 0.290077
O25   O     O_R   0.684744 0.850154 0.833799 -0.255658
O26   O     O_R   0.835748 0.907883 0.771959 -0.282241
N2    N     N_R   0.457282 0.187466 0.281389 0.215751
O27   O     O_R   0.443327 0.119889 0.299674 -0.391348
O28   O     O_R   0.384935 0.188959 0.220169 -0.240225
F1    F     F_    0.576081 0.286533 0.388313 -0.726475
N3    N     N_R   0.748830 0.104330 0.221597 0.288791
O29   O     O_R   0.745663 0.120826 0.159604 -0.256812
O30   O     O_R   0.770669 0.022844 0.216424 -0.247811
F2    F     F_    0.069894 0.627545 0.720945 -0.655088
F3    F     F_    0.271086 0.822529 0.814231 -0.625638
N4    N     N_R   0.250196 0.705260 0.853242 0.190974
O31   O     O_R   0.168245 0.649566 0.867193 -0.374462
O32   O     O_R   0.381894 0.728245 0.890716 -0.295977
F4    F     F_    0.598478 0.212740 0.766530 -0.591612
F5    F     F_    0.318840 0.254685 0.690511 -0.739622
F6    F     F_    0.006905 0.117638 0.621539 -0.646775
N5    N     N_R   0.594716 0.689757 0.297667 0.164526
O33   O     O_R   0.716252 0.667729 0.332538 -0.525654
O34   O     O_R   0.502051 0.629861 0.257856 -0.413134
F7    F     F_    0.296212 0.510360 0.651257 -0.614114
N6    N     N_R   0.468791 0.326822 0.156643 0.271695
O35   O     O_R   0.545431 0.249445 0.122324 -0.263627
O36   O     O_R   0.323050 0.331047 0.180089 -0.342529
N7    N     N_R   0.295250 0.373333 0.049456 0.236768
O37   O     O_R   0.175898 0.427585 0.044880 -0.398454
O38   O     O_R   0.273838 0.290171 0.029913 -0.300986
F8    F     F_    0.657179 0.834624 0.355354 -0.773981
N8    N     N_R   0.014343 0.587098 0.013811 0.244139
O39   O     O_R   0.051578 0.530238 0.945545 -0.361059
O40   O     O_R   0.102804 0.652252 0.045521 -0.333107
N9    N     N_R   0.064570 0.920101 0.653924 0.296949
O41   O     O_R   0.022566 0.998209 0.704706 -0.284966
O42   O     O_R   0.207493 0.884061 0.657921 -0.303972
N10   N     N_R   0.383218 0.326711 0.529604 0.257834
O43   O     O_R   0.428107 0.386120 0.506745 -0.217517
O44   O     O_R   0.381385 0.342879 0.601759 -0.470332
N11   N     N_R   0.438976 0.983884 0.569956 0.240142
O45   O     O_R   0.297989 0.982269 0.538875 -0.391842
O46   O     O_R   0.451373 0.984403 0.638740 -0.348148
N12   N     N_R   0.437931 0.896244 0.273220 0.273600
O47   O     O_R   0.300111 0.930961 0.259603 -0.338375
O48   O     O_R   0.562790 0.940736 0.283678 -0.275485
F9    F     F_    0.748288 0.704643 0.629188 -0.716188

loop_
_geom_bond_atom_site_label_1
_geom_bond_atom_site_label_2
_geom_bond_distance
_ccdc_geom_bond_type
C7    N3    1.463339 S    
C12   H16   1.106000 S    
C13   H21   1.100649 S    
N1    O25   1.301253 A    
P6    C40   1.866483 S    
C32   N6    1.419044 S    
C14   H23   1.106355 S    
C34   C35   1.418878 A    
C20   C24   1.416557 A    
C26   F7    1.356536 S    
O3    Ba1   2.821221 S    
C48   C49   1.532163 S    
N12   O48   1.300625 A    
C14   F4    1.382992 S    
C17   C18   1.424640 A    
C54   C55   1.427117 A    
O4    P6    1.540895 D    
C17   C29   1.420785 A    
C39   H29   1.078455 S    
C2    N5    1.449908 S    
P3    O11   1.772806 S    
C6    N2    1.465078 S    
C6    C7    1.540998 S    
C5    H7    1.109998 S    
C9    H11   1.112691 S    
C11   O22   1.405435 S    
C51   C53   1.479377 S    
C44   C55   1.409527 A    
C24   C35   1.413199 A    
C17   C20   1.434704 A    
N8    O40   1.301642 A    
Ba1   O13   2.817141 S    
C50   C51   1.352092 D    
P1    O1    1.542222 D    
O16   Ba2   2.965308 S    
P8    O23   1.543452 D    
C52   C53   1.390477 A    
C44   H34   1.082322 S    
O5    C6    1.407922 S    
P2    C55   1.872032 S    
C2    C3    1.544068 S    
Ba1   O20   2.966091 S    
P2    O10   1.752881 S    
N7    O37   1.297558 A    
P4    Ba2   3.445711 S    
O1    Ba1   2.858389 S    
O7    Ba1   2.894397 S    
C1    H2    1.108744 S    
P1    C42   1.916066 S    
O12   Ba2   2.858908 S    
C11   C12   1.527423 S    
C43   C47   1.348942 D    
P1    Ba1   3.445182 S    
C23   C28   1.420648 A    
C13   C14   1.522351 S    
C33   H28   1.081345 S    
P7    O21   1.570376 D    
P4    C27   1.878983 S    
N9    O42   1.296622 A    
P5    O17   1.771514 S    
C41   C42   1.398669 A    
N10   O44   1.289235 A    
C11   H15   1.107875 S    
C18   N7    1.437818 S    
C36   C37   1.425023 A    
O2    Ba1   2.978947 S    
C51   N11   1.435075 S    
C45   C49   1.503939 S    
C28   C33   1.401515 A    
C15   F5    1.379843 S    
P7    O22   1.747338 S    
H25   C16   1.100561 S    
P2    Ba1   3.470261 S    
C45   H33   1.085502 S    
P1    O5    1.780647 S    
C40   C41   1.403959 A    
P4    O15   1.748744 S    
C5    H6    1.108386 S    
N5    O34   1.299518 A    
N4    O31   1.301133 A    
C43   C46   1.475569 S    
P5    C47   1.872924 S    
C31   C32   1.412435 A    
C8    F2    1.379867 S    
C26   C27   1.394016 A    
O11   C2    1.413374 S    
C18   C32   1.402397 A    
C25   C26   1.401586 A    
Ba2   O20   2.811538 S    
C9    N4    1.459704 S    
C21   C22   1.394049 A    
C13   H20   1.106056 S    
C29   C36   1.435429 A    
P1    O2    1.571744 S    
O6    P6    1.754703 S    
P8    O24   1.749948 S    
C16   H26   1.109626 S    
H1    C10   1.112733 S    
C7    H8    1.112766 S    
C21   H27   1.070384 S    
O8    Ba1   2.784834 S    
C23   C24   1.438351 A    
C4    O15   1.392012 S    
C35   C36   1.444247 A    
C15   H24   1.112631 S    
P7    C46   1.841687 S    
O14   P8    1.749706 S    
C19   H31   1.072402 S    
C12   H17   1.108815 S    
N6    O35   1.300848 A    
C1    H3    1.109646 S    
C4    F9    1.365214 S    
C16   F6    1.380973 S    
C1    C10   1.520103 S    
O14   Ba2   2.820606 S    
N6    O36   1.297285 A    
Ba1   Ba2   4.587544 S    
C10   H12   1.109046 S    
C38   C40   1.417322 A    
P2    O7    1.525320 D    
C37   C39   1.397830 A    
C50   H35   1.086634 S    
P3    O8    1.769127 S    
N9    O41   1.301152 A    
O10   C8    1.392802 S    
P5    O18   1.547640 D    
C4    C5    1.529136 S    
C12   H18   1.109981 S    
C30   C38   1.416440 A    
N12   O47   1.300526 A    
P2    O20   1.582583 S    
P8    C25   1.868645 S    
C11   H14   1.110678 S    
C19   C21   1.380353 A    
C47   C48   1.518321 S    
C53   C56   1.412348 A    
C41   H30   1.081890 S    
C5    N1    1.461575 S    
C3    N12   1.457346 S    
C37   N8    1.436913 S    
N11   O45   1.301530 A    
N1    O26   1.299391 A    
O2    Ba2   2.817693 S    
C45   C46   1.339745 D    
Ba2   O21   2.894568 S    
C1    H13   1.109708 S    
C31   C42   1.455119 A    
N5    O33   1.293707 A    
O16   P7    1.759762 S    
C48   C50   1.503662 S    
N4    O32   1.301109 A    
C22   C25   1.414433 A    
C9    F3    1.386414 S    
C38   C39   1.399771 A    
C8    H10   1.108270 S    
N11   O46   1.300209 A    
N2    O27   1.298401 A    
C7    H9    1.085956 S    
C43   N10   1.417516 S    
O6    C10   1.402331 S    
P3    C56   1.863548 S    
Ba1   O16   2.812073 S    
C30   C31   1.436446 A    
N3    O29   1.299933 A    
N10   O43   1.297044 A    
P4    O13   1.571744 S    
O19   C13   1.405715 S    
C14   H22   1.107366 S    
N7    O38   1.302561 A    
C3    H19   1.112887 S    
C33   C34   1.401970 A    
O17   Ba2   2.785432 S    
C52   C54   1.398912 A    
O13   Ba2   2.979729 S    
C34   H32   1.077627 S    
C19   C20   1.406936 A    
C54   N9    1.441976 S    
C3    H4    1.109632 S    
C15   C16   1.518942 S    
C27   C28   1.431266 A    
P4    O12   1.542527 D    
C22   C23   1.417713 A    
P3    O9    1.535713 D    
N8    O39   1.300963 A    
N3    O30   1.300427 A    
C2    F8    1.384713 S    
P5    O19   1.753614 S    
C4    H5    1.104444 S    
C15   O24   1.405446 S    
C6    F1    1.369562 S    
C29   C30   1.443770 A    
C44   C56   1.409981 A    
C8    C9    1.533609 S    
N2    O28   1.299432 A    
O3    P6    1.749818 S    
