data_mof_unit_7211.cif
_audit_creation_date              2012-12-10T17:00:45-0500
_audit_creation_method            fapswitch 2.2
_symmetry_space_group_name_H-M    P1
_symmetry_Int_Tables_number       1
_space_group_crystal_system       triclinic
_cell_length_a                    27.762332
_cell_length_b                    10.914791
_cell_length_c                    9.721031
_cell_angle_alpha                 90.261804
_cell_angle_beta                  90.696649
_cell_angle_gamma                 90.494528
_cell_volume                      2945.30768168

loop_
_atom_site_label
_atom_site_type_symbol
_atom_type_description
_atom_site_fract_x
_atom_site_fract_y
_atom_site_fract_z
_atom_type_partial_charge
C1    C     C_R   0.499362 0.265436 0.499822 0.888642
C2    C     C_R   0.278457 0.481102 0.622474 -0.089452
C3    C     C_R   0.253223 0.506974 0.498394 0.137893
C4    C     C_R   0.101542 0.516965 0.490322 -0.111791
C5    C     C_R   0.125741 0.406440 0.462542 -0.160124
C6    C     C_R   0.099118 0.297049 0.445254 0.594483
C7    C     C_R   0.128271 0.626500 0.514633 -0.059987
C8    C     C_R   0.354385 0.502010 0.498725 -0.163141
C9    C     C_R   0.645436 0.496583 0.502079 -0.110519
C10   C     C_R   0.973469 0.421490 0.436501 0.007440
C11   C     C_R   0.975502 0.621664 0.551893 -0.042778
C12   C     C_R   0.407464 0.500409 0.499393 0.835294
C13   C     C_R   0.949035 0.522853 0.493789 -0.044802
C14   C     C_R   0.946974 0.339018 0.351807 0.608879
C15   C     C_R   0.896996 0.343113 0.346602 -0.164314
C16   C     C_R   0.872131 0.432249 0.420615 -0.084615
C17   C     C_R   0.897997 0.525248 0.491558 -0.049625
C18   C     C_R   0.872912 0.619944 0.559482 -0.146926
C19   C     C_R   0.821905 0.611597 0.563365 0.647111
C20   C     C_R   0.821782 0.431731 0.422803 0.602587
C21   C     C_R   0.723431 0.432640 0.596773 -0.049700
C22   C     C_R   0.672365 0.425122 0.596964 -0.112366
C23   C     C_R   0.500675 0.734611 0.500317 0.839579
C24   C     C_R   0.669340 0.572103 0.408450 -0.190011
C25   C     C_R   0.719222 0.580319 0.409587 -0.077756
C26   C     C_R   0.746392 0.511868 0.502745 0.256921
C27   C     C_R   0.023893 0.410352 0.459665 -0.062917
C28   C     C_R   0.050535 0.517651 0.494243 0.062703
C29   C     C_R   0.026231 0.625486 0.533696 0.085708
C30   C     C_R   0.048638 0.296919 0.451358 -0.116196
C31   C     C_R   0.103040 0.737707 0.534643 -0.079361
C32   C     C_R   0.950369 0.713165 0.624576 0.535609
C33   C     C_R   0.899872 0.715120 0.625589 -0.128251
C34   C     C_R   0.592408 0.497782 0.500765 0.821502
C35   C     C_R   0.052959 0.735100 0.546079 -0.107573
C36   C     C_2   0.499165 0.932525 0.387100 -0.144612
C37   C     C_2   0.503246 0.866790 0.502726 -0.286668
C38   C     C_2   0.501400 0.066611 0.386842 -0.112598
C39   C     C_2   0.496755 0.133374 0.501711 -0.261947
C40   C     C_2   0.475097 0.424337 0.921698 0.072802
C41   C     C_2   0.468306 0.441022 0.073625 0.069659
C42   C     C_R   0.176376 0.406966 0.460809 0.709511
C43   C     C_R   0.179094 0.619075 0.521331 0.662362
C44   C     C_R   0.278634 0.530057 0.377358 0.698067
C45   C     C_R   0.328725 0.527818 0.377582 -0.240372
C46   C     C_R   0.329093 0.479142 0.620334 -0.224035
Cu1   Cu    Cu3+1 0.500010 0.500020 0.638630 1.086062
Cu2   Cu    Cu3+1 0.499990 0.499980 0.361370 1.008492
H1    H     H_    0.349028 0.458968 0.713902 0.219107
H2    H     H_    0.649192 0.627197 0.335724 0.170814
H3    H     H_    0.737058 0.639659 0.336765 0.163590
H4    H     H_    0.034916 0.822114 0.553972 0.225755
H5    H     H_    0.494776 0.887203 0.287953 0.192276
H6    H     H_    0.509678 0.908470 0.602517 0.168630
H7    H     H_    0.506259 0.110998 0.288109 0.191232
H8    H     H_    0.489908 0.092528 0.600831 0.148604
H9    H     H_    0.456465 0.348497 0.870968 0.077923
H10   H     H_    0.531797 0.522716 0.109847 0.265134
H11   H     H_    0.877858 0.276084 0.283617 0.221541
H12   H     H_    0.347392 0.548025 0.283238 0.223025
N1    N     N_R   0.201588 0.511216 0.493044 -0.440347
N2    N     N_R   0.797968 0.518804 0.495800 -0.460768
N3    N     N_2   0.499480 0.498660 0.846910 0.093988
N4    N     N_2   0.499460 0.498630 0.153040 -0.295628
O1    O     O_R   0.500010 0.321960 0.617040 -0.597407
O2    O     O_2   0.796652 0.343852 0.354226 -0.503893
O3    O     O_2   0.206091 0.716714 0.560399 -0.487413
O4    O     O_2   0.796161 0.692431 0.636808 -0.486608
O5    O     O_R   0.499990 0.321920 0.382900 -0.547581
O6    O     O_R   0.430270 0.500040 0.617060 -0.585844
O7    O     O_R   0.430260 0.500000 0.382910 -0.574674
O8    O     O_R   0.500010 0.678080 0.617100 -0.515772
O9    O     O_R   0.499990 0.678040 0.382960 -0.577141
O10   O     O_R   0.569740 0.500000 0.617090 -0.545463
O11   O     O_R   0.569730 0.499960 0.382940 -0.588739
O12   O     O_2   0.200566 0.303920 0.429903 -0.418248
F1    F     F_    0.254480 0.555595 0.258847 -0.600839
C47   C     C_2   0.126386 0.860326 0.537264 1.003996
O13   O     O_2   0.153822 0.890443 0.445672 -0.457480
O14   O     O_R   0.114863 0.943718 0.641131 -0.699644
H13   H     H_    0.132826 0.024474 0.632290 0.384231
F2    F     F_    0.974481 0.797677 0.702851 -0.633145
C48   C     C_2   0.877321 0.821783 0.692974 1.023957
O15   O     O_2   0.852678 0.892196 0.625177 -0.544507
O16   O     O_R   0.886043 0.844454 0.832727 -0.668693
H14   H     H_    0.869284 0.920829 0.866626 0.349999
C49   C     C_2   0.253393 0.456174 0.754790 0.949756
O17   O     O_2   0.276963 0.441973 0.860628 -0.515648
O18   O     O_R   0.203165 0.448318 0.760087 -0.755577
H15   H     H_    0.190995 0.431095 0.856053 0.367905
F3    F     F_    0.512023 0.606348 0.903712 -0.554905
C50   C     C_2   0.423786 0.385447 0.127437 0.864808
O19   O     O_2   0.384865 0.419112 0.081989 -0.564675
O20   O     O_R   0.425847 0.288398 0.220165 -0.746191
H16   H     H_    0.392735 0.257387 0.246835 0.339665
F4    F     F_    0.122269 0.188462 0.431816 -0.579339
C51   C     C_2   0.647451 0.343063 0.695351 0.927152
O21   O     O_2   0.616410 0.271240 0.653987 -0.587704
O22   O     O_R   0.659669 0.347924 0.835239 -0.725290
H17   H     H_    0.640265 0.287770 0.891790 0.344459
C52   C     C_2   0.753112 0.354403 0.689081 0.922741
O23   O     O_2   0.788179 0.397777 0.749757 -0.553829
O24   O     O_R   0.741292 0.230536 0.705176 -0.712421
H18   H     H_    0.764245 0.186963 0.770029 0.360708
F5    F     F_    0.969170 0.260192 0.265281 -0.632399
C53   C     C_2   0.023590 0.177325 0.473111 1.017582
O25   O     O_2   0.037159 0.084869 0.414020 -0.486677
O26   O     O_R   0.984825 0.170319 0.563420 -0.745363
H19   H     H_    0.970863 0.084416 0.569973 0.362406

loop_
_geom_bond_atom_site_label_1
_geom_bond_atom_site_label_2
_ccdc_geom_bond_type
C10   C27   A    
C21   C26   A    
C45   H12   S    
C52   O23   D    
Cu2   O5    S    
C49   O17   D    
C51   O21   D    
O16   H14   S    
C2    C46   A    
C46   H1    S    
C40   N3    D    
C20   O2    S    
C28   C29   A    
Cu1   N3    S    
C5    C6    A    
C47   O14   S    
C9    C22   A    
Cu2   N4    S    
C53   O25   D    
C19   N2    A    
C15   C16   A    
O26   H19   S    
C18   C19   A    
C8    C45   A    
C36   H5    S    
C4    C28   A    
C14   F5    S    
C38   H7    S    
C48   O15   D    
C16   C17   A    
C36   C37   D    
C1    O1    A    
C7    C43   A    
C16   C20   A    
C34   O11   A    
C21   C52   S    
C52   O24   S    
C22   C51   S    
C21   C22   A    
C30   C53   S    
C27   C30   A    
H10   N4    S    
Cu2   O11   S    
C23   O9    A    
C4    C7    A    
Cu2   O9    S    
C51   O22   S    
C3    N1    S    
C24   H2    S    
C3    C44   A    
C7    C31   A    
Cu1   Cu2   S    
C2    C49   S    
C24   C25   A    
C10   C14   A    
C47   O13   D    
O14   H13   S    
C25   C26   A    
C23   C37   S    
C1    O5    A    
C25   H3    S    
Cu1   O6    S    
O22   H17   S    
C8    C12   S    
C50   O20   S    
C17   C18   A    
C19   O4    S    
C39   H8    S    
C33   C48   S    
C42   N1    A    
C34   O10   A    
C37   H6    S    
C40   C41   S    
C6    C30   A    
C12   O7    A    
C11   C32   A    
C6    F4    S    
C49   O18   S    
C9    C34   S    
C31   C35   A    
Cu2   O7    S    
C35   H4    S    
C5    C42   A    
C44   C45   A    
C43   N1    A    
C31   C47   S    
C12   O6    A    
C44   F1    S    
C40   H9    S    
C48   O16   S    
C15   H11   S    
C23   O8    A    
Cu1   O10   S    
C4    C5    A    
C10   C13   A    
C9    C24   A    
C32   F2    S    
C29   C35   A    
C42   O12   S    
C13   C17   A    
C32   C33   A    
C36   C38   S    
C2    C3    A    
C26   N2    S    
C11   C13   A    
C38   C39   D    
C53   O26   S    
C50   O19   D    
C20   N2    A    
O20   H16   S    
C18   C33   A    
C8    C46   A    
Cu1   O8    S    
C1    C39   S    
C41   C50   S    
C11   C29   A    
C43   O3    S    
N3    F3    S    
O24   H18   S    
C14   C15   A    
C41   N4    D    
O18   H15   S    
Cu1   O1    S    
C27   C28   A    
