data_mof_unit_58688.cif
_audit_creation_date              2012-12-10T17:27:51-0500
_audit_creation_method            fapswitch 2.2
_symmetry_space_group_name_H-M    P1
_symmetry_Int_Tables_number       1
_space_group_crystal_system       triclinic
_cell_length_a                    10.63315
_cell_length_b                    12.028448
_cell_length_c                    12.840123
_cell_angle_alpha                 94.788202
_cell_angle_beta                  91.002128
_cell_angle_gamma                 86.572735
_cell_volume                      1633.46821089

loop_
_atom_site_label
_atom_site_type_symbol
_atom_type_description
_atom_site_fract_x
_atom_site_fract_y
_atom_site_fract_z
_atom_type_partial_charge
Br1   Br    Br    0.476289 0.785891 0.803602 -0.375763
Br2   Br    Br    0.334619 0.212921 0.361350 -0.445959
Br3   Br    Br    0.791878 0.260004 0.331893 -0.440797
Br4   Br    Br    0.683484 0.647132 0.201551 -0.438349
C1    C     C_R   0.495677 0.523861 0.701130 0.932580
C2    C     C_R   0.503677 0.647305 0.870042 0.210727
C3    C     C_R   0.481268 0.446580 0.867888 -0.197039
C4    C     C_R   0.739317 0.497886 0.487803 0.899153
C5    C     C_R   0.494813 0.451856 0.974525 0.105068
C6    C     C_R   0.528570 0.552557 0.029804 -0.015287
C7    C     C_R   0.561182 0.549249 0.135304 0.233011
C8    C     C_R   0.483070 0.362963 0.134058 -0.167109
C9    C     C_R   0.476000 0.356593 0.026330 -0.135383
C10   C     C_R   0.367680 0.948297 0.410346 -0.230270
C11   C     C_R   0.384256 0.833797 0.419762 0.025858
C12   C     C_R   0.947107 0.393287 0.481357 0.042142
C13   C     C_R   0.557269 0.859306 0.535506 0.064349
C14   C     C_R   0.545057 0.976804 0.532571 -0.010620
C15   C     C_R   0.450069 0.023234 0.466473 -0.043745
C16   C     C_R   0.508635 0.476797 0.299863 0.949219
C17   C     C_R   0.444230 0.141362 0.459546 0.358998
C18   C     C_R   0.612513 0.163952 0.582776 -0.028086
C19   C     C_R   0.626847 0.048474 0.591222 -0.120562
C20   C     C_R   0.260115 0.501087 0.510135 0.917139
C21   C     C_R   0.907933 0.285445 0.446933 0.270157
C22   C     C_R   0.969398 0.191298 0.485244 -0.074246
C23   C     C_R   0.873353 0.494237 0.473133 -0.078194
C24   C     C_R   0.068888 0.203088 0.556443 -0.123810
C25   C     C_R   0.117505 0.308169 0.581145 -0.113887
C26   C     C_R   0.064924 0.401570 0.530322 -0.030024
C27   C     C_2   0.259826 0.980718 0.343300 1.016587
C28   C     C_2   0.727475 0.007749 0.662676 0.897103
C29   C     C_2   0.211896 0.319343 0.668074 0.977915
C30   C     C_2   0.520692 0.763565 0.038994 1.041231
C31   C     C_R   0.929500 0.596450 0.477978 -0.155536
C32   C     C_R   0.056184 0.599415 0.497101 -0.172617
C33   C     C_R   0.125528 0.501877 0.520577 -0.123727
C34   C     C_R   0.521642 0.460753 0.188429 -0.113964
C35   C     C_R   0.493117 0.541412 0.814354 -0.135232
C36   C     C_R   0.523748 0.652717 0.978724 -0.090302
H1    H     H_    0.875614 0.674365 0.468327 0.188075
H2    H     H_    0.457082 0.292526 0.174502 0.216819
H3    H     H_    0.365728 0.975008 0.214170 0.340072
H4    H     H_    0.778963 0.909225 0.777659 0.374701
H5    H     H_    0.139707 0.471111 0.726905 0.306188
H6    H     H_    0.592708 0.915125 0.062168 0.357600
H7    H     H_    0.448703 0.279726 0.984130 0.178602
H8    H     H_    0.462505 0.366840 0.826379 0.215877
H9    H     H_    0.673219 0.220021 0.627279 0.162237
H10   H     H_    0.322286 0.776400 0.378343 0.150702
H11   H     H_    0.630813 0.819441 0.580623 0.168964
H12   H     H_    0.938504 0.108833 0.461140 0.211881
H13   H     H_    0.108848 0.129778 0.591349 0.207829
H14   H     H_    0.099493 0.678190 0.492916 0.186295
N1    N     N_R   0.523130 0.207800 0.519340 -0.107096
N2    N     N_R   0.476870 0.792180 0.480660 -0.110254
O1    O     O_R   0.506170 0.421690 0.658830 -0.618583
O2    O     O_R   0.274623 0.987812 0.236172 -0.689750
O3    O     O_2   0.830903 0.047226 0.663584 -0.634582
O4    O     O_R   0.703059 0.928776 0.732415 -0.746187
O5    O     O_2   0.288349 0.241856 0.681660 -0.580907
O6    O     O_R   0.213710 0.415890 0.736730 -0.795032
O7    O     O_2   0.445582 0.784616 0.109971 -0.616989
O8    O     O_R   0.604042 0.843203 0.015318 -0.720908
O9    O     O_R   0.491330 0.609320 0.646410 -0.581425
O10   O     O_R   0.690660 0.406170 0.506210 -0.617029
O11   O     O_R   0.675810 0.593790 0.493790 -0.624124
O12   O     O_R   0.508670 0.390680 0.353590 -0.571030
O13   O     O_R   0.493830 0.578310 0.341170 -0.591878
O14   O     O_R   0.324190 0.406210 0.506210 -0.584462
O15   O     O_R   0.309340 0.593830 0.493790 -0.634960
O16   O     O_2   0.155117 0.996537 0.380955 -0.573460
Zn1   Zn    Zn3+2 0.509910 0.374720 0.508290 1.035144
Zn2   Zn    Zn3+2 0.490090 0.625280 0.491710 1.016942

loop_
_geom_bond_atom_site_label_1
_geom_bond_atom_site_label_2
_ccdc_geom_bond_type
C7    C34   A    
C24   H13   S    
C4    O10   A    
C18   N1    A    
C22   H12   S    
C27   O16   D    
O15   Zn2   S    
C16   C34   S    
C5    C6    A    
C22   C24   A    
C31   C32   A    
C28   O3    D    
C1    O1    A    
C10   C27   S    
C11   N2    A    
C13   H11   S    
O14   Zn1   S    
C30   O8    S    
C13   C14   A    
C21   C22   A    
C20   O14   A    
O13   Zn2   S    
O11   Zn2   S    
C26   C33   A    
C3    H8    S    
Br4   C7    S    
C13   N2    A    
C25   C26   A    
Br2   C17   S    
C18   H9    S    
C30   C36   S    
C27   O2    S    
C1    O9    A    
C24   C25   A    
C15   C17   A    
H4    O4    S    
C20   C33   S    
C3    C5    A    
C1    C35   S    
C8    C34   A    
C31   H1    S    
C2    C36   A    
C16   O13   A    
C30   O7    D    
C32   H14   S    
C6    C7    A    
C28   O4    S    
C29   O6    S    
C12   C26   A    
Br1   C2    S    
N1    Zn1   S    
C25   C29   S    
H5    O6    S    
Br3   C21   S    
N2    Zn2   S    
C8    C9    A    
C20   O15   A    
C4    O11   A    
C29   O5    D    
C14   C15   A    
C12   C23   A    
C11   H10   S    
O1    Zn1   S    
C12   C21   A    
C17   N1    A    
C4    C23   S    
C5    C9    A    
C2    C35   A    
C32   C33   A    
C6    C36   A    
C8    H2    S    
H3    O2    S    
C23   C31   A    
O12   Zn1   S    
C10   C11   A    
O10   Zn1   S    
C9    H7    S    
C10   C15   A    
C16   O12   A    
C18   C19   A    
O9    Zn2   S    
C14   C19   A    
C19   C28   S    
H6    O8    S    
C3    C35   A    
