data_mof_unit_7243.cif
_audit_creation_date              2012-12-11T16:04:51-0500
_audit_creation_method            fapswitch 2.2
_symmetry_space_group_name_H-M    P1
_symmetry_Int_Tables_number       1
_space_group_crystal_system       triclinic
_cell_length_a                    10.635933
_cell_length_b                    10.655226
_cell_length_c                    16.928462
_cell_angle_alpha                 98.808755
_cell_angle_beta                  98.569094
_cell_angle_gamma                 61.538119
_cell_volume                      1660.30914046

loop_
_atom_site_label
_atom_site_type_symbol
_atom_type_description
_atom_site_fract_x
_atom_site_fract_y
_atom_site_fract_z
_atom_type_partial_charge
C1    C     C_R   0.356484 0.771557 0.397515 0.554392
C2    C     C_3   0.277833 0.744497 0.247877 -0.108861
C3    C     C_3   0.352526 0.802187 0.317142 0.059757
C4    C     C_R   0.371024 0.346997 0.358646 0.540862
C5    C     C_3   0.481928 0.753119 0.268736 -0.122484
C6    C     C_3   0.407750 0.903218 0.237596 -0.116426
C7    C     C_3   0.280404 0.950095 0.288091 -0.148897
C8    C     C_3   0.203733 0.894138 0.218337 -0.108418
C9    C     C_3   0.331360 0.846448 0.168469 0.061460
C10   C     C_3   0.459791 0.250691 0.772948 -0.108423
C11   C     C_3   0.408169 0.391705 0.735281 -0.111644
C12   C     C_3   0.731798 0.367370 0.249709 -0.112745
C13   C     C_3   0.336329 0.334900 0.663294 0.053791
C14   C     C_3   0.388050 0.194691 0.700362 -0.112932
C15   C     C_3   0.246208 0.264866 0.740841 -0.108695
C16   C     C_R   0.779303 0.375790 0.402928 0.545399
C17   C     C_3   0.194768 0.406116 0.702568 -0.119874
C18   C     C_3   0.266429 0.461804 0.776091 -0.127493
C19   C     C_3   0.318825 0.320924 0.812698 0.053052
C20   C     C_1   0.817161 0.342073 0.709655 -0.046328
C21   C     C_1   0.843669 0.314838 0.778070 -0.048896
C22   C     C_1   0.357327 0.765672 0.714296 -0.048596
C23   C     C_3   0.835682 0.341319 0.325819 0.058363
C24   C     C_1   0.326164 0.811930 0.781935 -0.049464
C25   C     C_R   0.957263 0.285259 0.102593 0.560280
C26   C     C_R   0.319537 0.300201 0.120050 0.535632
C27   C     C_R   0.296453 0.888435 0.087641 0.539714
C28   C     C_R   0.379207 0.716284 0.631596 0.553445
C29   C     C_R   0.884799 0.299374 0.860897 0.552679
C30   C     C_R   0.308354 0.293810 0.891770 0.545538
C31   C     C_R   0.282354 0.880389 0.859676 0.545120
C32   C     C_R   0.366484 0.345739 0.585072 0.536690
C33   C     C_R   0.773825 0.379803 0.629685 0.536727
C34   C     C_3   0.943353 0.197549 0.288213 -0.143617
C35   C     C_1   0.345060 0.337170 0.274872 -0.064678
C36   C     C_1   0.332761 0.327661 0.203662 -0.062243
C37   C     C_3   0.840898 0.222872 0.210420 -0.108849
C38   C     C_3   0.015240 0.276372 0.257918 -0.146565
C39   C     C_3   0.905864 0.420923 0.297081 -0.115534
C40   C     C_3   0.802859 0.446297 0.220127 -0.115765
C41   C     C_3   0.911786 0.302280 0.181924 0.057470
C42   C     C_3   0.405459 0.697303 0.197739 -0.147903
Cr1   Cr    Cr6+3 0.608340 0.611040 0.520430 1.019464
Cr2   Cr    Cr6+3 0.287650 0.601120 0.489350 1.015497
Cr3   Cr    Cr6+3 0.604040 0.287870 0.490280 1.023685
Cr4   Cr    Cr6+3 0.054020 0.052700 0.970850 1.020687
Cr5   Cr    Cr6+3 0.059230 0.375120 0.993390 1.023136
Cr6   Cr    Cr6+3 0.374950 0.061200 0.992340 1.021312
H1    H     H_    0.614886 0.404099 0.248969 0.112534
H2    H     H_    0.131134 0.242118 0.257409 0.102428
H3    H     H_    0.932640 0.501703 0.334292 0.129550
H4    H     H_    0.746233 0.547036 0.190159 0.129947
H5    H     H_    0.223442 0.679832 0.253381 0.134835
H6    H     H_    0.455843 0.595657 0.158627 0.107492
H7    H     H_    0.594995 0.698223 0.294365 0.131875
H8    H     H_    0.238135 0.047192 0.331094 0.106282
H9    H     H_    0.475712 0.443627 0.731009 0.103015
H10   H     H_    0.086859 0.467656 0.671495 0.134474
H11   H     H_    0.461543 0.967929 0.231093 0.136994
H12   H     H_    0.088919 0.948059 0.195644 0.134922
H13   H     H_    0.568341 0.189124 0.803378 0.133168
H14   H     H_    0.435965 0.085962 0.667690 0.136302
H15   H     H_    0.179119 0.212579 0.745428 0.119510
H16   H     H_    0.218655 0.570186 0.809134 0.130171
H17   H     H_    0.814408 0.141972 0.173154 0.129291
H18   H     H_    0.993235 0.099589 0.320456 0.117810
O1    O     O_R   0.751220 0.499230 0.435170 -0.527102
O2    O     O_R   0.412990 0.180750 0.091610 -0.513521
O3    O     O_R   0.366620 0.943130 0.065760 -0.506719
O4    O     O_R   0.477220 0.727600 0.436870 -0.500513
O5    O     O_R   0.160510 0.906330 0.879210 -0.509303
O6    O     O_R   0.930190 0.179050 0.889450 -0.490528
O7    O     O_R   0.909140 0.398170 0.896710 -0.503518
O8    O     O_R   0.186190 0.363460 0.918830 -0.500195
O9    O     O_R   0.401670 0.173200 0.913310 -0.514330
O10   O     O_R   0.356120 0.936130 0.900470 -0.490823
O11   O     O_3   0.162740 0.163010 0.985530 -0.275453
O12   O     O_R   0.297880 0.469080 0.560050 -0.515770
O13   O     O_R   0.258650 0.745120 0.411470 -0.519872
O14   O     O_R   0.297070 0.467240 0.395960 -0.504949
O15   O     O_R   0.488830 0.252610 0.387790 -0.509071
O16   O     O_R   0.724400 0.302390 0.420980 -0.498064
O17   O     O_R   0.752100 0.501210 0.612190 -0.516945
O18   O     O_R   0.478040 0.729440 0.600970 -0.492697
O19   O     O_R   0.259530 0.747110 0.588490 -0.500292
O20   O     O_R   0.489720 0.254590 0.564810 -0.513322
O21   O     O_R   0.725220 0.304230 0.585080 -0.496319
O22   O     O_3   0.500010 0.500010 0.500020 -0.274277
O23   O     O_R   0.171830 0.913880 0.057510 -0.530828
O24   O     O_R   0.940690 0.186050 0.054730 -0.505479
O25   O     O_R   0.920470 0.405720 0.075010 -0.516636
O26   O     O_R   0.196690 0.370460 0.084120 -0.512899

loop_
_geom_bond_atom_site_label_1
_geom_bond_atom_site_label_2
_ccdc_geom_bond_type
C39   H3    S    
C5    C42   S    
C11   C18   S    
C28   O18   A    
C34   C37   S    
Cr1   O17   S    
Cr5   O26   S    
Cr6   O10   S    
C13   C32   S    
Cr3   O16   S    
Cr6   O3    S    
C34   H18   S    
C6    C9    S    
C12   H1    S    
Cr3   O20   S    
C7    C8    S    
Cr4   O23   S    
C15   C19   S    
C12   C23   S    
C25   O24   A    
Cr1   O22   S    
Cr3   O21   S    
C4    O14   A    
C3    C7    S    
C38   C39   S    
C30   O8    A    
C29   O7    A    
C26   O26   A    
C14   H14   S    
C18   C19   S    
C12   C37   S    
C4    O15   A    
C35   C36   T    
C8    C9    S    
C37   H17   S    
Cr4   O6    S    
C27   O3    A    
C17   H10   S    
C29   O6    A    
C31   O5    A    
C4    C35   S    
C22   C28   S    
C13   C14   S    
Cr1   O18   S    
Cr6   O9    S    
C7    H8    S    
C2    C8    S    
C25   O25   A    
Cr2   O14   S    
Cr3   O22   S    
Cr5   O7    S    
C38   C41   S    
C10   C14   S    
C25   C41   S    
C39   C40   S    
C40   H4    S    
C21   C29   S    
C1    C3    S    
Cr6   O11   S    
C12   C40   S    
C10   C19   S    
C23   C34   S    
C32   O20   A    
C16   O16   A    
C17   C18   S    
C9    C42   S    
C16   O1    A    
Cr6   O2    S    
C33   O17   A    
Cr4   O5    S    
Cr4   O24   S    
C20   C33   S    
C26   C36   S    
C40   C41   S    
Cr1   O4    S    
C1    O13   A    
C22   C24   T    
C10   H13   S    
Cr5   O11   S    
Cr2   O19   S    
C9    C27   S    
C15   C17   S    
C34   C38   S    
Cr5   O25   S    
C6    H11   S    
C5    H7    S    
Cr2   O13   S    
Cr3   O15   S    
Cr5   O8    S    
C3    C5    S    
C2    H5    S    
Cr4   O11   S    
C6    C7    S    
C38   H2    S    
C16   C23   S    
C1    O4    A    
C13   C17   S    
C26   O2    A    
Cr2   O12   S    
C2    C3    S    
C33   O21   A    
C24   C31   S    
C11   H9    S    
C42   H6    S    
C30   O9    A    
C11   C13   S    
C18   H16   S    
C31   O10   A    
C5    C6    S    
C2    C42   S    
C23   C39   S    
C27   O23   A    
C37   C41   S    
C10   C11   S    
C32   O12   A    
C20   C21   T    
Cr1   O1    S    
C28   O19   A    
C15   H15   S    
C14   C15   S    
Cr2   O22   S    
C19   C30   S    
C8    H12   S    
