data_mof_unit_21528.cif
_audit_creation_date              2013-03-05T15:57:41-0500
_audit_creation_method            fapswitch 2.2
_symmetry_space_group_name_H-M    P1
_symmetry_Int_Tables_number       1
_space_group_crystal_system       triclinic
_cell_length_a                    19.151596
_cell_length_b                    17.551413
_cell_length_c                    12.578223
_cell_angle_alpha                 91.187515
_cell_angle_beta                  99.594915
_cell_angle_gamma                 89.643666
_cell_volume                      4167.95517803

loop_
_atom_site_label
_atom_site_type_symbol
_atom_site_description
_atom_site_fract_x
_atom_site_fract_y
_atom_site_fract_z
_atom_type_partial_charge
O1    O     O_R   0.448200 0.076800 0.373930 -0.614776
O2    O     O_R   0.448200 0.923200 0.373930 -0.607124
O3    O     O_R   0.948200 0.576800 0.373930 -0.618923
O4    O     O_R   0.948200 0.423200 0.373930 -0.613088
O5    O     O_R   0.414750 0.076790 0.542400 -0.600122
O6    O     O_R   0.414750 0.923210 0.542400 -0.617873
O7    O     O_R   0.914750 0.576790 0.542400 -0.582596
O8    O     O_R   0.914750 0.423210 0.542400 -0.595667
C1    C     C_R   0.406979 0.099052 0.441331 0.860069
C2    C     C_R   0.409332 0.898538 0.441174 0.834419
C3    C     C_R   0.907334 0.599567 0.441678 0.866316
C4    C     C_R   0.909426 0.398377 0.441308 0.851616
Zn1   Zn    Zn3+2 0.522330 0.000000 0.387520 0.933942
Zn2   Zn    Zn3+2 0.022330 0.500000 0.387520 0.934515
Zn3   Zn    Zn3+2 0.477660 0.000000 0.612480 0.918017
Zn4   Zn    Zn3+2 0.977660 0.500000 0.612480 0.931704
O9    O     O_R   0.585240 0.923200 0.457600 -0.583221
O10   O     O_R   0.585240 0.076800 0.457600 -0.595773
O11   O     O_R   0.085240 0.423200 0.457600 -0.584002
O12   O     O_R   0.085240 0.576800 0.457600 -0.595944
O13   O     O_R   0.551780 0.923190 0.626070 -0.631376
O14   O     O_R   0.551780 0.076810 0.626070 -0.618472
O15   O     O_R   0.051780 0.423190 0.626070 -0.634277
O16   O     O_R   0.051780 0.576810 0.626070 -0.621973
C5    C     C_R   0.589526 0.896049 0.555785 0.858362
C6    C     C_R   0.588915 0.104120 0.556944 0.879153
C7    C     C_R   0.089819 0.396424 0.555880 0.855077
C8    C     C_R   0.088791 0.604184 0.556906 0.874977
C9    C     C_R   0.753580 0.188644 0.708143 0.096612
C10   C     C_R   0.645647 0.696392 0.654975 0.130243
C11   C     C_R   0.252437 0.690428 0.708303 0.096987
C12   C     C_R   0.144303 0.195473 0.647791 0.115737
C13   C     C_R   0.642160 0.163614 0.591682 -0.103415
C14   C     C_R   0.629544 0.823947 0.578416 -0.118155
C15   C     C_R   0.141539 0.664120 0.591495 -0.101719
C16   C     C_R   0.130524 0.324936 0.577949 -0.114878
C17   C     C_R   0.313980 0.861671 0.295153 -0.279590
C18   C     C_R   0.359236 0.201662 0.318155 -0.271788
C19   C     C_R   0.813274 0.361873 0.296339 -0.261795
C20   C     C_R   0.855585 0.699133 0.315715 -0.224725
C21   C     C_R   0.252036 0.822023 0.256484 0.183829
C22   C     C_R   0.304760 0.250798 0.273569 0.166158
C23   C     C_R   0.751979 0.321651 0.256933 0.173763
C24   C     C_R   0.799842 0.746324 0.271777 0.156610
C25   C     C_R   0.225297 0.770345 0.323215 0.105940
C26   C     C_R   0.243049 0.255849 0.319898 0.098455
C27   C     C_R   0.726231 0.268023 0.323056 0.079449
C28   C     C_R   0.738677 0.750737 0.319851 0.061064
C29   C     C_R   0.263325 0.757254 0.430452 -0.003289
C30   C     C_R   0.238366 0.212272 0.412507 0.011652
C31   C     C_R   0.764312 0.255845 0.430455 0.009446
C32   C     C_R   0.736392 0.708513 0.414635 0.019381
C33   C     C_R   0.333183 0.785552 0.455904 -0.029650
C34   C     C_R   0.282366 0.148616 0.433016 -0.007920
C35   C     C_R   0.833840 0.284846 0.456061 -0.024444
C36   C     C_R   0.781948 0.646258 0.435740 -0.019755
C37   C     C_R   0.737401 0.219988 0.516010 0.002461
C38   C     C_R   0.693939 0.727348 0.492726 -0.008668
C39   C     C_R   0.236403 0.721306 0.515965 0.003858
C40   C     C_R   0.194347 0.230176 0.488766 -0.006747
C41   C     C_R   0.783443 0.204943 0.615087 0.049563
C42   C     C_R   0.680813 0.672578 0.568382 0.060900
C43   C     C_R   0.282389 0.706510 0.615263 0.050298
C44   C     C_R   0.177845 0.173620 0.559199 0.068228
C45   C     C_R   0.356339 0.710535 0.618295 0.197198
C46   C     C_R   0.198299 0.097501 0.538841 0.170076
C47   C     C_R   0.857383 0.209280 0.617957 0.197148
C48   C     C_R   0.704275 0.596232 0.553406 0.172829
C49   C     C_R   0.381692 0.750595 0.537737 0.075614
C50   C     C_R   0.254348 0.085375 0.480089 0.073626
C51   C     C_R   0.882543 0.250030 0.537793 0.071877
C52   C     C_R   0.756868 0.583421 0.487527 0.095138
C53   C     C_R   0.665855 0.202374 0.509678 -0.288913
C54   C     C_R   0.671413 0.802078 0.502927 -0.286895
C55   C     C_R   0.165050 0.702858 0.509386 -0.286796
C56   C     C_R   0.173339 0.304897 0.502784 -0.287097
C57   C     C_R   0.681145 0.169709 0.696545 0.149966
C58   C     C_R   0.619771 0.772408 0.660469 0.151471
C59   C     C_R   0.180138 0.671006 0.696494 0.146538
C60   C     C_R   0.120055 0.271790 0.657691 0.154015
C61   C     C_R   0.353465 0.845246 0.395768 -0.116070
C62   C     C_R   0.348417 0.149701 0.397475 -0.135879
C63   C     C_R   0.853495 0.345024 0.396212 -0.121935
C64   C     C_R   0.847269 0.648328 0.397633 -0.157250
H1    H     H_    0.626900 0.214233 0.440630 0.160079
H2    H     H_    0.686674 0.844906 0.450788 0.180144
H3    H     H_    0.126048 0.713759 0.440230 0.158248
H4    H     H_    0.189813 0.348854 0.453342 0.178319
H5    H     H_    0.330827 0.906523 0.247171 0.150050
H6    H     H_    0.408896 0.201616 0.287563 0.160358
H7    H     H_    0.829305 0.407267 0.248436 0.159123
H8    H     H_    0.904294 0.699865 0.282521 0.172754
C65   C     C_R   0.648870 0.014725 0.141083 0.082356
C66   C     C_R   0.148338 0.517374 0.140781 0.085525
N1    N     N_R   0.552340 0.000000 0.237260 -0.117091
N2    N     N_R   0.052340 0.500000 0.237260 -0.117697
C67   C     C_R   0.377773 0.007412 0.763116 -0.065148
C68   C     C_R   0.877506 0.500160 0.763409 -0.041330
C69   C     C_R   0.353151 0.029357 0.857678 0.052350
C70   C     C_R   0.851690 0.515830 0.858848 0.060958
C71   C     C_R   0.402375 0.041979 0.952254 0.188045
C72   C     C_R   0.900426 0.533958 0.952764 0.168329
C73   C     C_R   0.474468 0.019936 0.953545 -0.022103
C74   C     C_R   0.973669 0.517494 0.953599 -0.008348
C75   C     C_R   0.496672 0.005819 0.853921 0.140544
C76   C     C_R   0.996410 0.506066 0.853926 0.134800
C77   C     C_R   0.525380 0.012914 0.048244 -0.076503
C78   C     C_R   0.024838 0.512084 0.048252 -0.076005
C79   C     C_R   0.599499 0.009105 0.043204 0.122631
C80   C     C_R   0.098996 0.510401 0.043107 0.122671
C81   C     C_R   0.620126 0.996632 0.941120 0.150850
C82   C     C_R   0.119842 0.498365 0.941143 0.150665
C83   C     C_R   0.568516 0.998155 0.849264 -0.226768
C84   C     C_R   0.068340 0.499677 0.849220 -0.223666
C85   C     C_R   0.504088 0.002249 0.147506 -0.109629
C86   C     C_R   0.003964 0.500849 0.147651 -0.104897
C87   C     C_R   0.623147 0.005796 0.238200 0.235942
C88   C     C_R   0.122971 0.507949 0.238068 0.234168
N3    N     N_R   0.448170 0.000000 0.762060 -0.129020
N4    N     N_R   0.948170 0.500000 0.762060 -0.137961
H9    H     H_    0.449611 0.993231 0.155498 0.163385
H10   H     H_    0.949827 0.490357 0.156054 0.165988
H11   H     H_    0.341284 0.002550 0.688322 0.137470
H12   H     H_    0.840972 0.492133 0.688627 0.179565
H13   H     H_    0.586158 0.993403 0.773761 0.229395
H14   H     H_    0.086014 0.494744 0.773689 0.229187
C89   C     C_3   0.646278 0.163378 0.794933 -0.912120
H15   H     H_    0.588044 0.157783 0.775568 0.270661
H16   H     H_    0.669100 0.114809 0.843005 0.251435
H17   H     H_    0.655880 0.216098 0.845326 0.232679
C90   C     C_3   0.583819 0.798387 0.753959 -0.881451
H18   H     H_    0.527116 0.811216 0.726251 0.266213
H19   H     H_    0.585499 0.756440 0.818618 0.221084
H20   H     H_    0.610876 0.849717 0.792758 0.253993
C91   C     C_3   0.144949 0.665156 0.794627 -0.903649
H21   H     H_    0.086789 0.658884 0.774876 0.270317
H22   H     H_    0.168063 0.617218 0.843795 0.250420
H23   H     H_    0.153912 0.718364 0.844076 0.235793
C92   C     C_3   0.085416 0.296501 0.752966 -0.879895
H24   H     H_    0.112705 0.347685 0.792221 0.252586
H25   H     H_    0.028537 0.309515 0.727026 0.264573
H26   H     H_    0.088242 0.253480 0.816570 0.223210
C93   C     C_3   0.693272 0.969648 0.925665 -0.937336
H27   H     H_    0.694171 0.948692 0.841985 0.230109
H28   H     H_    0.732584 0.016177 0.939557 0.244716
H29   H     H_    0.710078 0.920966 0.978995 0.254518
C94   C     C_3   0.193140 0.471675 0.926064 -0.935730
H30   H     H_    0.193980 0.449716 0.842836 0.229338
H31   H     H_    0.232112 0.518568 0.938801 0.243267
H32   H     H_    0.210434 0.423748 0.980570 0.259087
C95   C     C_3   0.725134 0.038848 0.145065 -0.933335
H33   H     H_    0.727896 0.084780 0.086649 0.260432
H34   H     H_    0.748730 0.064520 0.223859 0.233305
H35   H     H_    0.758761 0.989375 0.130582 0.246630
C96   C     C_3   0.224007 0.543403 0.144155 -0.921349
H36   H     H_    0.246882 0.570614 0.222246 0.231442
H37   H     H_    0.258756 0.494554 0.131115 0.256121
H38   H     H_    0.225772 0.588629 0.084346 0.259070
C97   C     C_3   0.378426 0.091050 0.040294 -0.899042
H39   H     H_    0.345895 0.057031 0.087125 0.231819
H40   H     H_    0.423454 0.117965 0.094668 0.236770
H41   H     H_    0.345652 0.139380 0.004134 0.255519
C98   C     C_3   0.875434 0.584419 0.038508 -0.918242
H42   H     H_    0.846153 0.550570 0.090265 0.226187
H43   H     H_    0.919867 0.615175 0.089068 0.250824
H44   H     H_    0.839639 0.629613 0.999737 0.254387
N5    N     N_3   0.279318 0.044610 0.856869 -0.457871
H45   H     H_    0.251107 0.038572 0.778880 0.193163
H46   H     H_    0.260406 0.002955 0.902968 0.185478
N6    N     N_3   0.776440 0.516375 0.856707 -0.468228
H47   H     H_    0.758103 0.461777 0.831892 0.173112
H48   H     H_    0.763877 0.523867 0.933840 0.201377
C99   C     C_3   0.408487 0.668781 0.701167 -0.853173
H49   H     H_    0.451605 0.642477 0.663779 0.243345
H50   H     H_    0.432069 0.709067 0.766327 0.248508
H51   H     H_    0.383124 0.620572 0.735613 0.236467
C100  C     C_3   0.155528 0.029593 0.563027 -0.863603
H52   H     H_    0.140700 0.994176 0.488572 0.248319
H53   H     H_    0.186895 0.993644 0.624968 0.228520
H54   H     H_    0.104663 0.046162 0.587939 0.246432
C101  C     C_3   0.909735 0.167326 0.700274 -0.851260
H55   H     H_    0.952682 0.141193 0.662314 0.242508
H56   H     H_    0.933504 0.207436 0.765540 0.248927
H57   H     H_    0.884524 0.118977 0.734644 0.236768
C102  C     C_3   0.670097 0.529201 0.599027 -0.876173
H58   H     H_    0.682433 0.473038 0.565255 0.234163
H59   H     H_    0.688346 0.525676 0.686427 0.272207
H60   H     H_    0.611580 0.535542 0.582356 0.239410
N7    N     N_3   0.795595 0.196736 0.813603 -0.463325
H61   H     H_    0.775003 0.241205 0.855550 0.198084
H62   H     H_    0.793026 0.146156 0.855224 0.187972
N8    N     N_3   0.639502 0.644590 0.739565 -0.468828
H63   H     H_    0.586069 0.637752 0.745207 0.192159
H64   H     H_    0.667632 0.665952 0.812350 0.198460
N9    N     N_3   0.294220 0.699129 0.813850 -0.464077
H65   H     H_    0.273237 0.743569 0.855354 0.196737
H66   H     H_    0.291878 0.648666 0.855825 0.187599
N10   N     N_3   0.139943 0.141536 0.730618 -0.474924
H67   H     H_    0.086947 0.135183 0.739226 0.189412
H68   H     H_    0.169390 0.161730 0.803110 0.204284
N11   N     N_3   0.669341 0.220096 0.272524 -0.481944
H69   H     H_    0.672785 0.166025 0.305061 0.198969
H70   H     H_    0.620792 0.246606 0.276419 0.171112
N12   N     N_3   0.676355 0.786195 0.261340 -0.476478
H71   H     H_    0.631159 0.772713 0.293471 0.206358
H72   H     H_    0.683113 0.845017 0.264963 0.177219
N13   N     N_3   0.166042 0.725911 0.272221 -0.453680
H73   H     H_    0.168703 0.670453 0.299965 0.190814
H74   H     H_    0.118722 0.753682 0.280241 0.176791
N14   N     N_3   0.182231 0.293614 0.260936 -0.465051
H75   H     H_    0.136209 0.281919 0.291948 0.201480
H76   H     H_    0.191118 0.352054 0.265238 0.189688
N15   N     N_3   0.214276 0.835159 0.149671 -0.441051
H77   H     H_    0.242934 0.871408 0.108051 0.166720
H78   H     H_    0.167277 0.863669 0.157659 0.183422
N16   N     N_3   0.311743 0.296337 0.182299 -0.464287
H79   H     H_    0.361830 0.288649 0.160925 0.172998
H80   H     H_    0.275166 0.276088 0.116863 0.196606
N17   N     N_3   0.716395 0.337854 0.149643 -0.463669
H81   H     H_    0.697612 0.393900 0.150432 0.164941
H82   H     H_    0.672218 0.303320 0.125644 0.204857
N18   N     N_3   0.806343 0.789611 0.178667 -0.466048
H83   H     H_    0.765209 0.774010 0.116644 0.200929
H84   H     H_    0.800118 0.847282 0.197554 0.177336
N19   N     N_3   0.455548 0.745131 0.530086 -0.461593
H85   H     H_    0.479549 0.797607 0.548067 0.199754
H86   H     H_    0.460686 0.728807 0.451332 0.183607
N20   N     N_3   0.269429 0.008828 0.448257 -0.453128
H87   H     H_    0.296825 0.981352 0.515026 0.210484
H88   H     H_    0.299373 0.007837 0.386177 0.170847
N21   N     N_3   0.956456 0.245369 0.530348 -0.461447
H89   H     H_    0.979984 0.298023 0.549017 0.197842
H90   H     H_    0.961843 0.229639 0.451456 0.184684
N22   N     N_3   0.775866 0.506662 0.460786 -0.427414
H91   H     H_    0.806799 0.506805 0.400165 0.159555
H92   H     H_    0.729895 0.479842 0.421409 0.174527
N23   N     N_3   0.670326 0.999004 0.339069 -0.393622
H93   H     H_    0.693624 0.051346 0.363178 0.176567
H94   H     H_    0.710899 0.960659 0.330124 0.147996
N24   N     N_3   0.170373 0.503504 0.339105 -0.394234
H95   H     H_    0.191855 0.556888 0.361897 0.177339
H96   H     H_    0.212401 0.466956 0.331046 0.154450

loop_
_geom_bond_atom_site_label_1
_geom_bond_atom_site_label_2
_geom_bond_distance
_ccdc_geom_bond_type
C38   C42   1.418979 A    
C93   H29   1.109952 S    
C24   C28   1.406012 A    
C43   C45   1.412582 A    
C85   H9    1.077664 S    
C96   H37   1.108291 S    
C77   C79   1.432502 A    
N11   H69   1.038654 S    
C20   C64   1.405964 A    
C98   H42   1.110463 S    
O10   C6    1.320069 A    
O3    C3    1.304881 A    
C34   C62   1.410513 A    
C90   H20   1.105247 S    
C33   C49   1.413974 A    
C75   N3    1.358976 A    
N20   H88   1.042840 S    
C91   H21   1.105747 S    
N5    H46   1.045384 S    
N15   H77   1.045948 S    
N1    C87   1.358583 A    
O7    C3    1.321112 A    
C15   C55   1.385498 A    
C30   C34   1.397384 A    
C65   C87   1.403198 A    
Zn1   O10   1.913763 S    
C76   C84   1.392409 A    
C75   C83   1.392459 A    
C98   H43   1.109530 S    
C50   N20   1.435334 S    
C18   C22   1.400204 A    
C79   C81   1.417429 A    
C84   H14   1.062124 S    
C92   H26   1.105987 S    
C45   C49   1.398072 A    
C102  H59   1.099535 S    
C83   H13   1.061300 S    
N6    H47   1.046072 S    
C93   H27   1.110573 S    
N23   H94   1.043517 S    
C93   H28   1.105512 S    
C27   N11   1.434249 S    
C33   C61   1.398788 A    
C22   C26   1.403709 A    
C95   H35   1.107936 S    
C37   C53   1.395459 A    
C71   C73   1.429124 A    
N7    H62   1.045458 S    
O2    Zn1   1.948105 S    
C12   N10   1.435052 S    
C16   C56   1.389596 A    
O6    Zn3   1.913643 S    
Zn3   O14   1.948086 S    
C94   H30   1.110649 S    
C8    C15   1.471099 S    
N1    C85   1.335539 A    
C72   C98   1.517860 S    
C36   C52   1.418463 A    
N17   H81   1.045715 S    
C95   H33   1.109343 S    
C97   H40   1.108903 S    
N10   H67   1.045394 S    
C31   C37   1.427142 A    
O15   C7    1.312954 A    
O8    C4    1.323471 A    
O4    C4    1.299473 A    
O11   C7    1.320655 A    
C56   H4    1.081584 S    
C20   C24   1.393720 A    
C31   C35   1.412297 A    
C57   C89   1.507273 S    
C81   C93   1.517623 S    
C5    C14   1.483252 S    
C76   N4    1.356582 A    
C92   H25   1.107596 S    
C101  H56   1.110042 S    
C87   N23   1.436346 S    
Zn4   O16   1.948086 S    
C99   H49   1.109928 S    
N23   H93   1.040894 S    
C18   C62   1.406787 A    
C96   H38   1.109384 S    
C99   H50   1.110056 S    
N11   H70   1.045106 S    
C17   C61   1.396414 A    
N7    H61   1.044781 S    
N22   H92   1.045053 S    
C11   C59   1.410936 A    
Zn3   N3    2.052576 S    
C19   H7    1.084756 S    
N20   H87   1.039198 S    
C67   C69   1.396840 A    
C36   C64   1.413252 A    
C96   H36   1.106587 S    
C69   N5    1.435909 S    
N15   H78   1.045536 S    
C46   C100  1.514706 S    
C9    C41   1.420578 A    
C94   H31   1.105647 S    
C70   N6    1.436894 S    
N13   H73   1.038912 S    
Zn2   O12   1.913763 S    
C94   H32   1.109996 S    
O1    C1    1.303862 A    
N16   H79   1.045713 S    
C12   C44   1.421046 A    
C81   C83   1.390273 A    
O13   C5    1.312395 A    
C16   C60   1.422834 A    
N5    H45   1.041710 S    
C66   C96   1.515777 S    
C102  H60   1.110577 S    
C19   C23   1.387050 A    
O12   C8    1.320256 A    
C100  H53   1.107093 S    
C101  H55   1.109945 S    
C40   C56   1.385784 A    
C20   H8    1.083945 S    
C1    C62   1.467684 S    
C44   C46   1.420098 A    
C67   N3    1.355908 A    
O1    Zn1   1.940775 S    
C68   H12   1.081899 S    
C58   C90   1.519412 S    
C89   H16   1.100893 S    
O5    C1    1.322021 A    
C45   C99   1.515446 S    
C11   C43   1.420480 A    
C12   C60   1.424775 A    
C21   N15   1.438071 S    
C18   H6    1.083762 S    
C41   C47   1.412974 A    
C6    C13   1.472050 S    
C97   H39   1.110487 S    
C34   C50   1.418130 A    
C25   C29   1.444258 A    
C48   C52   1.421079 A    
C100  H54   1.107334 S    
C53   H1    1.069469 S    
C98   H44   1.111202 S    
N24   H96   1.042929 S    
N19   H85   1.035709 S    
C97   H41   1.111115 S    
Zn2   N2    2.065082 S    
C73   C75   1.405669 A    
C54   H2    1.080565 S    
C68   N4    1.356252 A    
O3    Zn2   1.940775 S    
C77   C85   1.393031 A    
C25   N13   1.433556 S    
C91   H23   1.109406 S    
C32   C38   1.408741 A    
C14   C54   1.388070 A    
C82   C84   1.389560 A    
N14   H76   1.039597 S    
C13   C53   1.386212 A    
O7    Zn4   1.928760 S    
C69   C71   1.403839 A    
Zn1   N1    2.065082 S    
C48   C102  1.518086 S    
N14   H75   1.044669 S    
Zn4   O15   1.940758 S    
C10   N8    1.433779 S    
N21   H90   1.045932 S    
C7    C16   1.479608 S    
C9    N7    1.437022 S    
C66   C80   1.423206 A    
C65   C95   1.515744 S    
C24   N18   1.432129 S    
N22   H91   1.040704 S    
C35   C63   1.398688 A    
C89   H15   1.105718 S    
O2    C2    1.298436 A    
C39   C55   1.394914 A    
C74   C78   1.414714 A    
C38   C54   1.388301 A    
C73   C77   1.414980 A    
C70   C72   1.410120 A    
C86   H10   1.076908 S    
C101  H57   1.109062 S    
C88   N24   1.436647 S    
C91   H22   1.100906 S    
C26   C30   1.422139 A    
N18   H84   1.045561 S    
C51   N21   1.435862 S    
Zn4   N4    2.052576 S    
C47   C101  1.515213 S    
C39   C43   1.430707 A    
Zn2   O11   1.928883 S    
C23   N17   1.439928 S    
O16   C8    1.310431 A    
N12   H72   1.040396 S    
C90   H19   1.104683 S    
C49   N19   1.436134 S    
O6    C2    1.324038 A    
C27   C31   1.443626 A    
C92   H24   1.106980 S    
C78   C80   1.432534 A    
C99   H51   1.109091 S    
C37   C41   1.429940 A    
C74   C76   1.404353 A    
C17   H5    1.084352 S    
C3    C64   1.468864 S    
C60   C92   1.517962 S    
C59   C91   1.507213 S    
C28   N12   1.438923 S    
C2    C61   1.460282 S    
C68   C70   1.394151 A    
C29   C39   1.427566 A    
C82   C94   1.517526 S    
Zn1   O9    1.928883 S    
C40   C44   1.415541 A    
O9    C5    1.322555 A    
N8    H63   1.045332 S    
C78   C86   1.392729 A    
C10   C42   1.427151 A    
N2    C88   1.359061 A    
C89   H17   1.109382 S    
C30   C40   1.408298 A    
C67   H11   1.076548 S    
O4    Zn2   1.948105 S    
C26   N14   1.438351 S    
C90   H18   1.107034 S    
C14   C58   1.422560 A    
C11   N9    1.437045 S    
C66   C88   1.402995 A    
C13   C57   1.405520 A    
C102  H58   1.105067 S    
C46   C50   1.413761 A    
Zn3   O13   1.940758 S    
N6    H48   1.043355 S    
C72   C74   1.428775 A    
C29   C33   1.413505 A    
C15   C59   1.405117 A    
N24   H95   1.041001 S    
N19   H86   1.045655 S    
C52   N22   1.440984 S    
C47   C51   1.398782 A    
C42   C48   1.429418 A    
C95   H34   1.106442 S    
C17   C21   1.390000 A    
N18   H83   1.045540 S    
C80   C82   1.416802 A    
O5    Zn3   1.928760 S    
C22   N16   1.437091 S    
C19   C63   1.396034 A    
N9    H65   1.044776 S    
C10   C58   1.424719 A    
C32   C36   1.395898 A    
C28   C32   1.423692 A    
C71   C97   1.517677 S    
C9    C57   1.411529 A    
N12   H71   1.044831 S    
C4    C63   1.460802 S    
O8    Zn4   1.913643 S    
C100  H52   1.110635 S    
O14   C6    1.311187 A    
N21   H89   1.035935 S    
N13   H74   1.044995 S    
C21   C25   1.403591 A    
N2    C86   1.334688 A    
N10   H68   1.045354 S    
C23   C27   1.412732 A    
N17   H82   1.043072 S    
C35   C51   1.414067 A    
C55   H3    1.067571 S    
N16   H80   1.045571 S    
C65   C79   1.423933 A    
N9    H66   1.045462 S    
N8    H64   1.045394 S    
