data_mof_unit_58564.cif
_audit_creation_date              2012-12-10T18:46:21-0500
_audit_creation_method            fapswitch 2.2
_symmetry_space_group_name_H-M    P1
_symmetry_Int_Tables_number       1
_space_group_crystal_system       triclinic
_cell_length_a                    9.87932
_cell_length_b                    10.680479
_cell_length_c                    13.108257
_cell_angle_alpha                 90.862065
_cell_angle_beta                  69.966169
_cell_angle_gamma                 90.255854
_cell_volume                      1299.28926737

loop_
_atom_site_label
_atom_site_type_symbol
_atom_type_description
_atom_site_fract_x
_atom_site_fract_y
_atom_site_fract_z
_atom_type_partial_charge
C1    C     C_R   0.500016 0.739826 0.500420 0.884377
C2    C     C_R   0.367550 0.475865 0.821608 -0.123566
C3    C     C_R   0.631601 0.933614 0.450324 -0.279216
C4    C     C_R   0.420026 0.492009 0.703996 0.856309
C5    C     C_R   0.632918 0.061936 0.443835 0.502815
C6    C     C_R   0.502602 0.127244 0.492534 -0.145223
C7    C     C_R   0.372029 0.064610 0.539353 -0.267106
C8    C     C_R   0.371048 0.936493 0.541161 -0.185930
C9    C     C_R   0.501028 0.871994 0.497992 -0.094001
C10   C     C_R   0.952193 0.412249 0.442303 -0.079976
C11   C     C_R   0.095633 0.410542 0.442016 0.274175
C12   C     C_R   0.428826 0.464228 0.984800 0.093332
C13   C     C_R   0.046261 0.588579 0.557553 -0.126867
C14   C     C_R   0.902578 0.588326 0.557727 -0.078565
C15   C     C_R   0.501108 0.260009 0.497148 0.872246
C16   C     C_R   0.580009 0.501391 0.295654 0.888196
C17   C     C_R   0.779651 0.381714 0.015926 -0.213694
C18   C     C_R   0.628740 0.488358 0.178200 -0.152409
C19   C     C_R   0.227234 0.514114 0.883424 -0.193670
C20   C     C_R   0.184266 0.518028 0.996063 -0.193753
C21   C     C_R   0.284506 0.495444 0.046791 -0.148947
C22   C     C_3   0.780506 0.149846 0.286615 0.088115
C23   C     C_R   0.461928 0.434574 0.874133 0.078187
C24   C     C_3   0.857526 0.042337 0.210363 -0.369765
C25   C     C_3   0.899083 0.079430 0.091589 -0.964440
C26   C     C_3   0.189753 0.304626 0.380330 -0.839939
C27   C     C_3   0.469117 0.727117 0.136186 0.065132
C28   C     C_3   0.464996 0.813123 0.231589 -0.297182
C29   C     C_3   0.487097 0.949905 0.197914 -0.985395
C30   C     C_R   0.540970 0.458540 0.028782 -0.045938
C31   C     C_R   0.671191 0.394810 0.970408 0.117167
C32   C     C_R   0.690883 0.344591 0.867672 -0.225976
C33   C     C_R   0.588267 0.365385 0.819358 -0.190218
C34   C     C_R   0.530869 0.518920 0.126805 0.405264
C35   C     C_R   0.756536 0.425064 0.121147 -0.305396
H1    H     H_    0.835514 0.405309 0.159011 0.166537
H2    H     H_    0.245946 0.498479 0.134457 0.192659
H3    H     H_    0.074695 0.543516 0.043986 0.153901
H4    H     H_    0.607570 0.324378 0.739666 0.176868
H5    H     H_    0.731838 0.882336 0.415922 0.166364
H6    H     H_    0.849511 0.234214 0.264578 0.157525
H7    H     H_    0.677432 0.173827 0.274112 0.114033
H8    H     H_    0.956589 0.016497 0.227257 0.234124
H9    H     H_    0.785954 0.959177 0.224524 0.216969
H10   H     H_    0.801977 0.107148 0.072933 0.270141
H11   H     H_    0.951033 0.998751 0.038403 0.265260
H12   H     H_    0.271527 0.114564 0.576826 0.172616
H13   H     H_    0.976323 0.158838 0.073986 0.264370
H14   H     H_    0.295097 0.337666 0.325901 0.266098
H15   H     H_    0.201951 0.234535 0.437844 0.248113
H16   H     H_    0.140072 0.254356 0.327185 0.196317
H17   H     H_    0.392075 0.762580 0.098377 0.170004
H18   H     H_    0.579029 0.731229 0.072990 0.118904
H19   H     H_    0.359300 0.803720 0.297937 0.248296
H20   H     H_    0.551164 0.784567 0.263058 0.195964
H21   H     H_    0.591522 0.961623 0.130993 0.269438
H22   H     H_    0.487326 0.008962 0.268273 0.270035
H23   H     H_    0.269777 0.888097 0.578453 0.157337
H24   H     H_    0.398462 0.981970 0.170586 0.268646
H25   H     H_    0.915456 0.342193 0.397629 0.159414
H26   H     H_    0.079763 0.659388 0.603786 0.131339
H27   H     H_    0.827744 0.659026 0.604164 0.143135
H28   H     H_    0.787540 0.292417 0.823304 0.148759
H29   H     H_    0.879161 0.333125 0.972097 0.157267
H30   H     H_    0.151529 0.542380 0.844773 0.159446
N1    N     N_R   0.142790 0.500030 0.500030 -0.074778
N2    N     N_R   0.857180 0.499940 0.500010 -0.099065
O1    O     O_R   0.385370 0.683250 0.500010 -0.623451
O2    O     O_3   0.423598 0.605766 0.175558 -0.653842
O3    O     O_R   0.614700 0.683220 0.500010 -0.620422
O4    O     O_R   0.328400 0.499990 0.653620 -0.614205
O5    O     O_R   0.557730 0.499960 0.653620 -0.611790
O6    O     O_R   0.385300 0.316780 0.499990 -0.632722
O7    O     O_R   0.614630 0.316750 0.499990 -0.585914
O8    O     O_R   0.442270 0.500040 0.346380 -0.569142
O9    O     O_R   0.671600 0.500010 0.346380 -0.632305
O10   O     O_3   0.762973 0.122341 0.395725 -0.649771
Zn1   Zn    Zn3+2 0.346870 0.500020 0.500000 0.947009
Zn2   Zn    Zn3+2 0.653130 0.499980 0.500000 0.942372

loop_
_geom_bond_atom_site_label_1
_geom_bond_atom_site_label_2
_ccdc_geom_bond_type
C16   O8    A    
C10   H25   S    
C19   C20   A    
O9    Zn2   S    
C7    C8    A    
C10   N2    A    
C12   C23   A    
C33   H4    S    
C28   C29   S    
O5    Zn2   S    
C26   H15   S    
C17   H29   S    
C5    C6    A    
C22   H6    S    
C14   H27   S    
C1    O1    A    
C21   H2    S    
C8    H23   S    
C6    C15   S    
C29   H24   S    
C8    C9    A    
C23   C33   A    
C14   N2    A    
C18   C35   A    
C27   O2    S    
C11   N1    A    
C2    C19   A    
C13   C14   A    
C28   H20   S    
C13   N1    A    
O1    Zn1   S    
N1    Zn1   S    
C30   C34   A    
N2    Zn2   S    
C24   C25   S    
C22   O10   S    
C26   H14   S    
C28   H19   S    
C11   C26   S    
C12   C21   A    
C35   H1    S    
C7    H12   S    
C2    C4    S    
C3    C9    A    
C20   H3    S    
C31   C32   A    
C34   O2    S    
C30   C31   A    
O6    Zn1   S    
C1    C9    S    
C18   C34   A    
C25   H13   S    
C15   O6    A    
C29   H22   S    
C3    H5    S    
O7    Zn2   S    
C24   H9    S    
C22   C24   S    
C5    O10   S    
C25   H10   S    
C4    O5    A    
C27   H17   S    
C12   C30   A    
O3    Zn2   S    
C16   O9    A    
C32   H28   S    
C3    C5    A    
C27   H18   S    
C6    C7    A    
C29   H21   S    
C1    O3    A    
C32   C33   A    
C26   H16   S    
C22   H7    S    
C17   C31   A    
C19   H30   S    
O4    Zn1   S    
O8    Zn1   S    
C10   C11   A    
C15   O7    A    
C13   H26   S    
C20   C21   A    
C16   C18   S    
C2    C23   A    
C24   H8    S    
C17   C35   A    
C25   H11   S    
C4    O4    A    
C27   C28   S    
