data_mof_unit_49729.cif
_audit_creation_date              2012-12-10T17:42:38-0500
_audit_creation_method            fapswitch 2.2
_symmetry_space_group_name_H-M    P1
_symmetry_Int_Tables_number       1
_space_group_crystal_system       triclinic
_cell_length_a                    9.996182
_cell_length_b                    10.850923
_cell_length_c                    13.139277
_cell_angle_alpha                 94.351149
_cell_angle_beta                  70.150439
_cell_angle_gamma                 87.985124
_cell_volume                      1333.82790995

loop_
_atom_site_label
_atom_site_type_symbol
_atom_type_description
_atom_site_fract_x
_atom_site_fract_y
_atom_site_fract_z
_atom_type_partial_charge
C1    C     C_R   0.500826 0.738551 0.491872 0.915239
C2    C     C_R   0.444088 0.455769 0.977557 -0.013444
C3    C     C_R   0.478924 0.430741 0.864899 0.054276
C4    C     C_R   0.553772 0.447723 0.022030 0.024848
C5    C     C_R   0.690651 0.392809 0.958890 0.100861
C6    C     C_R   0.721186 0.356282 0.848567 0.394984
C7    C     C_R   0.614321 0.372730 0.803230 -0.285259
C8    C     C_R   0.530872 0.496387 0.127911 -0.207811
C9    C     C_R   0.759478 0.407432 0.119363 -0.208783
C10   C     C_R   0.376783 0.464254 0.817229 -0.159861
C11   C     C_R   0.254249 0.891345 0.471887 -0.211098
C12   C     C_R   0.422701 0.486094 0.701829 0.853623
C13   C     C_R   0.120141 0.956018 0.513656 0.481930
C14   C     C_R   0.108410 0.073563 0.566876 -0.178010
C15   C     C_R   0.229490 0.128804 0.573059 -0.229044
C16   C     C_R   0.367081 0.067729 0.523618 0.040247
C17   C     C_R   0.374996 0.941635 0.488523 0.034852
C18   C     C_R   0.500203 0.870139 0.480070 -0.221956
C19   C     C_R   0.623110 0.927646 0.478547 -0.296728
C20   C     C_R   0.626431 0.054201 0.483320 0.483152
C21   C     C_R   0.497010 0.126644 0.509276 -0.225748
C22   C     C_R   0.777324 0.643062 0.657411 -0.131496
C23   C     C_R   0.499167 0.260308 0.505114 0.859239
C24   C     C_R   0.790343 0.700581 0.748412 -0.362654
C25   C     C_R   0.924321 0.719926 0.754000 0.419864
C26   C     C_R   0.048389 0.657896 0.670462 0.440529
C27   C     C_R   0.030491 0.573241 0.583509 -0.078087
C28   C     C_R   0.887575 0.570143 0.580611 0.007365
C29   C     C_R   0.968611 0.440243 0.417999 0.422541
C30   C     C_R   0.109057 0.436000 0.420015 0.435600
C31   C     C_R   0.579553 0.495116 0.296046 0.846284
C32   C     C_R   0.793028 0.373173 0.008694 -0.142667
C33   C     C_R   0.628563 0.471102 0.178464 -0.067848
C34   C     C_R   0.233580 0.489613 0.883065 -0.363198
C35   C     C_R   0.195303 0.500677 0.996313 0.537300
C36   C     C_R   0.299845 0.484424 0.042632 -0.214127
H1    H     H_    0.834900 0.383672 0.158576 0.213423
H2    H     H_    0.262154 0.803056 0.425841 0.159346
H3    H     H_    0.004957 0.122595 0.602998 0.176344
H4    H     H_    0.212618 0.217557 0.620304 0.198531
H5    H     H_    0.678021 0.663437 0.648096 0.233665
H6    H     H_    0.693255 0.743012 0.807818 0.165432
H7    H     H_    0.896775 0.327613 0.963557 0.201089
H8    H     H_    0.435315 0.553273 0.173616 0.156637
H9    H     H_    0.152258 0.502729 0.846927 0.165938
H10   H     H_    0.264115 0.490236 0.130308 0.197299
H11   H     H_    0.636898 0.334678 0.720260 0.187137
H12   H     H_    0.719928 0.874453 0.472097 0.218629
N1    N     N_R   0.856860 0.501200 0.500990 -0.192197
N2    N     N_R   0.142450 0.501280 0.501020 -0.181954
O1    O     O_R   0.385310 0.683220 0.500000 -0.553561
O2    O     O_R   0.614640 0.683250 0.500010 -0.646226
O3    O     O_R   0.328400 0.499950 0.653610 -0.575882
O4    O     O_R   0.557730 0.499970 0.653620 -0.639073
O5    O     O_R   0.385360 0.316750 0.499990 -0.649877
O6    O     O_R   0.614690 0.316780 0.500000 -0.609718
O7    O     O_R   0.442270 0.500030 0.346380 -0.614100
O8    O     O_R   0.671600 0.500050 0.346390 -0.641259
Zn1   Zn    Zn3+2 0.346880 0.499980 0.499990 0.963630
Zn2   Zn    Zn3+2 0.653120 0.500020 0.500010 0.919842
O9    O     O_3   0.998232 0.904323 0.508727 -0.798631
H13   H     H_    0.023406 0.818894 0.472614 0.314056
O10   O     O_3   0.753967 0.103778 0.477929 -0.621666
C37   C     C_3   0.835581 0.120460 0.368857 0.151863
H14   H     H_    0.927048 0.172610 0.372755 0.220830
H15   H     H_    0.773112 0.175066 0.329869 0.116692
C38   C     C_3   0.899130 0.000025 0.297030 -0.438120
H16   H     H_    0.954243 0.940894 0.337512 0.267442
H17   H     H_    0.812557 0.949391 0.282188 0.224228
C39   C     C_3   0.005318 0.026897 0.187360 -0.916281
H18   H     H_    0.951318 0.082445 0.143175 0.264782
H19   H     H_    0.050944 0.938572 0.137154 0.254410
H20   H     H_    0.094031 0.078300 0.198935 0.293831
O11   O     O_3   0.948802 0.383052 0.328078 -0.755209
H21   H     H_    0.847426 0.367486 0.349082 0.351016
O12   O     O_3   0.938927 0.803079 0.835963 -0.682537
C40   C     C_3   0.828685 0.898260 0.882563 0.059780
H22   H     H_    0.858492 0.956178 0.943844 0.156485
H23   H     H_    0.727538 0.859899 0.930893 0.147080
C41   C     C_3   0.811756 0.985904 0.800006 -0.354388
H24   H     H_    0.890091 0.058029 0.790523 0.237827
H25   H     H_    0.833079 0.936514 0.718615 0.270394
C42   C     C_3   0.661556 0.047946 0.837613 -0.886635
H26   H     H_    0.581628 0.977069 0.847717 0.247785
H27   H     H_    0.651640 0.107866 0.775449 0.277120
H28   H     H_    0.639011 0.105222 0.916024 0.265443
O13   O     O_3   0.183688 0.697467 0.656942 -0.598598
C43   C     C_3   0.214645 0.744953 0.750010 0.210684
H29   H     H_    0.324750 0.712130 0.739793 0.109236
H30   H     H_    0.149143 0.708265 0.825984 0.133501
C44   C     C_3   0.217834 0.886724 0.757856 -0.306809
H31   H     H_    0.318857 0.912742 0.698605 0.200958
H32   H     H_    0.129172 0.930232 0.737776 0.257483
C45   C     C_3   0.211657 0.939030 0.870618 -0.958570
H33   H     H_    0.110865 0.917226 0.933147 0.279355
H34   H     H_    0.216679 0.041235 0.872892 0.274245
H35   H     H_    0.303184 0.899289 0.889957 0.248365
O14   O     O_3   0.855766 0.306174 0.786220 -0.812953
H36   H     H_    0.861926 0.294447 0.709174 0.330468
O15   O     O_3   0.210567 0.364153 0.336989 -0.738013
H37   H     H_    0.287328 0.338754 0.363387 0.374379
O16   O     O_3   0.055707 0.522748 0.065021 -0.642067
C46   C     C_3   0.995354 0.635127 0.046883 0.075161
H38   H     H_    0.942438 0.614789 0.986002 0.185479
H39   H     H_    0.075433 0.705068 0.016829 0.110031
C47   C     C_3   0.886548 0.691453 0.154887 -0.283761
H40   H     H_    0.838638 0.617284 0.205821 0.268471
H41   H     H_    0.941753 0.747254 0.200864 0.197401
C48   C     C_3   0.767495 0.770895 0.139032 -0.985076
H42   H     H_    0.810559 0.855824 0.101907 0.267228
H43   H     H_    0.683348 0.797974 0.218984 0.253835
H44   H     H_    0.717992 0.718699 0.086545 0.273954

loop_
_geom_bond_atom_site_label_1
_geom_bond_atom_site_label_2
_ccdc_geom_bond_type
O13   C43   S    
C16   C21   A    
O5    Zn1   S    
C24   H6    S    
C19   C20   A    
C4    C8    A    
C35   O16   S    
O3    Zn1   S    
C23   O6    A    
O4    Zn2   S    
C40   H22   S    
C26   C27   A    
N1    Zn2   S    
N2    Zn1   S    
C6    O14   S    
C31   O8    A    
C18   C19   A    
C3    C7    A    
C48   H43   S    
C5    C6    A    
O7    Zn1   S    
C22   H5    S    
C47   H40   S    
O8    Zn2   S    
C15   C16   A    
C30   O15   S    
C34   C35   A    
O2    Zn2   S    
C9    C32   A    
O16   C46   S    
C14   H3    S    
C46   H39   S    
C35   C36   A    
C26   O13   S    
C31   C33   S    
C36   H10   S    
C39   H18   S    
C12   O3    A    
C27   N2    A    
C5    C32   A    
C30   N2    A    
C22   C28   A    
C13   C14   A    
C9    C33   A    
C45   H33   S    
C41   C42   S    
C40   H23   S    
O11   H21   S    
C38   H16   S    
C37   C38   S    
C24   C25   A    
C41   H25   S    
C48   H44   S    
C44   H31   S    
C19   H12   S    
C16   C17   A    
C29   N1    A    
C29   O11   S    
C45   H35   S    
C25   C26   A    
O6    Zn2   S    
C38   H17   S    
C7    H11   S    
C11   H2    S    
C2    C4    A    
C29   C30   A    
C44   H32   S    
C28   N1    A    
C42   H26   S    
C43   C44   S    
C20   C21   A    
C39   H20   S    
C9    H1    S    
C17   C18   A    
C1    C18   S    
C10   C34   A    
C34   H9    S    
O12   C40   S    
C45   H34   S    
C1    O1    A    
C10   C12   S    
C42   H27   S    
C43   H30   S    
C21   C23   S    
C22   C24   A    
O1    Zn1   S    
C46   H38   S    
C40   C41   S    
C2    C36   A    
C11   C17   A    
C8    H8    S    
C41   H24   S    
C23   O5    A    
C6    C7    A    
C38   C39   S    
C37   H14   S    
C25   O12   S    
C20   O10   S    
C2    C3    A    
C3    C10   A    
C48   H42   S    
C44   C45   S    
C11   C13   A    
C31   O7    A    
C47   H41   S    
O15   H37   S    
C32   H7    S    
C46   C47   S    
C8    C33   A    
O9    H13   S    
C1    O2    A    
C15   H4    S    
O10   C37   S    
C4    C5    A    
C42   H28   S    
C13   O9    S    
C43   H29   S    
O14   H36   S    
C27   C28   A    
C14   C15   A    
C39   H19   S    
C12   O4    A    
C37   H15   S    
C47   C48   S    
