data_mof_unit_26487.cif
_audit_creation_date              2012-12-11T15:49:10-0500
_audit_creation_method            fapswitch 2.2
_symmetry_space_group_name_H-M    P1
_symmetry_Int_Tables_number       1
_space_group_crystal_system       triclinic
_cell_length_a                    21.756272
_cell_length_b                    7.22169
_cell_length_c                    14.682093
_cell_angle_alpha                 90.421448
_cell_angle_beta                  106.204822
_cell_angle_gamma                 89.97958
_cell_volume                      2215.09480421

loop_
_atom_site_label
_atom_site_type_symbol
_atom_type_description
_atom_site_fract_x
_atom_site_fract_y
_atom_site_fract_z
_atom_type_partial_charge
O1    O     O_R   0.335860 0.638190 0.002110 -0.535763
O2    O     O_R   0.664140 0.361810 0.997890 -0.532328
O3    O     O_R   0.164140 0.138190 0.997890 -0.517508
O4    O     O_R   0.835860 0.861810 0.002110 -0.538920
O5    O     O_R   0.217530 0.305920 0.861960 -0.521166
O6    O     O_R   0.782470 0.694080 0.138040 -0.540942
O7    O     O_R   0.282470 0.805920 0.138040 -0.538062
O8    O     O_R   0.717530 0.194080 0.861960 -0.537285
C1    C     C_R   0.205057 0.475604 0.825094 0.796680
C2    C     C_R   0.793631 0.523286 0.175095 0.754781
C3    C     C_R   0.294474 0.977935 0.174972 0.750538
C4    C     C_R   0.706120 0.023155 0.825288 0.761640
O9    O     O_R   0.338690 0.308320 0.993240 -0.529367
O10   O     O_R   0.661310 0.691680 0.006760 -0.538660
O11   O     O_R   0.161310 0.808320 0.006760 -0.541584
O12   O     O_R   0.838690 0.191680 0.993240 -0.541236
O13   O     O_R   0.286170 0.140430 0.130100 -0.520387
O14   O     O_R   0.713830 0.859570 0.869900 -0.517025
O15   O     O_R   0.213830 0.640430 0.869900 -0.534687
O16   O     O_R   0.786170 0.359570 0.130100 -0.512463
C5    C     C_R   0.364275 0.477532 0.994683 0.740286
C6    C     C_R   0.635539 0.522455 0.004455 0.713989
C7    C     C_R   0.135113 0.978513 0.001785 0.683584
C8    C     C_R   0.865228 0.021912 0.999569 0.711902
O17   O     O_3   0.232630 0.472410 0.044750 -0.369509
O18   O     O_3   0.767370 0.527590 0.955250 -0.381250
O19   O     O_3   0.267370 0.972410 0.955250 -0.383005
O20   O     O_3   0.732630 0.027590 0.044750 -0.370665
V1    V     V_3+5 0.253220 0.196620 0.991700 1.619379
V2    V     V_3+5 0.746780 0.803380 0.008300 1.561326
V3    V     V_3+5 0.246780 0.696620 0.008300 1.565892
V4    V     V_3+5 0.753220 0.303380 0.991700 1.582072
C9    C     C_R   0.027512 0.836048 0.982725 -0.151886
C10   C     C_R   0.973332 0.165243 0.020474 -0.081773
C11   C     C_R   0.475271 0.346882 0.034510 -0.043166
C12   C     C_R   0.524166 0.651560 0.962311 -0.100117
H1    H     H_    0.047240 0.708165 0.966628 0.189488
H2    H     H_    0.953652 0.292374 0.037098 0.170476
H3    H     H_    0.456924 0.229859 0.064456 0.201868
H4    H     H_    0.542401 0.767534 0.931303 0.205330
C13   C     C_R   0.964127 0.838129 0.987543 0.040576
C14   C     C_R   0.037519 0.162740 0.019433 0.044340
C15   C     C_R   0.541458 0.356843 0.043696 -0.010930
C16   C     C_R   0.457858 0.641195 0.952972 -0.016992
C17   C     C_R   0.934795 0.007134 0.002300 -0.136619
C18   C     C_R   0.066056 0.994428 0.000651 -0.131035
C19   C     C_R   0.566754 0.510964 0.005990 -0.140540
C20   C     C_R   0.432816 0.488354 0.991851 -0.117519
C21   C     C_R   0.678115 0.018582 0.722064 -0.128987
C22   C     C_R   0.324408 0.991612 0.278353 -0.107284
C23   C     C_R   0.820388 0.515768 0.279036 -0.101347
C24   C     C_R   0.174899 0.480782 0.721813 -0.131109
C25   C     C_R   0.689209 0.068942 0.563070 0.000533
C26   C     C_R   0.313095 0.009890 0.438894 0.027134
C27   C     C_R   0.806962 0.557085 0.437456 0.016180
C28   C     C_R   0.185091 0.508343 0.561282 0.011666
C29   C     C_R   0.714902 0.073017 0.662386 -0.237784
C30   C     C_R   0.286592 0.983041 0.340701 -0.285311
C31   C     C_R   0.781820 0.556006 0.338085 -0.239196
C32   C     C_R   0.212734 0.502677 0.659951 -0.252989
C33   C     C_R   0.613188 0.977795 0.683654 0.321562
C34   C     C_R   0.390299 0.023257 0.314274 0.377909
C35   C     C_R   0.884973 0.474893 0.319463 0.358458
C36   C     C_R   0.108235 0.465744 0.685223 0.356866
C37   C     C_R   0.583468 0.016411 0.587320 0.013142
C38   C     C_R   0.419993 0.015126 0.413834 0.006257
C39   C     C_R   0.914487 0.523081 0.415838 0.019632
C40   C     C_R   0.078398 0.510030 0.588653 0.024038
C41   C     C_R   0.622228 0.038235 0.524638 -0.037925
C42   C     C_R   0.380647 0.036299 0.476533 -0.066766
C43   C     C_R   0.874808 0.542625 0.477983 -0.082400
C44   C     C_R   0.117152 0.507152 0.524772 -0.086443
C45   C     C_R   0.515858 0.037948 0.550268 -0.028910
C46   C     C_R   0.487659 0.999507 0.452762 0.020035
C47   C     C_R   0.982368 0.538494 0.452754 -0.039210
C48   C     C_R   0.010791 0.540653 0.552131 -0.037891
C49   C     C_R   0.529665 0.948886 0.398273 -0.113322
C50   C     C_R   0.477442 0.113448 0.604913 -0.053578
C51   C     C_R   0.970938 0.586606 0.610411 -0.056534
C52   C     C_R   0.022997 0.562932 0.393638 -0.055378
C53   C     C_R   0.591422 0.023770 0.426652 0.318891
C54   C     C_R   0.410114 0.100932 0.570981 0.381705
C55   C     C_R   0.905049 0.550537 0.577078 0.402133
C56   C     C_R   0.086514 0.506508 0.426503 0.406313
H5    H     H_    0.235526 0.960347 0.311986 0.179231
H6    H     H_    0.765314 0.102593 0.693453 0.196839
H7    H     H_    0.264208 0.514029 0.689014 0.207506
H8    H     H_    0.731355 0.583151 0.306222 0.178633
C57   C     C_2   0.932894 0.658528 0.988201 0.804093
O21   O     O_2   0.919574 0.559304 0.917591 -0.504328
O22   O     O_R   0.917872 0.605668 0.070868 -0.641799
H9    H     H_    0.886606 0.499099 0.060242 0.312989
C58   C     C_2   0.071622 0.341284 0.037345 0.793085
O23   O     O_2   0.090757 0.411937 0.975034 -0.524576
O24   O     O_R   0.079084 0.433114 0.123709 -0.602727
H10   H     H_    0.103496 0.553851 0.127746 0.322693
C59   C     C_2   0.582351 0.207104 0.097463 0.879494
O25   O     O_2   0.635751 0.242067 0.149204 -0.526574
O26   O     O_R   0.558665 0.026163 0.091623 -0.641233
H11   H     H_    0.591070 0.935920 0.130423 0.314277
C60   C     C_2   0.416039 0.785808 0.896014 0.859483
O27   O     O_2   0.434760 0.946141 0.899803 -0.510119
O28   O     O_R   0.356373 0.737760 0.834900 -0.660126
H12   H     H_    0.332781 0.848069 0.799241 0.319492
Cl1   Cl    Cl    0.611613 0.171806 0.344465 -0.520485
Cl2   Cl    Cl    0.365356 0.203968 0.642319 -0.542145
Cl3   Cl    Cl    0.869198 0.457807 0.661362 -0.474683
Cl4   Cl    Cl    0.116224 0.372111 0.346709 -0.486561
Cl5   Cl    Cl    0.431360 0.108930 0.234399 -0.627942
Cl6   Cl    Cl    0.571518 0.858166 0.753233 -0.661171
Cl7   Cl    Cl    0.065683 0.354018 0.756233 -0.591352
Cl8   Cl    Cl    0.924371 0.334771 0.253196 -0.631690
C61   C     C_2   0.735092 0.078369 0.504456 0.931788
O29   O     O_2   0.784264 0.168843 0.532407 -0.523613
O30   O     O_R   0.725128 0.972808 0.421381 -0.656121
H13   H     H_    0.760583 0.988742 0.389565 0.309442
C62   C     C_2   0.268731 0.993541 0.498964 0.927990
O31   O     O_2   0.215631 0.064173 0.473640 -0.514138
O32   O     O_R   0.286433 0.890375 0.582472 -0.637171
H14   H     H_    0.252294 0.890974 0.617446 0.296603
C63   C     C_2   0.760571 0.591214 0.493323 0.913053
O33   O     O_2   0.707192 0.521596 0.467571 -0.520559
O34   O     O_R   0.776123 0.708721 0.572379 -0.641653
H15   H     H_    0.741698 0.710425 0.606792 0.306455
C64   C     C_2   0.228414 0.537871 0.500036 0.917063
O35   O     O_2   0.282392 0.473702 0.522714 -0.506676
O36   O     O_R   0.208863 0.645282 0.418289 -0.646072
H16   H     H_    0.241068 0.642960 0.380002 0.302966
C65   C     C_2   0.515615 0.788721 0.329676 0.950213
O37   O     O_2   0.467308 0.696329 0.321179 -0.510630
O38   O     O_R   0.557595 0.733554 0.277580 -0.609670
H17   H     H_    0.599251 0.804505 0.292552 0.301291
C66   C     C_2   0.507564 0.232279 0.689520 0.922856
O39   O     O_2   0.492552 0.215323 0.763369 -0.481108
O40   O     O_R   0.554394 0.361430 0.684554 -0.649027
H18   H     H_    0.572552 0.430283 0.746693 0.320958
C67   C     C_2   0.994487 0.711215 0.695073 0.909078
O41   O     O_2   0.964380 0.727497 0.753626 -0.486101
O42   O     O_R   0.049781 0.817634 0.705286 -0.660617
H19   H     H_    0.060719 0.896745 0.765021 0.320061
C68   C     C_2   0.004457 0.684594 0.308224 0.928357
O43   O     O_2   0.036392 0.686511 0.251668 -0.494300
O44   O     O_R   0.952424 0.805239 0.295293 -0.654742
H20   H     H_    0.945035 0.881260 0.235407 0.331873

loop_
_geom_bond_atom_site_label_1
_geom_bond_atom_site_label_2
_ccdc_geom_bond_type
O17   V3    S    
C13   C57   S    
C27   C63   S    
O1    C5    A    
C58   O23   D    
C27   C31   A    
O19   V1    S    
C14   C58   S    
O13   V1    S    
C45   C46   A    
O3    C7    A    
O24   H10   S    
C10   C14   A    
C48   C51   A    
C52   C56   A    
O15   V3    S    
C4    C21   S    
C21   C29   A    
O34   H15   S    
C38   C42   A    
O7    C3    A    
C67   O42   S    
C60   O27   D    
O40   H18   S    
C8    C17   S    
C36   C40   A    
O9    V1    S    
C61   O29   D    
C62   O32   S    
O16   V4    S    
O4    C8    A    
C2    C23   S    
O44   H20   S    
C38   C46   A    
O1    V3    S    
C37   C45   A    
C29   H6    S    
C12   C19   A    
O2    V4    S    
C14   C18   A    
C35   Cl8   S    
O3    V1    S    
C31   H8    S    
C24   C32   A    
C1    O15   A    
C2    O16   A    
C28   C44   A    
C46   C49   A    
O2    C6    A    
C45   C50   A    
O14   V2    S    
C16   C60   S    
C57   O22   S    
C11   C15   A    
C47   C52   A    
O5    V1    S    
C40   C44   A    
C5    C20   S    
O11   C7    A    
C6    C19   S    
C25   C41   A    
O12   C8    A    
C7    C18   S    
C9    C18   A    
C1    C24   S    
O10   V2    S    
C33   Cl6   S    
C59   O26   S    
C32   H7    S    
C25   C61   S    
C59   O25   D    
C43   C55   A    
C53   Cl1   S    
C21   C33   A    
C34   C38   A    
O9    C5    A    
O8    V4    S    
C12   H4    S    
O7    V3    S    
C24   C36   A    
O22   H9    S    
C25   C29   A    
O18   V4    S    
C36   Cl7   S    
C9    H1    S    
C28   C32   A    
C22   C30   A    
C11   H3    S    
C47   C48   A    
C35   C39   A    
O5    C1    A    
C50   C54   A    
O26   H11   S    
C26   C42   A    
C49   C53   A    
O8    C4    A    
C23   C35   A    
C10   C17   A    
C49   C65   S    
C28   C64   S    
O32   H14   S    
C16   C20   A    
C63   O33   D    
C44   C56   A    
C41   C53   A    
O6    V2    S    
C64   O35   D    
C22   C34   A    
C12   C16   A    
C23   C31   A    
O36   H16   S    
C30   H5    S    
C64   O36   S    
C65   O37   D    
C26   C30   A    
C3    O13   A    
C51   C67   S    
C10   H2    S    
C15   C59   S    
O6    C2    A    
O42   H19   S    
O11   V3    S    
O12   V4    S    
C67   O41   D    
C60   O28   S    
C9    C13   A    
O10   C6    A    
C68   O44   S    
C3    C22   S    
C68   O43   D    
C51   C55   A    
C40   C48   A    
C66   O39   D    
C34   Cl5   S    
C37   C41   A    
O20   V2    S    
C56   Cl4   S    
C55   Cl3   S    
C39   C43   A    
C54   Cl2   S    
O38   H17   S    
C42   C54   A    
C50   C66   S    
O4    V2    S    
C63   O34   S    
C11   C20   A    
C33   C37   A    
C39   C47   A    
C58   O24   S    
C52   C68   S    
C26   C62   S    
C4    O14   A    
O28   H12   S    
C66   O40   S    
C13   C17   A    
C61   O30   S    
C57   O21   D    
C62   O31   D    
C15   C19   A    
C27   C43   A    
O30   H13   S    
C65   O38   S    
