data_mof_unit_25184.cif
_audit_creation_date              2012-12-11T15:53:35-0500
_audit_creation_method            fapswitch 2.2
_symmetry_space_group_name_H-M    P1
_symmetry_Int_Tables_number       1
_space_group_crystal_system       triclinic
_cell_length_a                    6.922925
_cell_length_b                    14.545815
_cell_length_c                    15.977695
_cell_angle_alpha                 90.49092
_cell_angle_beta                  89.641275
_cell_angle_gamma                 89.958835
_cell_volume                      1608.85620463

loop_
_atom_site_label
_atom_site_type_symbol
_atom_type_description
_atom_site_fract_x
_atom_site_fract_y
_atom_site_fract_z
_atom_type_partial_charge
O1    O     O_R   0.361600 0.167310 0.164620 -0.542101
O2    O     O_R   0.638400 0.832690 0.835380 -0.542100
O3    O     O_R   0.691080 0.157570 0.338750 -0.547631
O4    O     O_R   0.308920 0.842430 0.661250 -0.547630
O5    O     O_R   0.861410 0.336420 0.339360 -0.554756
O6    O     O_R   0.138590 0.663580 0.660640 -0.554760
C1    C     C_R   0.521791 0.135244 0.367542 0.665134
C2    C     C_R   0.478209 0.864756 0.632458 0.665139
O7    O     O_R   0.691320 0.156280 0.165240 -0.510468
O8    O     O_R   0.308680 0.843720 0.834760 -0.510467
O9    O     O_R   0.861640 0.335130 0.164600 -0.542082
O10   O     O_R   0.138360 0.664870 0.835400 -0.542084
C3    C     C_R   0.523092 0.132660 0.137019 0.770145
C4    C     C_R   0.476908 0.867340 0.862981 0.770147
O11   O     O_R   0.361370 0.168600 0.339370 -0.551966
O12   O     O_R   0.638630 0.831400 0.660630 -0.551964
O13   O     O_3   0.527990 0.310540 0.251980 -0.353860
O14   O     O_3   0.472010 0.689460 0.748020 -0.353869
V1    V     V_3+5 0.802830 0.240980 0.251990 1.517882
V2    V     V_3+5 0.197170 0.759020 0.748010 1.517871
O15   O     O_R   0.191360 0.346160 0.165220 -0.508922
O16   O     O_R   0.808640 0.653840 0.834780 -0.508925
C5    C     C_R   0.023002 0.369430 0.137038 0.776649
C6    C     C_R   0.976998 0.630570 0.862961 0.776650
O17   O     O_R   0.191130 0.347440 0.338740 -0.527965
O18   O     O_R   0.808870 0.652560 0.661260 -0.527968
C7    C     C_R   0.021715 0.369863 0.367359 0.717884
C8    C     C_R   0.978285 0.630137 0.632641 0.717884
V3    V     V_3+5 0.302840 0.262750 0.251990 1.547457
V4    V     V_3+5 0.697160 0.737250 0.748010 1.547446
O19   O     O_3   0.027820 0.193180 0.251990 -0.364130
O20   O     O_3   0.972180 0.806820 0.748010 -0.364127
C9    C     C_3   0.823640 0.491372 0.464429 -0.268036
C10   C     C_3   0.176360 0.508629 0.535570 -0.267969
C11   C     C_3   0.874896 0.471169 0.556330 0.522935
C12   C     C_3   0.125105 0.528831 0.443669 0.522903
H1    H     H_    0.679313 0.483460 0.435382 0.151801
H2    H     H_    0.320687 0.516549 0.564615 0.151780
C13   C     C_3   0.990232 0.560920 0.562345 -0.102298
C14   C     C_3   0.009768 0.439081 0.437654 -0.102316
C15   C     C_3   0.941421 0.582245 0.469944 -0.293022
C16   C     C_3   0.058579 0.417756 0.530055 -0.292925
H3    H     H_    0.895597 0.650050 0.445605 0.126232
H4    H     H_    0.104390 0.349951 0.554396 0.126260
C17   C     C_R   0.837904 0.497623 0.947448 0.416644
C18   C     C_R   0.162097 0.502376 0.052551 0.416630
C19   C     C_R   0.852732 0.436757 0.014611 -0.184925
C20   C     C_R   0.147268 0.563242 0.985389 -0.184933
H5    H     H_    0.738155 0.387163 0.024228 0.184599
H6    H     H_    0.261845 0.612836 0.975771 0.184597
C21   C     C_R   0.013786 0.437511 0.067834 -0.200333
C22   C     C_R   0.986214 0.562488 0.932165 -0.200340
C23   C     C_R   0.679486 0.025858 0.467341 -0.147413
C24   C     C_R   0.320514 0.974141 0.532659 -0.147418
H7    H     H_    0.820298 0.044637 0.443107 0.120008
H8    H     H_    0.179702 0.955363 0.556892 0.120010
C25   C     C_R   0.668864 0.960619 0.531046 -0.149898
C26   C     C_R   0.331136 0.039381 0.468954 -0.149902
H9    H     H_    0.801870 0.931102 0.553946 0.117502
H10   H     H_    0.198130 0.068898 0.446054 0.117503
C27   C     C_R   0.489243 0.933921 0.564601 -0.039460
C28   C     C_R   0.510756 0.066079 0.435399 -0.039459
C29   C     C_R   0.663923 0.999444 0.051496 0.414686
C30   C     C_R   0.336076 0.000556 0.948504 0.414687
C31   C     C_R   0.648666 0.937413 0.984414 -0.178589
C32   C     C_R   0.351333 0.062586 0.015586 -0.178586
H11   H     H_    0.764434 0.888365 0.974014 0.187397
H12   H     H_    0.235566 0.111635 0.025986 0.187398
C33   C     C_R   0.485927 0.936415 0.932218 -0.204102
C34   C     C_R   0.514073 0.063585 0.067782 -0.204101
O21   O     O_3   0.743748 0.445081 0.619770 -0.540312
C35   C     C_3   0.647830 0.363693 0.595474 0.067740
H13   H     H_    0.752550 0.306699 0.584239 0.114996
H14   H     H_    0.561044 0.374755 0.538022 0.107055
C36   C     C_3   0.510401 0.335034 0.665134 -0.597097
H15   H     H_    0.402952 0.390314 0.677551 0.230092
H16   H     H_    0.432764 0.271388 0.646409 0.160735
H17   H     H_    0.592506 0.321684 0.723286 0.253784
O22   O     O_3   0.256284 0.554904 0.380236 -0.540329
C37   C     C_3   0.351983 0.636374 0.404471 0.067761
H18   H     H_    0.438601 0.625458 0.461998 0.106999
H19   H     H_    0.247120 0.693346 0.415549 0.115066
C38   C     C_3   0.489584 0.664961 0.334849 -0.597112
H20   H     H_    0.407656 0.678075 0.276594 0.253947
H21   H     H_    0.566908 0.728731 0.353492 0.160789
H22   H     H_    0.597301 0.609734 0.322640 0.229902
Cl1   Cl    Cl    0.634112 0.485744 0.882528 -0.626761
Cl2   Cl    Cl    0.365891 0.514253 0.117470 -0.626822
Cl3   Cl    Cl    0.870689 0.989983 0.114795 -0.635251
Cl4   Cl    Cl    0.129311 0.010017 0.885205 -0.635238

loop_
_geom_bond_atom_site_label_1
_geom_bond_atom_site_label_2
_ccdc_geom_bond_type
C6    C22   S    
C32   H12   S    
C29   C31   A    
C26   C28   A    
O13   V3    S    
C10   C16   S    
C30   Cl4   S    
O4    C2    A    
V1    O19   S    
C19   H5    S    
O9    V1    S    
C17   Cl1   S    
O3    C1    A    
C37   C38   S    
C24   C26   A    
C25   H9    S    
C3    C34   S    
C26   H10   S    
C17   C19   A    
C11   C16   S    
O7    C3    A    
C9    C11   S    
O5    C7    A    
O7    V1    S    
O6    C8    A    
O8    V2    S    
C31   H11   S    
O3    V1    S    
O14   V4    S    
C10   C12   S    
C2    C27   S    
C14   C16   S    
C11   O21   S    
C2    O12   A    
C15   H3    S    
O10   V2    S    
C12   C15   S    
C16   H4    S    
C35   C36   S    
O11   V3    S    
C18   Cl2   S    
C23   H7    S    
O17   V3    S    
C24   H8    S    
C9    C14   S    
C10   C13   S    
C12   C14   S    
C37   H19   S    
O8    C4    A    
C23   C25   A    
C35   H13   S    
C19   C21   A    
C1    O11   A    
C8    C13   S    
O15   V3    S    
C18   C21   A    
C9    H1    S    
C30   C32   A    
C11   C13   S    
C36   H15   S    
C1    C28   S    
C23   C28   A    
C5    C21   S    
C38   H20   S    
C29   C34   A    
C7    C14   S    
C29   Cl3   S    
O1    V3    S    
C30   C33   A    
C20   H6    S    
C36   H16   S    
C35   H14   S    
C38   H21   S    
O18   V4    S    
O15   C5    A    
C4    C33   S    
O16   C6    A    
O1    C3    A    
V2    O20   S    
O16   V4    S    
C10   H2    S    
C37   H18   S    
C12   O22   S    
C25   C27   A    
O5    V1    S    
C24   C27   A    
O17   C7    A    
O6    V2    S    
O10   C6    A    
O18   C8    A    
C17   C22   A    
O2    V4    S    
C9    C15   S    
O21   C35   S    
V3    O19   S    
V4    O20   S    
C32   C34   A    
C31   C33   A    
O9    C5    A    
O13   V1    S    
O14   V2    S    
O2    C4    A    
C36   H17   S    
O22   C37   S    
O4    V2    S    
C18   C20   A    
C20   C22   A    
C38   H22   S    
C13   C15   S    
O12   V4    S    
