data_mof_unit_65532.cif
_audit_creation_date              2012-12-10T19:28:00-0500
_audit_creation_method            fapswitch 2.2
_symmetry_space_group_name_H-M    P1
_symmetry_Int_Tables_number       1
_space_group_crystal_system       triclinic
_cell_length_a                    30.646943
_cell_length_b                    30.646943
_cell_length_c                    32.846815
_cell_angle_alpha                 90.000061
_cell_angle_beta                  90.00005
_cell_angle_gamma                 90.0
_cell_volume                      30850.8820719

loop_
_atom_site_label
_atom_site_type_symbol
_atom_type_description
_atom_site_fract_x
_atom_site_fract_y
_atom_site_fract_z
_atom_type_partial_charge
C1    C     C_R   0.118530 0.381470 0.250000 -0.027171
C2    C     C_R   0.881470 0.381470 0.250000 -0.028068
C3    C     C_R   0.084510 0.415490 0.750000 0.814988
C4    C     C_R   0.584510 0.084510 0.250000 0.813445
C5    C     C_R   0.415490 0.915490 0.750000 0.814988
C6    C     C_R   0.084510 0.415490 0.250000 0.813444
C7    C     C_R   0.915490 0.584510 0.750000 0.814988
C8    C     C_R   0.415490 0.084510 0.750000 0.813445
C9    C     C_R   0.584510 0.915490 0.250000 0.814989
C10   C     C_R   0.915490 0.415490 0.750000 0.813445
C11   C     C_R   0.084510 0.584510 0.250000 0.814988
C12   C     C_R   0.584510 0.915490 0.750000 0.813444
C13   C     C_R   0.381469 0.118530 0.750000 -0.027171
C14   C     C_R   0.415490 0.084510 0.250000 0.814988
C15   C     C_R   0.084510 0.584510 0.750000 0.813445
C16   C     C_R   0.915490 0.415490 0.250000 0.814988
C17   C     C_1   0.500000 0.000000 0.399223 -0.143279
C18   C     C_1   0.500000 0.000000 0.600777 -0.143279
C19   C     C_1   1.000000 0.500000 0.399223 -0.143279
C20   C     C_1   0.000000 0.500000 0.600777 -0.143279
C21   C     C_1   1.000000 0.500000 0.899223 -0.143279
C22   C     C_1   1.000000 0.500000 0.100777 -0.143279
C23   C     C_1   0.500000 0.000000 0.899223 -0.143279
C24   C     C_R   0.618530 0.881470 0.250000 -0.028069
C25   C     C_1   0.500000 1.000000 0.100777 -0.143279
C26   C     C_1   0.500000 0.000000 0.436804 0.008555
C27   C     C_1   0.500000 0.000000 0.563195 0.008555
C28   C     C_1   0.000000 0.500000 0.436804 0.008555
C29   C     C_1   0.000000 0.500000 0.563195 0.008555
C30   C     C_1   1.000000 0.500000 0.936805 0.008555
C31   C     C_1   1.000000 0.500000 0.063195 0.008555
C32   C     C_1   0.500000 0.000000 0.936805 0.008555
C33   C     C_1   0.500000 1.000000 0.063195 0.008555
C34   C     C_R   0.151688 0.381837 0.220436 -0.172281
C35   C     C_R   0.881470 0.381469 0.750000 -0.027171
C36   C     C_R   0.888885 0.658733 0.730603 -0.170558
C37   C     C_R   0.381838 0.848312 0.220437 -0.172281
C38   C     C_R   0.658734 0.111114 0.730604 -0.170557
C39   C     C_R   0.848312 0.618163 0.220437 -0.172281
C40   C     C_R   0.111114 0.341266 0.730604 -0.170558
C41   C     C_R   0.618162 0.151688 0.220437 -0.172280
C42   C     C_R   0.341266 0.888885 0.730604 -0.170558
C43   C     C_R   0.151688 0.618163 0.779563 -0.172281
C44   C     C_R   0.888886 0.341266 0.269396 -0.170558
C45   C     C_R   0.381838 0.151689 0.779563 -0.172281
C46   C     C_R   0.118530 0.618530 0.250000 -0.028069
C47   C     C_R   0.658734 0.888886 0.269396 -0.170558
C48   C     C_R   0.848312 0.381837 0.779563 -0.172280
C49   C     C_R   0.111114 0.658734 0.269396 -0.170558
C50   C     C_R   0.618163 0.848312 0.779564 -0.172281
C51   C     C_R   0.341267 0.111115 0.269397 -0.170558
C52   C     C_R   0.651687 0.881837 0.720436 -0.172281
C53   C     C_R   0.388885 0.158733 0.230603 -0.170558
C54   C     C_R   0.881837 0.348312 0.720437 -0.172280
C55   C     C_R   0.158734 0.611114 0.230604 -0.170558
C56   C     C_R   0.348311 0.118162 0.720437 -0.172281
C57   C     C_R   0.618530 0.881470 0.750000 -0.027170
C58   C     C_R   0.611114 0.841266 0.230604 -0.170558
C59   C     C_R   0.118163 0.651688 0.720437 -0.172281
C60   C     C_R   0.841266 0.388886 0.230604 -0.170559
C61   C     C_R   0.651688 0.118162 0.279563 -0.172281
C62   C     C_R   0.388885 0.841266 0.769396 -0.170559
C63   C     C_R   0.881837 0.651688 0.279563 -0.172281
C64   C     C_R   0.158734 0.388886 0.769396 -0.170558
C65   C     C_R   0.348312 0.881838 0.279563 -0.172281
C66   C     C_R   0.611114 0.158734 0.769396 -0.170558
C67   C     C_R   0.118163 0.348313 0.279564 -0.172281
C68   C     C_R   0.381470 0.118530 0.250000 -0.028068
C69   C     C_R   0.841267 0.611115 0.769397 -0.170558
C70   C     C_R   0.183752 0.349474 0.220317 -0.080529
C71   C     C_R   0.856747 0.691023 0.730808 -0.080141
C72   C     C_R   0.349475 0.816247 0.220318 -0.080529
C73   C     C_R   0.691023 0.143252 0.730809 -0.080141
C74   C     C_R   0.816247 0.650525 0.220318 -0.080531
C75   C     C_R   0.143252 0.308976 0.730809 -0.080141
C76   C     C_R   0.650525 0.183753 0.220318 -0.080530
C77   C     C_R   0.308977 0.856748 0.730809 -0.080141
C78   C     C_R   0.183753 0.650525 0.779682 -0.080530
C79   C     C_R   0.183347 0.316653 0.250000 0.167554
C80   C     C_R   0.856748 0.308977 0.269191 -0.080141
C81   C     C_R   0.349475 0.183753 0.779682 -0.080530
C82   C     C_R   0.691023 0.856748 0.269191 -0.080142
C83   C     C_R   0.816247 0.349475 0.779682 -0.080529
C84   C     C_R   0.143252 0.691023 0.269191 -0.080140
C85   C     C_R   0.650526 0.816248 0.779683 -0.080530
C86   C     C_R   0.308977 0.143253 0.269192 -0.080142
C87   C     C_R   0.683752 0.849474 0.720317 -0.080530
C88   C     C_R   0.356747 0.191023 0.230808 -0.080141
C89   C     C_R   0.849475 0.316247 0.720318 -0.080531
C90   C     C_R   0.816654 0.683346 0.750000 0.166878
C91   C     C_R   0.191023 0.643252 0.230809 -0.080141
C92   C     C_R   0.316247 0.150525 0.720318 -0.080530
C93   C     C_R   0.643252 0.808977 0.230809 -0.080142
C94   C     C_R   0.150525 0.683753 0.720318 -0.080529
C95   C     C_R   0.808977 0.356748 0.230809 -0.080140
C96   C     C_R   0.683753 0.150525 0.279682 -0.080530
C97   C     C_R   0.356748 0.808977 0.769191 -0.080141
C98   C     C_R   0.849475 0.683753 0.279682 -0.080530
C99   C     C_R   0.191024 0.356748 0.769190 -0.080141
C100  C     C_R   0.316247 0.849475 0.279682 -0.080531
C101  C     C_R   0.316653 0.816653 0.250000 0.167556
C102  C     C_R   0.643252 0.191023 0.769191 -0.080141
C103  C     C_R   0.150526 0.316248 0.279683 -0.080529
C104  C     C_R   0.808977 0.643253 0.769192 -0.080141
C105  C     C_2   0.254159 0.321564 0.307965 0.958280
C106  C     C_2   0.743246 0.675843 0.695169 0.958628
C107  C     C_2   0.321561 0.745843 0.307968 0.958279
C108  C     C_2   0.675845 0.256752 0.695167 0.958628
C109  C     C_2   0.745843 0.678439 0.307968 0.958279
C110  C     C_2   0.256751 0.324154 0.695166 0.958628
C111  C     C_2   0.678439 0.254157 0.307968 0.958280
C112  C     C_R   0.881470 0.618530 0.750000 -0.028068
C113  C     C_R   0.683346 0.183346 0.750000 0.166877
C114  C     C_2   0.324155 0.743248 0.695168 0.958628
C115  C     C_2   0.254157 0.678438 0.692033 0.958281
C116  C     C_2   0.743248 0.324155 0.304833 0.958629
C117  C     C_2   0.321560 0.254156 0.692031 0.958279
C118  C     C_2   0.675845 0.743248 0.304833 0.958628
C119  C     C_2   0.745843 0.321561 0.692032 0.958280
C120  C     C_2   0.256751 0.675845 0.304833 0.958628
C121  C     C_2   0.678437 0.745841 0.692034 0.958280
C122  C     C_2   0.324157 0.256754 0.304830 0.958628
C123  C     C_2   0.754159 0.821563 0.807966 0.958280
C124  C     C_R   0.816653 0.683347 0.250000 0.167557
C125  C     C_2   0.243246 0.175843 0.195170 0.958627
C126  C     C_2   0.821561 0.245843 0.807968 0.958280
C127  C     C_2   0.175845 0.756751 0.195167 0.958628
C128  C     C_2   0.245844 0.178440 0.807969 0.958280
C129  C     C_2   0.756751 0.824155 0.195167 0.958628
C130  C     C_2   0.178438 0.754158 0.807967 0.958279
C131  C     C_2   0.824155 0.243248 0.195167 0.958629
C132  C     C_2   0.754157 0.178439 0.192032 0.958280
C133  C     C_2   0.243248 0.824156 0.804832 0.958629
C134  C     C_2   0.821561 0.754157 0.192032 0.958279
C135  C     C_R   0.183346 0.316654 0.750000 0.166876
C136  C     C_2   0.175846 0.243249 0.804834 0.958628
C137  C     C_2   0.245843 0.821561 0.192032 0.958281
C138  C     C_2   0.756752 0.175845 0.804833 0.958629
C139  C     C_2   0.178436 0.245841 0.192035 0.958280
C140  C     C_2   0.824157 0.756753 0.804831 0.958628
C141  C     C_R   0.683347 0.183347 0.250000 0.167555
C142  C     C_R   0.316654 0.816654 0.750000 0.166878
C143  C     C_R   0.183347 0.683347 0.750000 0.167555
C144  C     C_R   0.816654 0.316654 0.250000 0.166877
C145  C     C_R   0.316653 0.183347 0.750000 0.167557
C146  C     C_R   0.683346 0.816654 0.250000 0.166877
C147  C     C_R   0.816653 0.316653 0.750000 0.167556
C148  C     C_R   0.381469 0.881469 0.250000 -0.027171
C149  C     C_R   0.183346 0.683346 0.250000 0.166877
C150  C     C_R   0.683347 0.816653 0.750000 0.167555
C151  C     C_R   0.316654 0.183346 0.250000 0.166878
C152  C     C_R   0.282523 0.217477 0.250000 -0.103454
C153  C     C_R   0.717477 0.782523 0.750000 -0.103706
C154  C     C_R   0.217477 0.717477 0.250000 -0.103455
C155  C     C_R   0.782523 0.282523 0.750000 -0.103706
C156  C     C_R   0.717477 0.782523 0.250000 -0.103455
C157  C     C_R   0.282523 0.217477 0.750000 -0.103706
C158  C     C_R   0.782523 0.282523 0.250000 -0.103455
C159  C     C_R   0.618530 0.118530 0.750000 -0.028069
C160  C     C_R   0.217477 0.717477 0.750000 -0.103707
C161  C     C_R   0.282523 0.782523 0.750000 -0.103455
C162  C     C_R   0.717477 0.217477 0.250000 -0.103707
C163  C     C_R   0.217477 0.282523 0.750000 -0.103455
C164  C     C_R   0.782523 0.717477 0.250000 -0.103706
C165  C     C_R   0.717477 0.217477 0.750000 -0.103455
C166  C     C_R   0.282522 0.782523 0.250000 -0.103706
C167  C     C_R   0.782523 0.717477 0.750000 -0.103455
C168  C     C_R   0.217477 0.282523 0.250000 -0.103706
C169  C     C_R   0.252631 0.285289 0.277800 -0.086326
C170  C     C_R   0.881469 0.618530 0.250000 -0.027171
C171  C     C_R   0.746996 0.714338 0.722651 -0.086575
C172  C     C_R   0.285288 0.747370 0.277801 -0.086326
C173  C     C_R   0.714339 0.253003 0.722650 -0.086575
C174  C     C_R   0.747370 0.714712 0.277801 -0.086325
C175  C     C_R   0.253003 0.285660 0.722649 -0.086575
C176  C     C_R   0.714712 0.252630 0.277801 -0.086325
C177  C     C_R   0.285661 0.746996 0.722650 -0.086574
C178  C     C_R   0.252630 0.714712 0.722199 -0.086325
C179  C     C_R   0.746997 0.285661 0.277350 -0.086574
C180  C     C_R   0.285287 0.252630 0.722198 -0.086327
C181  C     C_R   0.118530 0.381470 0.750000 -0.028069
C182  C     C_R   0.714339 0.746997 0.277350 -0.086574
C183  C     C_R   0.747370 0.285288 0.722199 -0.086326
C184  C     C_R   0.253003 0.714339 0.277350 -0.086575
C185  C     C_R   0.714711 0.747369 0.722200 -0.086326
C186  C     C_R   0.285662 0.253005 0.277349 -0.086575
C187  C     C_R   0.752631 0.785289 0.777800 -0.086326
C188  C     C_R   0.246995 0.214338 0.222651 -0.086575
C189  C     C_R   0.785288 0.247370 0.777801 -0.086325
C190  C     C_R   0.214339 0.753003 0.222650 -0.086575
C191  C     C_R   0.247370 0.214713 0.777802 -0.086326
C192  C     C_R   0.618530 0.118530 0.250000 -0.027171
C193  C     C_R   0.753003 0.785661 0.222650 -0.086574
C194  C     C_R   0.214712 0.752631 0.777801 -0.086326
C195  C     C_R   0.785661 0.246997 0.222650 -0.086575
C196  C     C_R   0.752630 0.214712 0.222199 -0.086326
C197  C     C_R   0.246996 0.785661 0.777350 -0.086575
C198  C     C_R   0.785288 0.752630 0.222199 -0.086325
C199  C     C_R   0.214340 0.246997 0.777351 -0.086575
C200  C     C_R   0.247370 0.785288 0.222199 -0.086326
C201  C     C_R   0.753003 0.214339 0.777350 -0.086575
C202  C     C_R   0.214711 0.247369 0.222200 -0.086327
C203  C     C_R   0.381470 0.881470 0.750000 -0.028068
C204  C     C_R   0.785662 0.753004 0.777349 -0.086575
C205  C     C_1   0.500000 0.000000 0.481210 0.024582
C206  C     C_1   0.500000 0.000000 0.518790 0.024582
C207  C     C_1   0.000000 0.500000 0.481210 0.024582
C208  C     C_1   0.000000 0.500000 0.518790 0.024582
C209  C     C_1   1.000000 0.500000 0.981210 0.024582
C210  C     C_1   1.000000 0.500000 0.018790 0.024582
C211  C     C_1   0.500000 0.000000 0.981210 0.024582
C212  C     C_1   0.500000 1.000000 0.018790 0.024582
C213  C     C_R   0.500000 1.000000 0.145949 0.797212
C214  C     C_R   0.118530 0.618530 0.750000 -0.027171
C215  C     C_R   0.500000 0.000000 0.854051 0.797211
C216  C     C_R   1.000000 0.500000 0.145949 0.797212
C217  C     C_R   0.000000 0.500000 0.854051 0.797211
C218  C     C_R   0.000000 0.500000 0.645949 0.797212
C219  C     C_R   1.000000 0.500000 0.354050 0.797211
C220  C     C_R   0.500000 0.000000 0.645949 0.797212
C221  C     C_R   0.500000 0.000000 0.354050 0.797211
C222  C     C_R   0.415490 0.915490 0.250000 0.813445
C223  C     C_R   0.584510 0.084510 0.750000 0.814988
C224  C     C_R   0.915490 0.584510 0.250000 0.813445
H1    H     H_    0.152665 0.406959 0.197268 0.163306
H2    H     H_    0.919611 0.334687 0.284479 0.163998
H3    H     H_    0.406961 0.152667 0.802730 0.163306
H4    H     H_    0.665313 0.919611 0.284479 0.163997
H5    H     H_    0.847334 0.406961 0.802730 0.163306
H6    H     H_    0.080388 0.665313 0.284479 0.163997
H7    H     H_    0.593040 0.847335 0.802732 0.163306
H8    H     H_    0.334688 0.080390 0.284481 0.163998
H9    H     H_    0.652665 0.906960 0.697268 0.163306
H10   H     H_    0.419610 0.165312 0.215519 0.163998
H11   H     H_    0.906961 0.347333 0.697269 0.163306
H12   H     H_    0.919611 0.665312 0.715519 0.163998
H13   H     H_    0.165313 0.580388 0.215521 0.163998
H14   H     H_    0.347333 0.093039 0.697270 0.163306
H15   H     H_    0.580389 0.834687 0.215521 0.163997
H16   H     H_    0.093039 0.652666 0.697269 0.163306
H17   H     H_    0.834687 0.419611 0.215521 0.163997
H18   H     H_    0.652666 0.093039 0.302730 0.163306
H19   H     H_    0.419611 0.834688 0.784480 0.163998
H20   H     H_    0.906961 0.652666 0.302730 0.163306
H21   H     H_    0.165313 0.419612 0.784478 0.163997
H22   H     H_    0.347333 0.906961 0.302730 0.163306
H23   H     H_    0.406961 0.847333 0.197270 0.163306
H24   H     H_    0.580389 0.165313 0.784479 0.163997
H25   H     H_    0.093040 0.347335 0.302732 0.163306
H26   H     H_    0.834688 0.580389 0.784481 0.163998
H27   H     H_    0.209017 0.350053 0.197263 0.146744
H28   H     H_    0.862958 0.721919 0.715878 0.147197
H29   H     H_    0.350054 0.790981 0.197265 0.146743
H30   H     H_    0.721919 0.137041 0.715880 0.147198
H31   H     H_    0.790982 0.649946 0.197264 0.146744
H32   H     H_    0.137041 0.278080 0.715881 0.147198
H33   H     H_    0.649946 0.209018 0.197265 0.146744
H34   H     H_    0.665313 0.080389 0.715521 0.163997
H35   H     H_    0.278081 0.862958 0.715879 0.147198
H36   H     H_    0.209018 0.649946 0.802736 0.146744
H37   H     H_    0.862959 0.278081 0.284120 0.147198
H38   H     H_    0.350055 0.209019 0.802735 0.146743
H39   H     H_    0.721919 0.862958 0.284120 0.147198
H40   H     H_    0.790982 0.350054 0.802735 0.146743
H41   H     H_    0.137041 0.721920 0.284120 0.147198
H42   H     H_    0.649947 0.790983 0.802737 0.146744
H43   H     H_    0.278081 0.137042 0.284122 0.147197
H44   H     H_    0.709017 0.850053 0.697263 0.146744
H45   H     H_    0.847334 0.593039 0.197269 0.163306
H46   H     H_    0.362958 0.221918 0.215878 0.147197
H47   H     H_    0.850054 0.290982 0.697264 0.146744
H48   H     H_    0.221919 0.637041 0.215880 0.147198
H49   H     H_    0.290981 0.149945 0.697265 0.146743
H50   H     H_    0.637041 0.778080 0.215880 0.147198
H51   H     H_    0.149946 0.709018 0.697264 0.146744
H52   H     H_    0.778080 0.362959 0.215880 0.147198
H53   H     H_    0.709018 0.149946 0.302735 0.146744
H54   H     H_    0.362958 0.778081 0.784120 0.147198
H55   H     H_    0.850054 0.709018 0.302735 0.146744
H56   H     H_    0.080388 0.334687 0.715521 0.163997
H57   H     H_    0.221920 0.362959 0.784119 0.147198
H58   H     H_    0.290982 0.850054 0.302735 0.146744
H59   H     H_    0.637041 0.221919 0.784120 0.147198
H60   H     H_    0.149947 0.290983 0.302737 0.146744
H61   H     H_    0.778081 0.637042 0.784122 0.147197
H62   H     H_    0.249641 0.386258 0.318527 0.357388
H63   H     H_    0.772510 0.635890 0.654701 0.357124
H64   H     H_    0.386255 0.750362 0.318532 0.357388
H65   H     H_    0.635893 0.227486 0.654699 0.357124
H66   H     H_    0.750362 0.613745 0.318532 0.357388
H67   H     H_    0.593039 0.152666 0.197270 0.163306
H68   H     H_    0.227485 0.364105 0.654697 0.357123
H69   H     H_    0.613745 0.249638 0.318532 0.357387
H70   H     H_    0.364108 0.772512 0.654699 0.357124
H71   H     H_    0.249639 0.613744 0.681470 0.357388
H72   H     H_    0.772514 0.364107 0.345301 0.357124
H73   H     H_    0.386254 0.249637 0.681466 0.357389
H74   H     H_    0.635893 0.772514 0.345301 0.357123
H75   H     H_    0.750362 0.386255 0.681469 0.357388
H76   H     H_    0.227486 0.635894 0.345302 0.357124
H77   H     H_    0.613743 0.750360 0.681472 0.357388
H78   H     H_    0.334687 0.919611 0.715520 0.163997
H79   H     H_    0.364111 0.227491 0.345298 0.357123
H80   H     H_    0.749640 0.886257 0.818528 0.357388
H81   H     H_    0.272509 0.135889 0.154702 0.357123
H82   H     H_    0.886255 0.250362 0.818531 0.357387
H83   H     H_    0.135893 0.727486 0.154698 0.357124
H84   H     H_    0.250363 0.113746 0.818533 0.357388
H85   H     H_    0.727486 0.864107 0.154698 0.357124
H86   H     H_    0.113744 0.749639 0.818530 0.357388
H87   H     H_    0.864107 0.272514 0.154698 0.357123
H88   H     H_    0.749638 0.113745 0.181468 0.357388
H89   H     H_    0.152666 0.593039 0.802730 0.163306
H90   H     H_    0.272513 0.864108 0.845300 0.357123
H91   H     H_    0.886255 0.749638 0.181468 0.357388
H92   H     H_    0.135895 0.272515 0.845303 0.357123
H93   H     H_    0.250362 0.886255 0.181468 0.357388
H94   H     H_    0.727487 0.135893 0.845301 0.357124
H95   H     H_    0.113742 0.250359 0.181473 0.357388
H96   H     H_    0.864110 0.727490 0.845299 0.357123
O1    O     O_3   0.500000 0.000000 0.250000 -0.459679
O2    O     O_R   0.500000 0.036350 0.833960 -0.623374
O3    O     O_R   0.837425 0.279064 0.171887 -0.785417
O4    O     O_2   0.760475 0.186373 0.156019 -0.587919
O5    O     O_R   0.748181 0.135333 0.204813 -0.784653
O6    O     O_2   0.208861 0.844286 0.806923 -0.586049
O7    O     O_R   0.279063 0.837427 0.828113 -0.785417
O8    O     O_2   0.813626 0.760475 0.156019 -0.587919
O9    O     O_R   0.864667 0.748181 0.204813 -0.784653
O10   O     O_2   0.155716 0.208863 0.806926 -0.586049
O11   O     O_R   0.162576 0.279066 0.828114 -0.785418
O12   O     O_2   0.239526 0.813626 0.156019 -0.587919
O13   O     O_R   0.963650 0.500000 0.166040 -0.623374
O14   O     O_R   0.251819 0.864667 0.204812 -0.784654
O15   O     O_2   0.791138 0.155715 0.806924 -0.586050
O16   O     O_R   0.720936 0.162574 0.828113 -0.785418
O17   O     O_2   0.186369 0.239521 0.156022 -0.587918
O18   O     O_R   0.135331 0.251817 0.204817 -0.784653
O19   O     O_2   0.844287 0.791140 0.806921 -0.586049
O20   O     O_R   0.837428 0.720938 0.828112 -0.785417
O21   O     O_R   0.036350 0.500000 0.833960 -0.623374
O22   O     O_R   1.000000 0.536350 0.666040 -0.623373
O23   O     O_R   0.000000 0.463650 0.333960 -0.623373
O24   O     O_R   0.536350 0.000000 0.666040 -0.623373
O25   O     O_R   0.463650 0.000000 0.333960 -0.623373
O26   O     O_R   1.000000 0.463650 0.666040 -0.623374
O27   O     O_R   1.000000 0.536350 0.333960 -0.623374
O28   O     O_R   0.463650 0.000000 0.666040 -0.623374
O29   O     O_3   0.500000 0.000000 0.750000 -0.459679
O30   O     O_R   0.536350 0.000000 0.333960 -0.623374
O31   O     O_R   0.448840 0.912530 0.228020 -0.641198
O32   O     O_R   0.551160 0.087470 0.771980 -0.640022
O33   O     O_R   0.912530 0.551160 0.228020 -0.641197
O34   O     O_R   0.087470 0.448840 0.771980 -0.640022
O35   O     O_R   0.551160 0.087470 0.228020 -0.641197
O36   O     O_R   0.448840 0.912530 0.771980 -0.640022
O37   O     O_R   0.087470 0.448840 0.228020 -0.641197
O38   O     O_R   0.912530 0.551160 0.771980 -0.640023
O39   O     O_R   0.448840 0.087470 0.771980 -0.641198
O40   O     O_3   1.000000 0.500000 0.250000 -0.459679
O41   O     O_R   0.551160 0.912530 0.228020 -0.640022
O42   O     O_R   0.912530 0.448840 0.771980 -0.641197
O43   O     O_R   0.087470 0.551160 0.228020 -0.640022
O44   O     O_R   0.551160 0.912530 0.771980 -0.641197
O45   O     O_R   0.448840 0.087470 0.228020 -0.640022
O46   O     O_R   0.087470 0.551160 0.771980 -0.641198
O47   O     O_R   0.912530 0.448840 0.228020 -0.640022
O48   O     O_R   0.948840 0.412530 0.728020 -0.641198
O49   O     O_R   0.051160 0.587470 0.271980 -0.640022
O50   O     O_R   0.412530 0.051160 0.728020 -0.641197
O51   O     O_3   1.000000 0.500000 0.750000 -0.459679
O52   O     O_R   0.587470 0.948840 0.271980 -0.640022
O53   O     O_R   0.051160 0.587470 0.728020 -0.641197
O54   O     O_R   0.948840 0.412530 0.271980 -0.640022
O55   O     O_R   0.587470 0.948840 0.728020 -0.641197
O56   O     O_R   0.412530 0.051160 0.271980 -0.640023
O57   O     O_R   0.948840 0.587470 0.271980 -0.641198
O58   O     O_R   0.051160 0.412530 0.728020 -0.640022
O59   O     O_R   0.412530 0.948840 0.271980 -0.641197
O60   O     O_R   0.587470 0.051160 0.728020 -0.640022
O61   O     O_R   0.051160 0.412530 0.271980 -0.641197
O62   O     O_R   0.500000 0.036350 0.166040 -0.623373
O63   O     O_R   0.948840 0.587470 0.728020 -0.640022
O64   O     O_R   0.587470 0.051160 0.271980 -0.641198
O65   O     O_R   0.412530 0.948840 0.728020 -0.640023
O66   O     O_2   0.260479 0.313631 0.343978 -0.587917
O67   O     O_R   0.248183 0.364669 0.295183 -0.784654
O68   O     O_2   0.708860 0.655713 0.693079 -0.586049
O69   O     O_R   0.779061 0.662572 0.671888 -0.785417
O70   O     O_2   0.313626 0.739526 0.343981 -0.587919
O71   O     O_R   0.364667 0.751819 0.295187 -0.784653
O72   O     O_2   0.655715 0.291138 0.693076 -0.586049
O73   O     O_R   0.500000 0.963650 0.833960 -0.623373
O74   O     O_R   0.662574 0.220936 0.671887 -0.785418
O75   O     O_2   0.739525 0.686373 0.343981 -0.587919
O76   O     O_R   0.751819 0.635333 0.295187 -0.784653
O77   O     O_2   0.291137 0.344284 0.693073 -0.586049
O78   O     O_R   0.220934 0.337424 0.671886 -0.785418
O79   O     O_2   0.686373 0.260475 0.343981 -0.587919
O80   O     O_R   0.635333 0.248181 0.295187 -0.784653
O81   O     O_2   0.344286 0.708861 0.693077 -0.586050
O82   O     O_R   0.337426 0.779063 0.671887 -0.785417
O83   O     O_2   0.260476 0.686372 0.656020 -0.587919
O84   O     O_R   0.036350 0.500000 0.166040 -0.623373
O85   O     O_R   0.248181 0.635333 0.704814 -0.784654
O86   O     O_2   0.708862 0.344285 0.306924 -0.586049
O87   O     O_R   0.779064 0.337426 0.328113 -0.785418
O88   O     O_2   0.313625 0.260473 0.656018 -0.587919
O89   O     O_R   0.364666 0.248180 0.704811 -0.784653
O90   O     O_2   0.655715 0.708862 0.306925 -0.586049
O91   O     O_R   0.662575 0.779064 0.328113 -0.785417
O92   O     O_2   0.739525 0.313627 0.656019 -0.587918
O93   O     O_R   0.751819 0.364667 0.704813 -0.784653
O94   O     O_2   0.291138 0.655715 0.306925 -0.586050
O95   O     O_R   0.963650 0.500000 0.833960 -0.623373
O96   O     O_R   0.220935 0.662575 0.328113 -0.785417
O97   O     O_2   0.686370 0.739522 0.656021 -0.587917
O98   O     O_R   0.635332 0.751818 0.704816 -0.784654
O99   O     O_2   0.344288 0.291140 0.306920 -0.586049
O100  O     O_R   0.337429 0.220939 0.328111 -0.785417
O101  O     O_2   0.760478 0.813630 0.843979 -0.587917
O102  O     O_R   0.748182 0.864668 0.795184 -0.784654
O103  O     O_2   0.208860 0.155712 0.193080 -0.586049
O104  O     O_R   0.279061 0.162571 0.171889 -0.785416
O105  O     O_2   0.813627 0.239525 0.843981 -0.587919
O106  O     O_R   0.500000 0.963650 0.166040 -0.623374
O107  O     O_R   0.864667 0.251819 0.795187 -0.784653
O108  O     O_2   0.155715 0.791138 0.193075 -0.586049
O109  O     O_R   0.162575 0.720935 0.171887 -0.785417
O110  O     O_2   0.239527 0.186375 0.843982 -0.587919
O111  O     O_R   0.251820 0.135334 0.795189 -0.784654
O112  O     O_2   0.791138 0.844285 0.193075 -0.586050
O113  O     O_R   0.720936 0.837425 0.171887 -0.785418
O114  O     O_2   0.186372 0.760476 0.843980 -0.587919
O115  O     O_R   0.135333 0.748181 0.795186 -0.784653
O116  O     O_2   0.844285 0.208862 0.193075 -0.586049
Zn1   Zn    Zn3+2 0.448050 0.000000 0.281500 0.993529
Zn2   Zn    Zn3+2 0.051950 0.500000 0.218500 0.993529
Zn3   Zn    Zn3+2 0.500000 0.051950 0.781500 0.993529
Zn4   Zn    Zn3+2 0.500000 0.948050 0.218500 0.993529
Zn5   Zn    Zn3+2 0.051950 0.500000 0.781500 0.993529
Zn6   Zn    Zn3+2 0.948050 0.500000 0.218500 0.993529
Zn7   Zn    Zn3+2 0.500000 0.948050 0.781500 0.993529
Zn8   Zn    Zn3+2 0.500000 0.051950 0.218500 0.993529
Zn9   Zn    Zn3+2 0.551950 0.000000 0.718500 0.993529
Zn10  Zn    Zn3+2 0.000000 0.551950 0.281500 0.993529
Zn11  Zn    Zn3+2 1.000000 0.448050 0.718500 0.993529
Zn12  Zn    Zn3+2 0.551950 0.000000 0.281500 0.993529
Zn13  Zn    Zn3+2 0.448050 0.000000 0.718500 0.993529
Zn14  Zn    Zn3+2 1.000000 0.448050 0.281500 0.993529
Zn15  Zn    Zn3+2 1.000000 0.551950 0.718500 0.993529
Zn16  Zn    Zn3+2 0.948050 0.500000 0.781500 0.993529

loop_
_geom_bond_atom_site_label_1
_geom_bond_atom_site_label_2
_ccdc_geom_bond_type
O50   Zn13  S    
C90   C167  S    
C12   O55   A    
O44   Zn7   S    
C72   H29   S    
H63   O69   S    
C115  O85   S    
C42   C203  A    
O1    Zn1   S    
C60   H17   S    
C29   C208  S    
C105  C169  S    
C5    O65   A    
C215  O73   A    
C125  C188  S    
C56   H14   S    
C38   C159  A    
C63   C98   A    
C98   H55   S    
H90   O7    S    
C194  C197  A    
C72   C101  A    
C218  O22   A    
C132  O4    D    
C39   C74   A    
C220  O28   A    
C53   C68   A    
C66   C159  A    
C155  C189  A    
C176  C179  A    
C47   H4    S    
C114  O81   D    
C46   C55   A    
C133  C197  S    
C105  O66   D    
C147  C155  S    
C36   C71   A    
C87   H44   S    
C95   C144  A    
O21   Zn5   S    
C123  O102  S    
C224  O57   A    
O26   Zn11  S    
C118  C182  S    
O95   Zn16  S    
O27   Zn10  S    
O29   Zn13  S    
C127  C190  S    
C171  C185  A    
C1    C6    S    
C34   H1    S    
O28   Zn13  S    
C4    O35   A    
O57   Zn10  S    
C91   C149  A    
C66   H24   S    
C153  C187  A    
C7    O63   A    
C187  C204  A    
C116  O87   S    
C95   H52   S    
H72   O87   S    
C127  O109  S    
H77   O98   S    
C157  C191  A    
C145  C157  S    
O65   Zn13  S    
C213  O106  A    
O1    Zn12  S    
H65   O74   S    
O40   Zn10  S    
C108  C173  S    
C167  C204  A    
C55   H13   S    
C160  C178  A    
C213  O62   A    
C177  C178  A    
C170  C224  S    
C99   H57   S    
C168  C169  A    
C139  O18   S    
H76   O96   S    
C161  C177  A    
C115  O83   D    
C40   C181  A    
C110  O78   S    
C107  O71   S    
C126  O107  S    
C70   C79   A    
C50   C57   A    
C135  C163  S    
C102  H59   S    
C45   C81   A    
O23   Zn14  S    
H87   O3    S    
C161  C197  A    
H92   O11   S    
C37   H23   S    
C3    O58   A    
C136  O10   D    
H74   O91   S    
C224  O33   A    
C41   C76   A    
C113  C165  S    
C15   O46   A    
O61   Zn14  S    
C188  C202  A    
C69   C112  A    
C168  C202  A    
C2    C60   A    
C101  C166  S    
O54   Zn14  S    
C97   C142  A    
C17   C221  S    
C4    O64   A    
C73   H30   S    
C60   C95   A    
C134  O9    S    
O84   Zn2   S    
C11   C46   S    
C127  O108  D    
C129  O113  S    
C53   H10   S    
C15   O53   A    
C13   C45   A    
C65   H22   S    
C166  C172  A    
C18   C220  S    
C174  C182  A    
C142  C161  S    
C61   C96   A    
C67   C103  A    
C143  C160  S    
C98   C124  A    
C111  O80   S    
C49   C84   A    
C14   O56   A    
C140  C204  S    
C11   O43   A    
C155  C183  A    
O31   Zn4   S    
C122  C186  S    
H62   O67   S    
C7    C112  S    
C45   H3    S    
C49   H6    S    
H83   O109  S    
H96   O20   S    
H68   O78   S    
C64   C99   A    
C2    C44   A    
C48   H5    S    
C80   C144  A    
C10   C35   S    
O56   Zn1   S    
C109  O75   D    
C13   C56   A    
O51   Zn11  S    
C84   C149  A    
C216  O84   A    
C163  C199  A    
C141  C162  S    
C126  O105  D    
C21   C217  S    
C108  O74   S    
C79   C103  A    
C121  O98   S    
C38   H34   S    
O60   Zn9   S    
C1    C34   A    
C117  O88   D    
O45   Zn8   S    
O24   Zn9   S    
C218  O26   A    
C130  O115  S    
C111  C176  S    
C152  C186  A    
C91   H48   S    
C32   C211  S    
C156  C182  A    
C63   C170  A    
O42   Zn16  S    
C87   C150  A    
C195  C196  A    
O25   Zn1   S    
O22   Zn15  S    
C62   C97   A    
H93   O14   S    
C222  O59   A    
C116  O86   D    
C209  C210  T    
C93   C146  A    
C119  C183  S    
C19   C28   T    
C120  C184  S    
C173  C183  A    
C12   C57   S    
O29   Zn7   S    
C108  O72   D    
C88   C151  A    
C116  C179  S    
H79   O100  S    
C58   H15   S    
C103  H60   S    
C2    C16   S    
C6    O37   A    
C89   C147  A    
H91   O9    S    
C14   C68   S    
O106  Zn4   S    
C85   H42   S    
O55   Zn9   S    
C140  O19   D    
C139  C202  S    
O38   Zn16  S    
C5    C203  S    
H64   O71   S    
C129  O112  D    
C175  C180  A    
C36   H12   S    
O40   Zn6   S    
C76   H33   S    
C48   C83   A    
C8    O50   A    
C59   H16   S    
O59   Zn1   S    
O48   Zn11  S    
C120  O94   D    
C71   C90   A    
C63   H20   S    
C100  C101  A    
C1    C67   A    
O41   Zn4   S    
O30   Zn12  S    
C125  O104  S    
C114  O82   S    
C42   C77   A    
C77   H35   S    
C78   H36   S    
C92   H49   S    
C43   C214  A    
C44   H2    S    
C122  O99   D    
C39   H45   S    
C25   C33   T    
C74   C124  A    
C138  O15   D    
O46   Zn5   S    
C8    C13   S    
H69   O80   S    
C16   O54   A    
C4    C192  S    
C138  O16   S    
C216  O13   A    
C152  C188  A    
C30   C209  S    
C190  C200  A    
C133  O7    S    
C158  C179  A    
C43   C78   A    
O49   Zn10  S    
C46   C49   A    
O39   Zn3   S    
C96   H53   S    
H94   O16   S    
C58   C93   A    
C169  C186  A    
C217  O95   A    
O34   Zn5   S    
C117  O89   S    
C222  O31   A    
C33   C212  S    
C75   C135  A    
C193  C198  A    
C73   C113  A    
C221  O25   A    
C165  C201  A    
C85   C150  A    
H70   O82   S    
C128  O111  S    
C55   C91   A    
C50   C85   A    
C96   C141  A    
C9    O52   A    
C150  C153  S    
C36   C112  A    
C223  O32   A    
C151  C152  S    
C164  C174  A    
H82   O107  S    
C59   C94   A    
C34   C70   A    
C74   H31   S    
C76   C141  A    
C41   H67   S    
C154  C190  A    
C163  C175  A    
C139  O17   D    
C35   C54   A    
C134  O8    D    
C3    O34   A    
C86   H43   S    
C35   C48   A    
C51   C86   A    
C82   C146  A    
C164  C198  A    
C52   H9    S    
H73   O89   S    
C107  C172  S    
C52   C87   A    
C11   O49   A    
C80   H37   S    
H95   O18   S    
C207  C208  T    
C123  O101  D    
O58   Zn11  S    
H81   O104  S    
C120  O96   S    
C109  C174  S    
C110  C175  S    
C16   O47   A    
C157  C180  A    
C14   O45   A    
C149  C154  S    
C137  O12   D    
O63   Zn15  S    
C211  C212  T    
C44   C80   A    
O36   Zn7   S    
C99   C135  A    
C105  O67   S    
C65   C148  A    
C106  O68   D    
C3    C181  S    
H84   O111  S    
C69   H26   S    
C88   H46   S    
C26   C205  S    
C94   C143  A    
O32   Zn3   S    
C9    O41   A    
C71   H28   S    
C94   H51   S    
C217  O21   A    
C61   H18   S    
C20   C218  S    
C106  O69   S    
C8    O39   A    
C65   C100  A    
C130  C194  S    
C7    O38   A    
H85   O113  S    
C167  C171  A    
C21   C30   T    
H71   O85   S    
C40   C75   A    
C111  O79   D    
C27   C206  S    
C23   C32   T    
C102  C113  A    
C86   C151  A    
O29   Zn3   S    
C31   C210  S    
H66   O76   S    
C37   C148  A    
C115  C178  S    
C118  O91   S    
C52   C57   A    
C40   H56   S    
C24   C58   A    
H88   O5    S    
C37   C72   A    
C162  C196  A    
C12   O44   A    
C28   C207  S    
O40   Zn14  S    
C131  O3    S    
C124  C164  S    
O1    Zn4   S    
C110  O77   D    
O40   Zn2   S    
O2    Zn3   S    
C22   C216  S    
C106  C171  S    
C66   C102  A    
C5    O36   A    
C119  O93   S    
C121  O97   D    
C59   C214  A    
C205  C206  T    
C25   C213  S    
C17   C26   T    
C191  C199  A    
C39   C170  A    
C137  O14   S    
O51   Zn5   S    
C138  C201  S    
C10   O42   A    
C162  C176  A    
C165  C173  A    
C62   H19   S    
H86   O115  S    
C47   C82   A    
C148  C222  S    
C77   C142  A    
C136  C199  S    
C64   H21   S    
C6    O61   A    
C154  C184  A    
C223  O60   A    
C61   C192  A    
C131  C195  S    
C131  O116  D    
C221  O30   A    
C79   C168  S    
C128  O110  D    
C117  C180  S    
C104  H61   S    
O1    Zn8   S    
C81   H38   S    
C123  C187  S    
O13   Zn6   S    
C83   H40   S    
C54   H11   S    
C15   C214  S    
O35   Zn8   S    
C118  O90   D    
C20   C29   T    
C219  O27   A    
O33   Zn6   S    
C22   C31   T    
C43   H89   S    
O43   Zn2   S    
C140  O20   S    
C54   C89   A    
C75   H32   S    
C51   H8    S    
C189  C201  A    
O64   Zn12  S    
C126  C189  S    
C97   H54   S    
C119  O92   D    
O53   Zn15  S    
C172  C184  A    
C137  C200  S    
C23   C215  S    
C114  C177  S    
C90   C104  A    
H80   O102  S    
C50   H7    S    
C109  O76   S    
C83   C147  A    
C64   C181  A    
C132  O5    S    
C125  O103  D    
C107  O70   D    
C81   C145  A    
C19   C219  S    
C144  C158  S    
C67   H25   S    
C122  O100  S    
O51   Zn16  S    
C160  C194  A    
C42   H78   S    
C69   C104  A    
C134  C198  S    
O51   Zn15  S    
O47   Zn6   S    
C219  O23   A    
C130  O114  D    
C41   C192  A    
C92   C145  A    
C89   H47   S    
C24   C47   A    
C136  O11   S    
C18   C27   T    
C215  O2    A    
H75   O93   S    
C129  C193  S    
C9    C24   S    
C10   O48   A    
C133  O6    D    
O29   Zn9   S    
C158  C195  A    
C128  C191  S    
O62   Zn8   S    
C156  C193  A    
C93   H50   S    
C78   C143  A    
C153  C185  A    
C159  C223  S    
C84   H41   S    
C220  O24   A    
C53   C88   A    
C51   C68   A    
O52   Zn12  S    
C166  C200  A    
C62   C203  A    
O37   Zn2   S    
C121  C185  S    
C56   C92   A    
C146  C156  S    
C100  H58   S    
C82   H39   S    
C132  C196  S    
C70   H27   S    
O73   Zn7   S    
C38   C73   A    
