data_mof_unit_47607.cif
_audit_creation_date              2012-12-10T19:30:32-0500
_audit_creation_method            fapswitch 2.2
_symmetry_space_group_name_H-M    P1
_symmetry_Int_Tables_number       1
_space_group_crystal_system       triclinic
_cell_length_a                    14.908027
_cell_length_b                    15.689063
_cell_length_c                    15.477774
_cell_angle_alpha                 90.540099
_cell_angle_beta                  83.792351
_cell_angle_gamma                 88.800498
_cell_volume                      3597.87850765

loop_
_atom_site_label
_atom_site_type_symbol
_atom_type_description
_atom_site_fract_x
_atom_site_fract_y
_atom_site_fract_z
_atom_type_partial_charge
C1    C     C_R   0.499057 0.662506 0.498729 0.848015
C2    C     C_R   0.500819 0.337319 0.499492 0.912533
C3    C     C_3   0.491721 0.030619 0.393534 0.129023
C4    C     C_3   0.487793 0.969253 0.556574 0.058959
C5    C     C_3   0.561687 0.967601 0.425327 0.331194
C6    C     C_3   0.418505 0.031913 0.523244 0.390581
C7    C     C_1   0.496338 0.750460 0.487795 -0.173129
C8    C     C_1   0.502575 0.248492 0.492424 -0.142442
C9    C     C_3   0.414615 0.978250 0.440035 0.351029
C10   C     C_3   0.565628 0.019715 0.509332 0.322861
C11   C     C_3   0.484889 0.915429 0.472118 -0.236955
C12   C     C_3   0.496238 0.082944 0.477719 -0.166985
C13   C     C_1   0.490894 0.824892 0.478253 0.075692
C14   C     C_1   0.501062 0.173438 0.485188 0.163506
C15   C     C_3   0.030733 0.579254 0.480600 0.326211
C16   C     C_3   0.968705 0.423964 0.521755 0.320216
C17   C     C_3   0.980578 0.521933 0.420730 0.161316
C18   C     C_3   0.019660 0.480988 0.582774 0.016650
C19   C     C_3   0.961384 0.558966 0.559179 0.332713
C20   C     C_3   0.038591 0.444779 0.444386 0.422339
C21   C     C_3   0.910348 0.501530 0.499053 -0.227104
C22   C     C_3   0.089616 0.501909 0.503362 -0.259640
C23   C     C_R   0.486270 0.502991 0.658378 0.944588
C24   C     C_R   0.513653 0.502838 0.341666 0.931734
C25   C     C_1   0.810266 0.500767 0.499329 0.307347
C26   C     C_1   0.189699 0.501148 0.501696 0.279730
C27   C     C_R   0.475011 0.529670 0.752129 -0.299007
C28   C     C_R   0.524439 0.528287 0.248148 -0.311300
C29   C     C_R   0.548165 0.524145 0.803314 0.255246
C30   C     C_R   0.449964 0.529312 0.198303 0.268113
C31   C     C_R   0.546883 0.573105 0.879555 -0.249659
C32   C     C_R   0.452981 0.577170 0.122285 -0.288686
C33   C     C_R   0.473172 0.626832 0.907603 -0.172472
C34   C     C_R   0.530045 0.621857 0.092186 -0.158428
C35   C     C_R   0.394134 0.621845 0.865468 0.441372
C36   C     C_R   0.609508 0.607495 0.131271 0.452205
C37   C     C_R   0.395901 0.576007 0.786558 0.366495
C38   C     C_R   0.606132 0.565639 0.211477 0.355326
C39   C     C_2   0.487211 0.702651 0.962365 0.251336
C40   C     C_2   0.521189 0.699912 0.040037 0.251474
H1    H     H_    0.392259 0.584818 0.091035 0.171771
H2    H     H_    0.607056 0.574813 0.912551 0.173573
N1    N     N_1   0.731990 0.500000 0.499970 -0.088938
N2    N     N_1   0.268010 0.500000 0.500030 -0.084907
O1    O     O_R   0.425540 0.623220 0.500000 -0.643574
O2    O     O_R   0.574460 0.376780 0.500000 -0.584947
O3    O     O_R   0.574480 0.623220 0.499990 -0.626454
O4    O     O_R   0.425520 0.376780 0.500010 -0.602301
O5    O     O_R   0.416730 0.500010 0.615810 -0.571137
O6    O     O_R   0.583270 0.499990 0.384190 -0.585395
O7    O     O_R   0.565670 0.500010 0.615790 -0.555974
O8    O     O_R   0.434330 0.499990 0.384210 -0.562462
Zn1   Zn    Zn3+2 0.400550 0.500000 0.500010 1.000459
Zn2   Zn    Zn3+2 0.599450 0.500000 0.499990 1.020038
Br1   Br    Br    0.654954 0.455432 0.770569 -0.474723
Br2   Br    Br    0.338835 0.472644 0.232181 -0.487023
O9    O     O_3   0.074297 0.655470 0.454647 -0.622862
C41   C     C_3   0.014321 0.726556 0.461383 0.106068
H3    H     H_    0.030459 0.766301 0.517062 0.142955
H4    H     H_    0.941687 0.709944 0.471662 0.143292
C42   C     C_3   0.030340 0.779650 0.379007 -0.298487
H5    H     H_    0.104020 0.785850 0.360485 0.229610
H6    H     H_    0.001300 0.746764 0.324899 0.247846
C43   C     C_3   0.987844 0.868911 0.392378 -1.008469
H7    H     H_    0.915293 0.865482 0.416904 0.273300
H8    H     H_    0.994211 0.903280 0.329712 0.275740
H9    H     H_    0.022909 0.905544 0.439903 0.276308
O10   O     O_3   0.930506 0.342299 0.531126 -0.623500
C44   C     C_3   0.957226 0.301272 0.604901 0.136822
H10   H     H_    0.923748 0.333302 0.664676 0.212126
H11   H     H_    0.031878 0.301348 0.604865 0.150854
C45   C     C_3   0.928132 0.208499 0.604165 -0.365218
H12   H     H_    0.853750 0.206288 0.603334 0.252561
H13   H     H_    0.960912 0.175767 0.544570 0.219053
C46   C     C_3   0.954526 0.161561 0.683918 -0.918032
H14   H     H_    0.028661 0.163299 0.686232 0.273303
H15   H     H_    0.934584 0.093958 0.680940 0.267556
H16   H     H_    0.919815 0.191340 0.744196 0.286241
O11   O     O_3   0.080510 0.387780 0.380449 -0.567539
C47   C     C_3   0.121663 0.317984 0.419324 0.100724
H17   H     H_    0.074819 0.263627 0.422503 0.175275
H18   H     H_    0.138972 0.331844 0.486236 0.110973
C48   C     C_3   0.209232 0.292521 0.363602 -0.310511
H19   H     H_    0.195152 0.280508 0.295521 0.263298
H20   H     H_    0.257195 0.345724 0.363941 0.262360
C49   C     C_3   0.252908 0.212671 0.397947 -0.866499
H21   H     H_    0.266262 0.222442 0.466552 0.272570
H22   H     H_    0.318023 0.198069 0.358171 0.306818
H23   H     H_    0.208014 0.157619 0.393588 0.260794
O12   O     O_3   0.910363 0.615979 0.617444 -0.604809
C50   C     C_3   0.966365 0.665589 0.665027 0.141088
H24   H     H_    0.958641 0.733378 0.646986 0.126029
H25   H     H_    0.039263 0.648198 0.652182 0.134052
C51   C     C_3   0.937060 0.658420 0.762441 -0.346225
H26   H     H_    0.938353 0.590504 0.781500 0.263755
H27   H     H_    0.985533 0.692988 0.799023 0.170807
C52   C     C_3   0.842349 0.696040 0.787315 -0.744008
H28   H     H_    0.838989 0.763879 0.767823 0.243669
H29   H     H_    0.825489 0.692841 0.858789 0.230388
H30   H     H_    0.791721 0.659503 0.755487 0.300641
O13   O     O_3   0.683595 0.562847 0.253476 -0.613871
C53   C     C_3   0.686415 0.635419 0.308512 0.197376
H31   H     H_    0.709849 0.612532 0.370018 0.192154
H32   H     H_    0.619417 0.667814 0.326431 0.094971
C54   C     C_3   0.753711 0.700298 0.268806 -0.314780
H33   H     H_    0.813435 0.666958 0.233876 0.262528
H34   H     H_    0.721194 0.740681 0.222021 0.262015
C55   C     C_3   0.785639 0.757544 0.338872 -0.975205
H35   H     H_    0.727337 0.790058 0.377044 0.305120
H36   H     H_    0.831410 0.805926 0.307939 0.274645
H37   H     H_    0.823003 0.719074 0.383532 0.271056
O14   O     O_3   0.318889 0.576423 0.743739 -0.599955
C56   C     C_3   0.309291 0.654489 0.699714 0.177955
H38   H     H_    0.316743 0.640030 0.629218 0.183643
H39   H     H_    0.360221 0.703412 0.711480 0.140362
C57   C     C_3   0.214472 0.692386 0.723885 -0.309011
H40   H     H_    0.164550 0.641166 0.722075 0.241576
H41   H     H_    0.208363 0.719191 0.790813 0.259264
C58   C     C_3   0.193008 0.763192 0.661808 -1.031464
H42   H     H_    0.243268 0.814392 0.662310 0.288451
H43   H     H_    0.124955 0.791051 0.682689 0.261785
H44   H     H_    0.193619 0.737455 0.594613 0.278747
Br3   Br    Br    0.547964 0.804502 0.098023 -0.432039
Br4   Br    Br    0.467862 0.811202 0.908790 -0.334383
O15   O     O_3   0.318403 0.672008 0.892120 -0.622809
C59   C     C_3   0.276876 0.644292 0.973046 0.111866
H45   H     H_    0.305320 0.679851 0.025791 0.159496
H46   H     H_    0.285763 0.574177 0.982304 0.142345
C60   C     C_3   0.175702 0.664872 0.978950 -0.364639
H47   H     H_    0.164970 0.734352 0.969511 0.237301
H48   H     H_    0.145846 0.629810 0.926623 0.233509
C61   C     C_3   0.127678 0.639842 0.066929 -0.859135
H49   H     H_    0.135590 0.570173 0.076884 0.289321
H50   H     H_    0.054591 0.656102 0.069279 0.261485
H51   H     H_    0.155747 0.674861 0.120279 0.272184
O16   O     O_3   0.688968 0.644099 0.097176 -0.629938
C62   C     C_3   0.738956 0.585976 0.039119 0.104402
H52   H     H_    0.739213 0.611290 0.972395 0.156508
H53   H     H_    0.711385 0.520173 0.038882 0.137352
C63   C     C_3   0.836243 0.579903 0.061613 -0.340879
H54   H     H_    0.864997 0.644714 0.061794 0.224190
H55   H     H_    0.836992 0.552582 0.127482 0.274651
C64   C     C_3   0.895061 0.523370 0.996620 -0.866954
H56   H     H_    0.868821 0.457613 0.996906 0.281630
H57   H     H_    0.965175 0.520694 0.014592 0.277685
H58   H     H_    0.896167 0.549625 0.930241 0.262201
O17   O     O_3   0.633164 0.928231 0.371142 -0.634883
C65   C     C_3   0.700280 0.987627 0.344234 0.121191
H59   H     H_    0.759414 0.974813 0.380433 0.147794
H60   H     H_    0.678693 0.055698 0.356089 0.169168
C66   C     C_3   0.729038 0.975161 0.247014 -0.296436
H61   H     H_    0.748079 0.907330 0.232793 0.239549
H62   H     H_    0.671532 0.991851 0.209907 0.279775
C67   C     C_3   0.808937 0.030613 0.216572 -0.919694
H63   H     H_    0.790892 0.099066 0.228680 0.281646
H64   H     H_    0.827771 0.020492 0.145784 0.280987
H65   H     H_    0.868014 0.013329 0.251366 0.257210
O18   O     O_3   0.345495 0.072918 0.574132 -0.614186
C68   C     C_3   0.277558 0.014402 0.601557 0.197813
H66   H     H_    0.267639 0.015821 0.673740 0.185176
H67   H     H_    0.294037 0.946893 0.581544 0.126074
C69   C     C_3   0.189389 0.042481 0.567150 -0.344946
H68   H     H_    0.169990 0.107873 0.591545 0.226878
H69   H     H_    0.199223 0.043910 0.495150 0.258641
C70   C     C_3   0.113115 0.982093 0.594927 -1.018936
H70   H     H_    0.101196 0.979197 0.666917 0.282254
H71   H     H_    0.129685 0.917154 0.567847 0.272753
H72   H     H_    0.050465 0.005708 0.569573 0.272363
Br5   Br    Br    0.491925 0.077228 0.278026 -0.447497
Br6   Br    Br    0.474981 0.924244 0.673762 -0.475744
O19   O     O_3   0.645738 0.045917 0.541964 -0.623700
C71   C     C_3   0.691146 0.974466 0.573266 0.140563
H73   H     H_    0.690137 0.917413 0.529881 0.153152
H74   H     H_    0.659322 0.958537 0.639093 0.211826
C72   C     C_3   0.789486 0.995967 0.580593 -0.357261
H75   H     H_    0.823103 0.013318 0.515752 0.218119
H76   H     H_    0.791816 0.051495 0.625280 0.247964
C73   C     C_3   0.840356 0.920416 0.615477 -0.978298
H77   H     H_    0.809260 0.903650 0.681412 0.280801
H78   H     H_    0.911588 0.937222 0.619811 0.267056
H79   H     H_    0.839243 0.864076 0.571617 0.267941
O20   O     O_3   0.333445 0.967442 0.401714 -0.614968
C74   C     C_3   0.312254 0.880796 0.393137 0.075191
H80   H     H_    0.238777 0.878143 0.387238 0.165047
H81   H     H_    0.322485 0.843588 0.452152 0.132169
C75   C     C_3   0.362846 0.841318 0.310150 -0.302261
H82   H     H_    0.343401 0.876502 0.252784 0.262790
H83   H     H_    0.436835 0.846970 0.311091 0.257819
C76   C     C_3   0.340887 0.747367 0.300331 -0.895037
H84   H     H_    0.361290 0.710524 0.356175 0.275031
H85   H     H_    0.378297 0.721021 0.239706 0.282871
H86   H     H_    0.267478 0.739982 0.296592 0.268595
Br7   Br    Br    0.954039 0.548953 0.304263 -0.494934
Br8   Br    Br    0.058147 0.458906 0.696793 -0.570847

loop_
_geom_bond_atom_site_label_1
_geom_bond_atom_site_label_2
_ccdc_geom_bond_type
C24   O8    A    
C64   H58   S    
O19   C71   S    
C70   H70   S    
C5    O17   S    
C31   H2    S    
C18   Br8   S    
C17   Br7   S    
O17   C65   S    
C63   C64   S    
C46   H14   S    
C25   N1    T    
C6    C9    S    
C52   H28   S    
O12   C50   S    
C26   N2    T    
C72   H76   S    
C2    O2    A    
C15   C19   S    
C62   H53   S    
O6    Zn2   S    
C4    Br6   S    
C59   H45   S    
C34   C40   S    
C35   C37   A    
C63   H55   S    
C5    C11   S    
C38   O13   S    
C44   H10   S    
C45   C46   S    
C6    C12   S    
C71   H73   S    
C47   H17   S    
C49   H22   S    
C23   O5    A    
C27   C29   A    
C41   H4    S    
C64   H56   S    
C17   C20   S    
C3    Br5   S    
C55   H35   S    
C53   C54   S    
C35   O15   S    
C18   C19   S    
C66   C67   S    
C42   H6    S    
O20   C74   S    
C37   O14   S    
C3    C12   S    
C52   H29   S    
N2    Zn1   S    
C15   C22   S    
C68   H66   S    
C55   H36   S    
O10   C44   S    
C59   H46   S    
C66   H61   S    
C65   C66   S    
C9    O20   S    
C23   C27   S    
C67   H64   S    
C71   C72   S    
C56   C57   S    
C41   C42   S    
O1    Zn1   S    
C70   H71   S    
C1    C7    S    
C15   O9    S    
C53   H31   S    
C47   C48   S    
C36   O16   S    
C10   O19   S    
O14   C56   S    
C6    O18   S    
C71   H74   S    
C73   H77   S    
C72   C73   S    
C69   H69   S    
C58   H43   S    
C24   O6    A    
O4    Zn1   S    
C62   C63   S    
C44   H11   S    
O13   C53   S    
C65   H59   S    
C67   H65   S    
C45   H13   S    
C74   C75   S    
C50   H24   S    
C49   H21   S    
C1    O3    A    
C29   Br1   S    
C59   C60   S    
C2    O4    A    
C41   H3    S    
C30   Br2   S    
C17   C21   S    
C39   Br4   S    
C56   H39   S    
C32   C34   A    
C76   H86   S    
C51   H27   S    
C74   H80   S    
C43   H9    S    
C3    C9    S    
C50   H25   S    
C69   C70   S    
C54   H34   S    
N1    Zn2   S    
C23   O7    A    
C48   H19   S    
C28   C38   A    
C16   C20   S    
O2    Zn2   S    
C31   C33   A    
C68   C69   S    
C51   H26   S    
C16   C18   S    
C33   C39   S    
C54   C55   S    
C63   H54   S    
C4    C11   S    
C53   H32   S    
C46   H15   S    
C67   H63   S    
C10   C12   S    
O3    Zn2   S    
C16   O10   S    
C4    C6    S    
C48   H20   S    
C12   C14   S    
C70   H72   S    
C9    C11   S    
O18   C68   S    
C20   C22   S    
C32   H1    S    
C4    C10   S    
C39   C40   D    
C52   H30   S    
O8    Zn1   S    
C56   H38   S    
C54   H33   S    
C58   H44   S    
C76   H84   S    
C64   H57   S    
C40   Br3   S    
C21   C25   S    
C8    C14   T    
C20   O11   S    
C19   C21   S    
C18   C22   S    
C2    C8    S    
C24   C28   S    
C65   H60   S    
C45   H12   S    
C3    C5    S    
C49   H23   S    
C73   H78   S    
C58   H42   S    
C57   C58   S    
C16   C21   S    
C15   C17   S    
C69   H68   S    
C62   H52   S    
C51   C52   S    
C55   H37   S    
O7    Zn2   S    
C43   H7    S    
C60   C61   S    
C75   C76   S    
C28   C30   A    
C68   H67   S    
C60   H47   S    
C5    C10   S    
C29   C31   A    
C72   H75   S    
C42   C43   S    
C30   C32   A    
C11   C13   S    
C1    O1    A    
O9    C41   S    
O15   C59   S    
C27   C37   A    
C61   H51   S    
O5    Zn1   S    
C36   C38   A    
C33   C35   A    
C47   H18   S    
C57   H41   S    
C57   H40   S    
C61   H49   S    
C34   C36   A    
C66   H62   S    
C42   H5    S    
C46   H16   S    
C73   H79   S    
O11   C47   S    
C60   H48   S    
C7    C13   T    
C48   C49   S    
C74   H81   S    
C61   H50   S    
C22   C26   S    
C19   O12   S    
O16   C62   S    
C44   C45   S    
C76   H85   S    
C75   H82   S    
C75   H83   S    
C43   H8    S    
C50   C51   S    
