data_mof_unit_24139.cif
_audit_creation_date              2012-10-26T20:00:52-0400
_audit_creation_method            fapswitch 2.2
_symmetry_space_group_name_H-M    P1
_symmetry_Int_Tables_number       1
_space_group_crystal_system       triclinic
_cell_length_a                    11.818991
_cell_length_b                    12.99373
_cell_length_c                    13.322073
_cell_angle_alpha                 94.20737
_cell_angle_beta                  76.304955
_cell_angle_gamma                 99.504624
_cell_volume                      1959.20031288

loop_
_atom_site_label
_atom_site_type_symbol
_atom_type_description
_atom_site_fract_x
_atom_site_fract_y
_atom_site_fract_z
_atom_type_partial_charge
Br1   Br    Br    0.795621 0.819982 0.415490 -0.402796
Br2   Br    Br    0.190987 0.631237 0.650809 -0.395216
Br3   Br    Br    0.056791 0.338566 0.257429 -0.418057
Br4   Br    Br    0.741586 0.685241 0.672675 -0.376453
Br5   Br    Br    0.795808 0.361694 0.356345 -0.382028
Br6   Br    Br    0.784592 0.793343 0.036565 -0.391681
Br7   Br    Br    0.226282 0.296206 0.743226 -0.444062
Br8   Br    Br    0.456773 0.722082 0.784178 -0.382908
C1    C     C_R   0.522439 0.700439 0.497307 0.592835
C2    C     C_R   0.393676 0.468546 0.806440 0.038954
C3    C     C_R   0.466360 0.186134 0.501247 0.014559
C4    C     C_R   0.435629 0.491633 0.695799 0.608429
C5    C     C_R   0.537463 0.813962 0.490922 0.026250
C6    C     C_R   0.658964 0.983586 0.461998 -0.067684
C7    C     C_R   0.650117 0.875609 0.462507 0.175214
C8    C     C_R   0.435947 0.861886 0.512337 -0.115904
C9    C     C_R   0.445164 0.969536 0.508191 0.036787
C10   C     C_R   0.557620 0.030773 0.485005 0.013548
C11   C     C_R   0.567408 0.138555 0.483454 -0.099041
C12   C     C_R   0.448496 0.475883 0.973308 0.007141
C13   C     C_R   0.354389 0.124937 0.521651 -0.092704
C14   C     C_R   0.343787 0.017032 0.526397 -0.091136
C15   C     C_R   0.943192 0.592047 0.598392 -0.105041
C16   C     C_R   0.478963 0.299514 0.499376 0.556407
C17   C     C_R   0.828172 0.587177 0.588348 0.303617
C18   C     C_R   0.859430 0.459183 0.451786 0.304999
C19   C     C_R   0.981811 0.466253 0.455504 0.000921
C20   C     C_R   0.021016 0.531748 0.534040 -0.060827
C21   C     C_R   0.138695 0.538494 0.545301 0.307421
C22   C     C_R   0.181947 0.419761 0.403608 0.055169
C23   C     C_R   0.449894 0.524794 0.880952 0.008164
C24   C     C_R   0.068368 0.412688 0.386232 0.148173
C25   C     C_R   0.563288 0.506821 0.304368 0.541135
C26   C     C_R   0.677769 0.665852 0.070955 0.164493
C27   C     C_R   0.598067 0.530549 0.194894 -0.008709
C28   C     C_R   0.314175 0.375995 0.834575 0.149819
C29   C     C_R   0.301067 0.335358 0.930878 -0.062183
C30   C     C_R   0.370233 0.381582 0.997706 -0.115214
C31   C     C_R   0.524529 0.523692 0.037731 0.009947
C32   C     C_R   0.597391 0.620791 0.010466 0.019893
C33   C     C_R   0.581692 0.674372 0.928514 -0.039987
C34   C     C_R   0.504633 0.629414 0.867485 0.175211
C35   C     C_R   0.527584 0.479848 0.130392 -0.106553
C36   C     C_R   0.677462 0.620280 0.162709 -0.072849
Cu1   Cu    Cu3+1 0.386470 0.492430 0.492410 1.060926
Cu2   Cu    Cu3+1 0.613530 0.507570 0.507590 1.117592
H1    H     H_    0.275169 0.160461 0.535382 0.179620
H2    H     H_    0.624789 0.753718 0.913939 0.210442
H3    H     H_    0.470080 0.409876 0.159082 0.120383
H4    H     H_    0.358641 0.341580 0.068156 0.137305
H5    H     H_    0.240974 0.263880 0.952211 0.187394
H6    H     H_    0.654067 0.185018 0.467516 0.172663
H7    H     H_    0.731739 0.660079 0.213160 0.185754
H8    H     H_    0.745280 0.030599 0.441223 0.169670
H9    H     H_    0.256781 0.970871 0.543619 0.151000
H10   H     H_    0.349242 0.815545 0.532267 0.175781
H11   H     H_    0.246129 0.378395 0.351930 0.156828
H12   H     H_    0.970641 0.646233 0.656554 0.197084
N1    N     N_R   0.215880 0.481050 0.481000 -0.245828
N2    N     N_R   0.784100 0.518950 0.519000 -0.227674
O1    O     O_R   0.419710 0.645650 0.494620 -0.487371
O2    O     O_R   0.611450 0.658430 0.507430 -0.423853
O3    O     O_R   0.357340 0.490460 0.641450 -0.414614
O4    O     O_R   0.549080 0.503250 0.654260 -0.476569
O5    O     O_R   0.388550 0.341570 0.492570 -0.504365
O6    O     O_R   0.580290 0.354350 0.505380 -0.486073
O7    O     O_R   0.450920 0.496750 0.345740 -0.528003
O8    O     O_R   0.642660 0.509540 0.358550 -0.456146

loop_
_geom_bond_atom_site_label_1
_geom_bond_atom_site_label_2
_ccdc_geom_bond_type
Cu1   O7    S    
C15   H12   S    
C2    C28   A    
C8    H10   S    
Cu2   O8    S    
C29   C30   A    
Br1   C7    S    
C23   C34   A    
C12   C30   A    
C33   C34   A    
C6    C10   A    
C9    C14   A    
C16   O6    A    
C1    O2    A    
Cu2   N2    S    
C22   N1    A    
C4    O3    A    
C5    C7    A    
C9    C10   A    
C26   C36   A    
Cu1   O3    S    
C15   C20   A    
C22   C24   A    
C27   C36   A    
C3    C11   A    
C18   C19   A    
C14   H9    S    
C2    C4    S    
C16   O5    A    
Cu2   O2    S    
Br2   C21   S    
C1    O1    A    
C11   H6    S    
Cu1   O1    S    
C20   C21   A    
C6    H8    S    
C33   H2    S    
Br8   C34   S    
Cu2   O6    S    
C15   C17   A    
Cu1   O5    S    
Br3   C24   S    
C29   H5    S    
C26   C32   A    
Cu1   Cu2   S    
C30   H4    S    
Br4   C17   S    
C35   H3    S    
Br5   C18   S    
C22   H11   S    
C21   N1    A    
C3    C16   S    
C31   C32   A    
C27   C35   A    
C25   O7    A    
C28   C29   A    
C10   C11   A    
Br7   C28   S    
C5    C8    A    
C19   C20   A    
C12   C31   A    
C4    O4    A    
C1    C5    S    
C6    C7    A    
C32   C33   A    
C31   C35   A    
C25   C27   S    
C19   C24   A    
C13   C14   A    
C18   N2    A    
C36   H7    S    
C3    C13   A    
C17   N2    A    
Cu1   N1    S    
Br6   C26   S    
C25   O8    A    
Cu2   O4    S    
C8    C9    A    
C13   H1    S    
C12   C23   A    
C2    C23   A    
