data_mof_unit_60461.cif
_audit_creation_date              2012-12-10T19:53:39-0500
_audit_creation_method            fapswitch 2.2
_symmetry_space_group_name_H-M    P1
_symmetry_Int_Tables_number       1
_space_group_crystal_system       triclinic
_cell_length_a                    18.247661
_cell_length_b                    18.247799
_cell_length_c                    47.207478
_cell_angle_alpha                 89.999497
_cell_angle_beta                  90.000651
_cell_angle_gamma                 89.999971
_cell_volume                      15719.1295072

loop_
_atom_site_label
_atom_site_type_symbol
_atom_type_description
_atom_site_fract_x
_atom_site_fract_y
_atom_site_fract_z
_atom_type_partial_charge
C1    C     C_R   1.000000 0.859028 0.000000 0.919988
C2    C     C_R   0.140972 0.000000 0.000000 0.919991
C3    C     C_R   0.000000 0.140972 1.000000 0.919988
C4    C     C_R   0.859028 1.000000 1.000000 0.919992
C5    C     C_R   0.500000 0.359028 0.500000 0.919984
C6    C     C_R   0.640972 0.500000 0.500000 0.919987
C7    C     C_R   0.500000 0.640972 0.500000 0.919985
C8    C     C_R   0.359028 0.500000 0.500000 0.919989
C9    C     C_R   0.457516 0.051719 0.868406 0.141313
C10   C     C_R   0.948274 0.457507 0.868408 0.141323
C11   C     C_R   0.542496 0.948268 0.868409 0.141313
C12   C     C_R   0.051720 0.542493 0.868408 0.141322
C13   C     C_R   0.457506 0.948290 0.131592 0.141365
C14   C     C_R   0.948332 0.542466 0.131599 0.141323
C15   C     C_R   0.542551 0.051689 0.131589 0.141347
C16   C     C_R   0.051741 0.457432 0.131584 0.141333
C17   C     C_R   0.957559 0.551709 0.368401 0.141312
C18   C     C_R   0.448292 0.957607 0.368397 0.141262
C19   C     C_R   0.042523 0.448243 0.368414 0.141310
C20   C     C_R   0.551800 0.042512 0.368417 0.141303
C21   C     C_R   0.957510 0.448277 0.631592 0.141309
C22   C     C_R   0.448289 0.042492 0.631593 0.141320
C23   C     C_R   0.042497 0.551723 0.631591 0.141313
C24   C     C_R   0.551727 0.957495 0.631591 0.141324
C25   C     C_R   0.456598 0.051623 0.898262 -0.112879
C26   C     C_R   0.948374 0.456592 0.898263 -0.112881
C27   C     C_R   0.543412 0.948373 0.898265 -0.112893
C28   C     C_R   0.051622 0.543408 0.898263 -0.112877
C29   C     C_R   0.456581 0.948395 0.101736 -0.112942
C30   C     C_R   0.948414 0.543400 0.101744 -0.112895
C31   C     C_R   0.543455 0.051594 0.101734 -0.112896
C32   C     C_R   0.051615 0.456527 0.101729 -0.112967
C33   C     C_R   0.956628 0.551620 0.398257 -0.112891
C34   C     C_R   0.448361 0.956670 0.398252 -0.112732
C35   C     C_R   0.043430 0.448362 0.398269 -0.112935
C36   C     C_R   0.551674 0.043412 0.398272 -0.112861
C37   C     C_R   0.956593 0.448376 0.601737 -0.112862
C38   C     C_R   0.448387 0.043414 0.601737 -0.112907
C39   C     C_R   0.043411 0.551623 0.601736 -0.112872
C40   C     C_R   0.551622 0.956581 0.601735 -0.112891
C41   C     C_R   0.500004 0.999999 0.913233 -0.241847
C42   C     C_R   0.999999 0.500000 0.913233 -0.241841
C43   C     C_R   0.500012 0.999998 0.086766 -0.241797
C44   C     C_R   0.000008 0.499974 0.086767 -0.241815
C45   C     C_R   0.000021 0.499996 0.413233 -0.241812
C46   C     C_R   0.500008 0.000029 0.413233 -0.241970
C47   C     C_R   0.000001 0.499999 0.586767 -0.241860
C48   C     C_R   0.500003 0.999998 0.586767 -0.241848
C49   C     C_R   0.500006 0.999992 0.853849 0.261958
C50   C     C_R   0.999997 0.500000 0.853849 0.261953
C51   C     C_R   0.500032 0.999989 0.146150 0.261976
C52   C     C_R   0.000046 0.499943 0.146151 0.261986
C53   C     C_R   0.000047 0.499969 0.353849 0.262012
C54   C     C_R   0.500059 0.000066 0.353849 0.261833
C55   C     C_R   0.000004 0.500000 0.646151 0.261945
C56   C     C_R   0.500009 0.999992 0.646151 0.261954
C57   C     C_1   0.782532 1.000000 1.000000 -0.164174
C58   C     C_1   1.000000 0.782532 0.000000 -0.164172
C59   C     C_1   0.217468 0.000000 0.000000 -0.164169
C60   C     C_1   1.000000 0.217468 1.000000 -0.164172
C61   C     C_1   0.282532 0.500000 0.500000 -0.164167
C62   C     C_1   0.500000 0.282532 0.500000 -0.164167
C63   C     C_1   0.717468 0.500000 0.500000 -0.164168
C64   C     C_1   0.500000 0.717468 0.500000 -0.164166
C65   C     C_1   0.717720 1.000000 1.000000 -0.140823
C66   C     C_1   1.000000 0.717720 0.000000 -0.140838
C67   C     C_1   0.282280 0.000000 0.000000 -0.140828
C68   C     C_1   1.000000 0.282280 0.999999 -0.140829
C69   C     C_1   0.217720 0.500000 0.500000 -0.140818
C70   C     C_1   0.500000 0.217720 0.500000 -0.140823
C71   C     C_1   0.782280 0.500000 0.500000 -0.140832
C72   C     C_1   0.500000 0.782280 0.499999 -0.140837
C73   C     C_R   0.500001 0.000000 0.944493 0.969923
C74   C     C_R   1.000000 0.500000 0.944492 0.969890
C75   C     C_R   0.500002 1.000000 0.055507 0.969934
C76   C     C_R   0.000001 0.499996 0.055508 0.970020
C77   C     C_R   0.000004 0.500000 0.444493 0.969876
C78   C     C_R   0.500000 0.000004 0.444493 0.969963
C79   C     C_R   0.000000 0.500000 0.555507 0.969918
C80   C     C_R   0.500000 1.000000 0.555508 0.969973
C81   C     C_R   0.641241 1.000000 1.000000 0.989920
C82   C     C_R   1.000000 0.641241 1.000000 0.989919
C83   C     C_R   0.358759 0.000000 1.000000 0.989889
C84   C     C_R   1.000000 0.358759 0.999999 0.989925
C85   C     C_R   0.141241 0.500000 0.500000 0.989873
C86   C     C_R   0.500000 0.141241 0.500000 0.989908
C87   C     C_R   0.858759 0.500000 0.500000 0.989880
C88   C     C_R   0.500000 0.858759 0.499999 0.989905
C89   C     C_R   0.952020 0.455375 0.190561 0.536139
C90   C     C_R   0.544560 0.951927 0.190562 0.536299
C91   C     C_R   0.048106 0.544490 0.190559 0.536343
C92   C     C_R   0.455520 0.048081 0.190557 0.536178
C93   C     C_R   0.951964 0.544566 0.809439 0.536284
C94   C     C_R   0.544589 0.048010 0.809440 0.536255
C95   C     C_R   0.048031 0.455432 0.809440 0.536269
C96   C     C_R   0.455427 0.951969 0.809439 0.536301
C97   C     C_R   0.451980 0.955418 0.690560 0.536267
C98   C     C_R   0.044586 0.451981 0.690561 0.536276
C99   C     C_R   0.548044 0.044557 0.690560 0.536279
C100  C     C_R   0.955421 0.548019 0.690559 0.536306
C101  C     C_R   0.452105 0.044704 0.309437 0.536228
C102  C     C_R   0.044644 0.547967 0.309438 0.536171
C103  C     C_R   0.548048 0.955437 0.309441 0.536568
C104  C     C_R   0.955472 0.451936 0.309440 0.536292
C105  C     C_R   0.048198 0.546428 0.220201 -0.025534
C106  C     C_R   0.453597 0.048194 0.220200 -0.025537
C107  C     C_R   0.951932 0.453439 0.220203 -0.025532
C108  C     C_R   0.546505 0.951850 0.220204 -0.025544
C109  C     C_R   0.048125 0.453497 0.779798 -0.025534
C110  C     C_R   0.453492 0.951877 0.779797 -0.025533
C111  C     C_R   0.951873 0.546501 0.779796 -0.025534
C112  C     C_R   0.546527 0.048100 0.779797 -0.025531
C113  C     C_R   0.548135 0.046492 0.720203 -0.025536
C114  C     C_R   0.953483 0.548109 0.720202 -0.025531
C115  C     C_R   0.451889 0.953482 0.720202 -0.025531
C116  C     C_R   0.046521 0.451890 0.720203 -0.025530
C117  C     C_R   0.548132 0.953488 0.279799 -0.025525
C118  C     C_R   0.953538 0.451839 0.279797 -0.025532
C119  C     C_R   0.452010 0.046627 0.279794 -0.025518
C120  C     C_R   0.046586 0.548049 0.279796 -0.025538
C121  C     C_R   0.000065 0.499935 0.235082 -0.014802
C122  C     C_R   0.500057 0.000031 0.235082 -0.014796
C123  C     C_R   1.000000 0.499999 0.764917 -0.014810
C124  C     C_R   0.500010 0.999988 0.764917 -0.014811
C125  C     C_R   0.500012 0.999987 0.735083 -0.014808
C126  C     C_R   0.000001 0.499999 0.735083 -0.014813
C127  C     C_R   0.500067 0.000049 0.264916 -0.014850
C128  C     C_R   0.000064 0.499940 0.264916 -0.014798
C129  C     C_R   0.094969 0.593565 0.235236 -0.153766
C130  C     C_R   0.406510 0.095018 0.235234 -0.153763
C131  C     C_R   0.905161 0.406306 0.235240 -0.153767
C132  C     C_R   0.593604 0.905046 0.235242 -0.153763
C133  C     C_R   0.094891 0.406357 0.764762 -0.153762
C134  C     C_R   0.406339 0.905125 0.764761 -0.153765
C135  C     C_R   0.905108 0.593642 0.764760 -0.153762
C136  C     C_R   0.593682 0.094851 0.764761 -0.153764
C137  C     C_R   0.594898 0.093635 0.735239 -0.153765
C138  C     C_R   0.906324 0.594858 0.735237 -0.153765
C139  C     C_R   0.405125 0.906340 0.735238 -0.153763
C140  C     C_R   0.093677 0.405141 0.735240 -0.153764
C141  C     C_R   0.594829 0.906275 0.264765 -0.153755
C142  C     C_R   0.906376 0.405093 0.264762 -0.153768
C143  C     C_R   0.405304 0.093822 0.264756 -0.153760
C144  C     C_R   0.093751 0.594788 0.264759 -0.153767
H1    H     H_    0.132271 0.629962 0.224256 0.193951
H2    H     H_    0.370139 0.132344 0.224252 0.193957
H3    H     H_    0.867859 0.369906 0.224261 0.193954
H4    H     H_    0.629967 0.867707 0.224264 0.193955
H5    H     H_    0.132187 0.369953 0.775743 0.193953
H6    H     H_    0.369923 0.867841 0.775741 0.193952
H7    H     H_    0.867811 0.630045 0.775739 0.193952
H8    H     H_    0.630096 0.132137 0.775741 0.193952
H9    H     H_    0.632192 0.130041 0.724259 0.193953
H10   H     H_    0.869908 0.632140 0.724257 0.193951
H11   H     H_    0.367831 0.869934 0.724259 0.193952
H12   H     H_    0.130095 0.367858 0.724261 0.193951
H13   H     H_    0.632079 0.869826 0.275746 0.193943
H14   H     H_    0.869954 0.367816 0.275743 0.193948
H15   H     H_    0.368062 0.130284 0.275734 0.193945
H16   H     H_    0.130171 0.632070 0.275738 0.193952
N1    N     N_R   0.000062 0.499931 0.176475 -0.320418
N2    N     N_R   0.500034 0.999995 0.176475 -0.320424
N3    N     N_R   0.999997 0.499999 0.823524 -0.320413
N4    N     N_R   0.500008 0.999990 0.823524 -0.320410
N5    N     N_R   0.500012 0.999988 0.676475 -0.320413
N6    N     N_R   0.000004 0.500000 0.676476 -0.320406
N7    N     N_R   0.500079 0.000077 0.323524 -0.320379
N8    N     N_R   0.000056 0.499955 0.323524 -0.320419
O1    O     O_R   0.999960 0.892740 0.023680 -0.612831
O2    O     O_R   0.107260 0.999960 0.023680 -0.612827
O3    O     O_R   0.000040 0.107260 0.023680 -0.612825
O4    O     O_R   0.892740 0.000040 0.023680 -0.612826
O5    O     O_R   0.999960 0.107260 0.976320 -0.612824
O6    O     O_R   0.107260 0.000040 0.976320 -0.612824
O7    O     O_R   0.000040 0.892740 0.976320 -0.612822
O8    O     O_R   0.892740 0.999960 0.976320 -0.612825
O9    O     O_R   0.499960 0.392740 0.523680 -0.612830
O10   O     O_R   0.607260 0.499960 0.523680 -0.612826
O11   O     O_R   0.500040 0.607260 0.523680 -0.612825
O12   O     O_R   0.392740 0.500040 0.523680 -0.612825
O13   O     O_R   0.499960 0.607260 0.476320 -0.612828
O14   O     O_R   0.607260 0.500040 0.476320 -0.612827
O15   O     O_R   0.500040 0.392740 0.476320 -0.612819
O16   O     O_R   0.392740 0.499960 0.476320 -0.612822
O17   O     O_R   0.500020 0.060670 0.958090 -0.607648
O18   O     O_R   0.939330 0.500020 0.958090 -0.607653
O19   O     O_R   0.499980 0.939330 0.958090 -0.607652
O20   O     O_R   0.060670 0.499980 0.958090 -0.607648
O21   O     O_R   0.500020 0.939330 0.041910 -0.607652
O22   O     O_R   0.939330 0.499980 0.041910 -0.607632
O23   O     O_R   0.499980 0.060670 0.041910 -0.607647
O24   O     O_R   0.060670 0.500020 0.041910 -0.607661
O25   O     O_R   0.000020 0.560670 0.458090 -0.607639
O26   O     O_R   0.439330 0.000020 0.458090 -0.607636
O27   O     O_R   0.999980 0.439330 0.458090 -0.607657
O28   O     O_R   0.560670 0.999980 0.458090 -0.607671
O29   O     O_R   0.000020 0.439330 0.541910 -0.607645
O30   O     O_R   0.439330 0.999980 0.541910 -0.607645
O31   O     O_R   0.999980 0.560670 0.541910 -0.607648
O32   O     O_R   0.560670 0.000020 0.541910 -0.607648
O33   O     O_R   0.607320 0.060650 0.000010 -0.614506
O34   O     O_R   0.939350 0.607320 0.000010 -0.614492
O35   O     O_R   0.392680 0.939350 0.000010 -0.614514
O36   O     O_R   0.060650 0.392680 0.000010 -0.614513
O37   O     O_R   0.607320 0.939350 0.999990 -0.614487
O38   O     O_R   0.939350 0.392680 0.999990 -0.614487
O39   O     O_R   0.392680 0.060650 0.999990 -0.614478
O40   O     O_R   0.060650 0.607320 0.999990 -0.614490
O41   O     O_R   0.107320 0.560650 0.500010 -0.614499
O42   O     O_R   0.439350 0.107320 0.500010 -0.614506
O43   O     O_R   0.892680 0.439350 0.500010 -0.614491
O44   O     O_R   0.560650 0.892680 0.500010 -0.614519
O45   O     O_R   0.107320 0.439350 0.499990 -0.614503
O46   O     O_R   0.439350 0.892680 0.499990 -0.614458
O47   O     O_R   0.892680 0.560650 0.499990 -0.614491
O48   O     O_R   0.560650 0.107320 0.499990 -0.614486
O49   O     O_2   0.904832 0.412968 0.175867 -0.559486
O50   O     O_2   0.586931 0.904706 0.175868 -0.559473
O51   O     O_2   0.095288 0.586898 0.175863 -0.559518
O52   O     O_2   0.413141 0.095289 0.175860 -0.559458
O53   O     O_2   0.904787 0.586984 0.824133 -0.559512
O54   O     O_2   0.587019 0.095175 0.824135 -0.559519
O55   O     O_2   0.095207 0.413014 0.824136 -0.559509
O56   O     O_2   0.412994 0.904807 0.824135 -0.559524
O57   O     O_2   0.404806 0.912999 0.675865 -0.559521
O58   O     O_2   0.087018 0.404817 0.675866 -0.559528
O59   O     O_2   0.595218 0.086977 0.675865 -0.559514
O60   O     O_2   0.912989 0.595183 0.675864 -0.559535
O61   O     O_2   0.404985 0.087188 0.324130 -0.559585
O62   O     O_2   0.087079 0.595130 0.324132 -0.559478
O63   O     O_2   0.595169 0.912961 0.324138 -0.559631
O64   O     O_2   0.913033 0.404781 0.324136 -0.559515
Zn1   Zn    Zn3+2 0.000000 0.000000 0.031620 1.011811
Zn2   Zn    Zn3+2 0.000000 0.000000 0.968380 1.011823
Zn3   Zn    Zn3+2 0.500000 0.500000 0.531620 1.011816
Zn4   Zn    Zn3+2 0.500000 0.500000 0.468380 1.011826
Zn5   Zn    Zn3+2 0.500000 0.080980 0.000000 1.060545
Zn6   Zn    Zn3+2 0.919020 0.500000 0.000000 1.060537
Zn7   Zn    Zn3+2 0.500000 0.919020 0.000000 1.060552
Zn8   Zn    Zn3+2 0.080980 0.500000 0.000000 1.060554
Zn9   Zn    Zn3+2 1.000000 0.580980 0.500000 1.060523
Zn10  Zn    Zn3+2 0.419020 0.000000 0.500000 1.060482
Zn11  Zn    Zn3+2 1.000000 0.419020 0.500000 1.060545
Zn12  Zn    Zn3+2 0.580980 0.000000 0.500000 1.060534
N9    N     N_2   0.415272 0.102761 0.852413 -0.300968
H17   H     H_    0.421072 0.156595 0.858564 0.280706
C145  C     C_3   0.339835 0.081676 0.847718 -0.715864
H18   H     H_    0.313377 0.121792 0.833296 0.244569
H19   H     H_    0.309198 0.080794 0.868041 0.247457
H20   H     H_    0.336886 0.026778 0.837690 0.269633
N10   N     N_2   0.897235 0.415254 0.852417 -0.300961
H21   H     H_    0.843402 0.421033 0.858574 0.280697
C146  C     C_3   0.918340 0.339826 0.847718 -0.715888
H22   H     H_    0.878208 0.313351 0.833307 0.244570
H23   H     H_    0.919275 0.309191 0.868041 0.247464
H24   H     H_    0.973221 0.336899 0.837675 0.269622
N11   N     N_2   0.584741 0.897222 0.852419 -0.300967
H25   H     H_    0.578952 0.843391 0.858577 0.280703
C147  C     C_3   0.660174 0.918314 0.847720 -0.715840
H26   H     H_    0.686649 0.878168 0.833316 0.244561
H27   H     H_    0.690805 0.919263 0.868045 0.247456
H28   H     H_    0.663109 0.973186 0.837670 0.269618
N12   N     N_2   0.102758 0.584745 0.852416 -0.300961
H29   H     H_    0.156592 0.578963 0.858572 0.280699
C148  C     C_3   0.081655 0.660175 0.847717 -0.715892
H30   H     H_    0.121777 0.686645 0.833302 0.244572
H31   H     H_    0.080739 0.690812 0.868041 0.247462
H32   H     H_    0.026765 0.663105 0.837681 0.269624
N13   N     N_2   0.415231 0.897269 0.147583 -0.300930
H33   H     H_    0.420951 0.843440 0.141414 0.280700
C149  C     C_3   0.339826 0.918436 0.152299 -0.715889
H34   H     H_    0.313292 0.878244 0.166667 0.244556
H35   H     H_    0.309198 0.919550 0.131975 0.247461
H36   H     H_    0.336967 0.973253 0.162396 0.269566
N14   N     N_2   0.897323 0.584729 0.147599 -0.300964
H37   H     H_    0.843479 0.578950 0.141456 0.280728
C150  C     C_3   0.918443 0.660157 0.152291 -0.715856
H38   H     H_    0.878368 0.686621 0.166728 0.244568
H39   H     H_    0.919288 0.690803 0.131969 0.247446
H40   H     H_    0.973366 0.663086 0.162301 0.269628
N15   N     N_2   0.584841 0.102698 0.147580 -0.300948
H41   H     H_    0.579098 0.156535 0.141424 0.280717
C151  C     C_3   0.660256 0.081540 0.152278 -0.715926
H42   H     H_    0.686763 0.121653 0.166687 0.244574
H43   H     H_    0.690887 0.080583 0.131954 0.247464
H44   H     H_    0.663146 0.026657 0.162322 0.269601
N16   N     N_2   0.102782 0.415155 0.147566 -0.300959
H45   H     H_    0.156606 0.420897 0.141393 0.280708
C152  C     C_3   0.081635 0.339744 0.152280 -0.715794
H46   H     H_    0.121879 0.313195 0.166623 0.244549
H47   H     H_    0.080442 0.309146 0.131951 0.247464
H48   H     H_    0.026856 0.336877 0.162405 0.269580
N17   N     N_2   0.915327 0.602751 0.352403 -0.300963
H49   H     H_    0.921122 0.656586 0.358557 0.280701
C153  C     C_3   0.839893 0.581668 0.347701 -0.715869
H50   H     H_    0.813435 0.621801 0.333286 0.244564
H51   H     H_    0.809250 0.580751 0.368023 0.247457
H52   H     H_    0.836953 0.526784 0.337662 0.269620
N18   N     N_2   0.397253 0.915404 0.352388 -0.300998
H53   H     H_    0.343397 0.921308 0.358499 0.280734
C154  C     C_3   0.418235 0.839924 0.347731 -0.715939
H54   H     H_    0.378382 0.813638 0.333155 0.244610
H55   H     H_    0.418521 0.809215 0.368043 0.247439
H56   H     H_    0.473363 0.836831 0.337895 0.269746
N19   N     N_2   0.084757 0.397171 0.352431 -0.300960
H57   H     H_    0.078976 0.343351 0.358605 0.280687
C155  C     C_3   0.160186 0.418256 0.347717 -0.715803
H58   H     H_    0.186691 0.378011 0.333363 0.244556
H59   H     H_    0.190798 0.419386 0.368044 0.247469
H60   H     H_    0.163101 0.473050 0.337604 0.269576
N20   N     N_2   0.602888 0.084726 0.352434 -0.300976
H61   H     H_    0.656713 0.078888 0.358595 0.280686
C156  C     C_3   0.581862 0.160180 0.347740 -0.715845
H62   H     H_    0.622014 0.186616 0.333333 0.244580
H63   H     H_    0.580975 0.190809 0.368066 0.247445
H64   H     H_    0.526978 0.163172 0.337702 0.269669
N21   N     N_2   0.915257 0.397241 0.647585 -0.300973
H65   H     H_    0.921052 0.343405 0.641434 0.280700
C157  C     C_3   0.839821 0.418334 0.652276 -0.715876
H66   H     H_    0.813362 0.378234 0.666704 0.244571
H67   H     H_    0.809183 0.419198 0.631953 0.247456
H68   H     H_    0.836875 0.473242 0.662296 0.269650
N22   N     N_2   0.397253 0.084741 0.647586 -0.300960
H69   H     H_    0.343417 0.078955 0.641433 0.280719
C158  C     C_3   0.418353 0.160172 0.652284 -0.715826
H70   H     H_    0.378220 0.186646 0.666695 0.244561
H71   H     H_    0.419283 0.190806 0.631960 0.247448
H72   H     H_    0.473236 0.163105 0.662326 0.269607
N23   N     N_2   0.084747 0.602763 0.647583 -0.300971
H73   H     H_    0.078958 0.656596 0.641428 0.280695
C159  C     C_3   0.160181 0.581668 0.652279 -0.715866
H74   H     H_    0.186649 0.621789 0.666695 0.244566
H75   H     H_    0.190816 0.580761 0.631955 0.247458
H76   H     H_    0.163121 0.526777 0.662314 0.269641
N24   N     N_2   0.602765 0.915239 0.647581 -0.300963
H77   H     H_    0.656598 0.921019 0.641424 0.280701
C160  C     C_3   0.581659 0.839810 0.652280 -0.715867
H78   H     H_    0.621793 0.813332 0.666688 0.244568
H79   H     H_    0.580719 0.809179 0.631955 0.247461
H80   H     H_    0.526780 0.836883 0.662324 0.269624
C161  C     C_2   0.406342 0.101730 0.913669 0.950201
O65   O     O_2   0.410805 0.168008 0.910329 -0.608809
O66   O     O_R   0.354369 0.072651 0.932302 -0.812982
H81   H     H_    0.323597 0.111944 0.941737 0.348127
C162  C     C_2   0.898272 0.406336 0.913673 0.950194
O67   O     O_2   0.831991 0.410810 0.910340 -0.608799
O68   O     O_R   0.927357 0.354352 0.932300 -0.812990
H82   H     H_    0.888067 0.323581 0.941738 0.348125
C163  C     C_2   0.593672 0.898275 0.913676 0.950200
O69   O     O_2   0.589211 0.831995 0.910340 -0.608808
O70   O     O_R   0.645646 0.927363 0.932306 -0.812990
H83   H     H_    0.676421 0.888076 0.941744 0.348123
C164  C     C_2   0.101726 0.593665 0.913672 0.950194
O71   O     O_2   0.168006 0.589192 0.910338 -0.608800
O72   O     O_R   0.072642 0.645646 0.932300 -0.812987
H84   H     H_    0.111933 0.676417 0.941737 0.348125
C165  C     C_2   0.406291 0.898325 0.086327 0.950160
O73   O     O_2   0.410736 0.832041 0.089654 -0.608782
O74   O     O_R   0.354314 0.927445 0.067705 -0.813011
H85   H     H_    0.323521 0.888176 0.058266 0.348121
C166  C     C_2   0.898325 0.593688 0.086341 0.950166
O75   O     O_2   0.832047 0.589286 0.089696 -0.608818
O76   O     O_R   0.927419 0.645623 0.067696 -0.812999
H86   H     H_    0.888138 0.676424 0.058267 0.348124
C167  C     C_2   0.593736 0.101669 0.086323 0.950172
O77   O     O_2   0.589311 0.167950 0.089661 -0.608792
O78   O     O_R   0.645686 0.072557 0.067688 -0.813015
H87   H     H_    0.676480 0.111830 0.058251 0.348116
C168  C     C_2   0.101666 0.406237 0.086310 0.950173
O79   O     O_2   0.167952 0.410647 0.089637 -0.608797
O80   O     O_R   0.072522 0.354297 0.067679 -0.813032
H88   H     H_    0.111778 0.323497 0.058235 0.348116
C169  C     C_2   0.906371 0.601736 0.413660 0.950193
O81   O     O_2   0.910846 0.668014 0.410319 -0.608813
O82   O     O_R   0.854386 0.572667 0.432290 -0.812972
H89   H     H_    0.823615 0.611965 0.441722 0.348129
C170  C     C_2   0.398190 0.906452 0.413648 0.950262
O83   O     O_2   0.331924 0.910923 0.410272 -0.608885
O84   O     O_R   0.427193 0.854494 0.432306 -0.812919
H90   H     H_    0.387860 0.823750 0.441729 0.348131
C171  C     C_2   0.093683 0.398269 0.413686 0.950199
O85   O     O_2   0.089194 0.331985 0.410367 -0.608795
O86   O     O_R   0.145678 0.427368 0.432305 -0.812995
H91   H     H_    0.176446 0.388085 0.441748 0.348125
C172  C     C_2   0.601793 0.093636 0.413689 0.950248
O87   O     O_2   0.668074 0.089127 0.410363 -0.608828
O88   O     O_R   0.572723 0.145630 0.432315 -0.812975
H92   H     H_    0.612022 0.176379 0.441757 0.348125
C173  C     C_2   0.906337 0.398271 0.586328 0.950198
O89   O     O_2   0.910801 0.331992 0.589667 -0.608811
O90   O     O_R   0.854363 0.427352 0.567696 -0.812985
H93   H     H_    0.823589 0.388062 0.558261 0.348124
C174  C     C_2   0.398294 0.093684 0.586329 0.950189
O91   O     O_2   0.332014 0.089255 0.589673 -0.608824
O92   O     O_R   0.427387 0.145635 0.567689 -0.812993
H94   H     H_    0.388104 0.176424 0.558257 0.348125
C175  C     C_2   0.093666 0.601727 0.586327 0.950196
O93   O     O_2   0.089196 0.668006 0.589662 -0.608810
O94   O     O_R   0.145645 0.572644 0.567697 -0.812984
H95   H     H_    0.176416 0.611934 0.558260 0.348122
C176  C     C_2   0.601712 0.906315 0.586325 0.950188
O95   O     O_2   0.667994 0.910769 0.589660 -0.608805
O96   O     O_R   0.572615 0.854345 0.567695 -0.813001
H96   H     H_    0.611896 0.823563 0.558258 0.348121

loop_
_geom_bond_atom_site_label_1
_geom_bond_atom_site_label_2
_ccdc_geom_bond_type
O23   Zn5   S    
C165  O73   D    
C17   C53   A    
C130  H2    S    
C33   C45   A    
C120  C144  A    
C54   N7    S    
C160  H78   S    
O9    Zn3   S    
C154  H54   S    
O30   Zn10  S    
N18   C154  S    
C104  O64   S    
C112  C124  A    
C175  O94   S    
C30   C166  S    
C145  H20   S    
C149  H34   S    
C22   C38   A    
C119  C143  A    
C62   C70   T    
C106  C130  A    
C77   O25   A    
C49   N4    S    
C72   C88   S    
C13   C51   A    
C14   C52   A    
N16   C152  S    
C15   C51   A    
C144  H16   S    
C129  H1    S    
O14   Zn4   S    
O15   Zn4   S    
C84   O36   A    
C18   N18   S    
C103  C117  A    
C142  H14   S    
O6    Zn2   S    
C136  H8    S    
C43   C75   S    
C109  C133  A    
N22   H69   S    
C39   C175  S    
N12   H29   S    
O42   Zn10  S    
C121  C128  A    
C20   C54   A    
C95   C109  A    
C25   C41   A    
N24   C160  S    
C2    C59   S    
C123  C126  A    
C22   C56   A    
C101  C119  A    
C6    C63   S    
C33   C169  S    
C11   C49   A    
C95   N3    A    
C66   C82   S    
C8    O12   A    
O72   H84   S    
C11   C27   A    
C10   C26   A    
C100  C114  A    
O38   Zn6   S    
C26   C162  S    
C140  H12   S    
C141  H13   S    
C63   C71   T    
N13   C149  S    
C173  O89   D    
C113  C137  A    
O37   Zn7   S    
O88   H92   S    
C35   C45   A    
C160  H80   S    
O25   Zn9   S    
O5    Zn2   S    
C39   C47   A    
C154  H56   S    
N12   C148  S    
C108  C132  A    
C102  N8    A    
C92   C106  A    
C147  H27   S    
C85   O41   A    
O82   H89   S    
C23   C55   A    
C32   C168  S    
C24   C56   A    
C101  N7    A    
C174  O91   D    
C21   N21   S    
O46   Zn10  S    
C77   O27   A    
C19   C35   A    
C167  O77   D    
C86   O48   A    
C76   O22   A    
N24   H77   S    
C84   O38   A    
O84   H90   S    
C88   O44   A    
O74   H85   S    
C102  O62   S    
C55   N6    S    
C155  H59   S    
C99   N5    A    
C157  H67   S    
C103  N7    A    
C163  O69   D    
C91   C105  A    
O70   H83   S    
C82   O40   A    
C176  O95   D    
C31   C167  S    
C29   C165  S    
C153  H51   S    
C129  C144  A    
C17   N17   S    
O1    Zn1   S    
C90   N2    A    
C11   N11   S    
C34   C170  S    
C146  H22   S    
C114  C126  A    
C97   N5    A    
O24   Zn8   S    
C93   N3    A    
O94   H95   S    
C51   N2    S    
C100  O60   S    
N11   H25   S    
C122  C127  A    
C158  H71   S    
C83   O39   A    
C59   C67   T    
O17   Zn5   S    
C12   C50   A    
N19   C155  S    
C56   N5    S    
C131  H3    S    
C34   C46   A    
C37   C47   A    
O32   Zn12  S    
C38   C48   A    
C86   O42   A    
C150  H38   S    
C151  H44   S    
N23   C159  S    
C164  O72   S    
C112  C136  A    
C38   C174  S    
C161  O66   S    
C103  O63   S    
O2    Zn1   S    
C7    O13   A    
C7    O11   A    
C9    C49   A    
O41   Zn9   S    
C134  C139  A    
C109  C123  A    
C95   O55   S    
C96   N4    A    
N22   C158  S    
C75   O23   A    
N17   H49   S    
C76   O24   A    
C13   N13   S    
C18   C34   A    
C53   N8    S    
C139  H11   S    
C106  C122  A    
C152  H46   S    
C78   O28   A    
C16   N16   S    
C148  H31   S    
C98   N6    A    
N20   C156  S    
C110  C134  A    
C97   C115  A    
C69   C85   S    
C26   C42   A    
C171  O86   S    
O3    Zn1   S    
C132  C141  A    
O27   Zn11  S    
C1    O7    A    
C4    O4    A    
C87   O43   A    
C136  C137  A    
O34   Zn6   S    
C146  H24   S    
C73   O17   A    
C15   C31   A    
C16   C32   A    
C52   N1    S    
C155  H60   S    
C90   C108  A    
C175  O93   D    
O13   Zn4   S    
C138  H10   S    
C23   N23   S    
C20   N20   S    
C94   C112  A    
C114  C138  A    
C159  H76   S    
C170  O84   S    
C41   C73   S    
C150  H40   S    
C151  H42   S    
C94   O54   S    
C45   C77   S    
C172  O88   S    
N9    H17   S    
C6    O10   A    
C36   C172  S    
C168  O80   S    
C119  C127  A    
O48   Zn12  S    
C149  H36   S    
C97   O57   S    
C19   N19   S    
N14   H37   S    
O22   Zn6   S    
O36   Zn8   S    
C164  O71   D    
C9    C25   A    
N10   H21   S    
O4    Zn1   S    
C67   C83   S    
C166  O76   S    
C12   C28   A    
C13   C29   A    
C75   O21   A    
C169  O82   S    
C37   C173  S    
C27   C163  S    
O80   H88   S    
C152  H48   S    
C78   O26   A    
N21   C157  S    
O16   Zn4   S    
C110  C124  A    
O78   H87   S    
O76   H86   S    
C162  O68   S    
C9    N9    S    
C104  C118  A    
C3    C60   S    
C154  H55   S    
C19   C53   A    
C165  O74   S    
N13   H33   S    
C29   C43   A    
C30   C44   A    
C17   C33   A    
C89   N1    A    
C160  H79   S    
C74   O20   A    
C145  H19   S    
C42   C74   S    
C79   O31   A    
C111  C123  A    
C155  H58   S    
C68   C84   S    
O43   Zn11  S    
C83   O35   A    
C108  C122  A    
C153  H50   S    
C46   C78   S    
C81   O33   A    
C96   C110  A    
C28   C164  S    
C117  C141  A    
N18   H53   S    
C65   C81   S    
N16   H45   S    
C80   O30   A    
C89   C107  A    
C117  C127  A    
C31   C43   A    
C40   C176  S    
C93   C111  A    
C71   C87   S    
C6    O14   A    
N9    C145  S    
N15   C151  S    
C107  C121  A    
C10   C50   A    
C94   N4    A    
O68   H82   S    
C102  C120  A    
O31   Zn9   S    
C82   O34   A    
C172  O87   D    
C92   N2    A    
C35   C171  S    
O29   Zn11  S    
C98   O58   S    
C50   N3    S    
C16   C52   A    
C57   C65   T    
C99   C113  A    
O19   Zn7   S    
O92   H94   S    
C120  C128  A    
C143  H15   S    
C111  C135  A    
C156  H62   S    
C135  H7    S    
C158  H70   S    
C156  H63   S    
O39   Zn5   S    
C157  H66   S    
C20   C36   A    
C21   C37   A    
C60   C68   T    
C133  C140  A    
O44   Zn12  S    
N19   H57   S    
C4    O8    A    
C173  O90   S    
C87   O47   A    
C91   N1    A    
C101  O61   S    
C1    C58   S    
C5    O15   A    
C74   O18   A    
C134  H6    S    
C135  C138  A    
O66   H81   S    
C79   O29   A    
C151  H43   S    
N23   H73   S    
C24   N24   S    
O96   H96   S    
C47   C79   S    
C159  H74   S    
C147  H28   S    
O40   Zn8   S    
C25   C161  S    
O90   H93   S    
C161  O65   D    
C174  O92   S    
C88   O46   A    
O28   Zn12  S    
O20   Zn8   S    
N14   C150  S    
C167  O78   S    
O10   Zn3   S    
N10   C146  S    
C113  C125  A    
C80   O32   A    
C100  N6    A    
C10   N10   S    
C1    O1    A    
C92   O52   S    
C40   C48   A    
C152  H47   S    
O18   Zn6   S    
C14   N14   S    
C58   C66   T    
O8    Zn2   S    
O12   Zn3   S    
C96   O56   S    
C4    C57   S    
C148  H30   S    
C8    C61   S    
C8    O16   A    
C157  H68   S    
C163  O70   S    
C116  C126  A    
C118  C128  A    
C14   C30   A    
C176  O96   S    
C3    O5    A    
C153  H52   S    
C22   N22   S    
O47   Zn9   S    
C90   O50   S    
C137  H9    S    
C132  H4    S    
O45   Zn11  S    
C133  H5    S    
O11   Zn3   S    
C146  H23   S    
C18   C54   A    
C156  H64   S    
C105  C129  A    
N20   H61   S    
N15   H41   S    
N11   C147  S    
C12   N12   S    
C158  H72   S    
C85   O45   A    
C104  N8    A    
C27   C41   A    
C98   C116  A    
O7    Zn2   S    
C32   C44   A    
C105  C121  A    
C36   C46   A    
C130  C143  A    
C159  H75   S    
C5    O9    A    
C170  O83   D    
C131  C142  A    
C2    O2    A    
C150  H39   S    
C15   N15   S    
C147  H26   S    
C70   C86   S    
C81   O37   A    
C168  O79   D    
C61   C69   T    
C149  H35   S    
C21   C55   A    
O26   Zn10  S    
O35   Zn7   S    
C115  C139  A    
C118  C142  A    
C145  H18   S    
O33   Zn5   S    
C166  O75   D    
C115  C125  A    
C48   C80   S    
C107  C131  A    
N17   C153  S    
C169  O81   D    
C2    O6    A    
C3    O3    A    
C171  O85   D    
C23   C39   A    
C28   C42   A    
C24   C40   A    
C5    C62   S    
C64   C72   T    
C91   O51   S    
N21   H65   S    
C148  H32   S    
C99   O59   S    
C7    C64   S    
C73   O19   A    
C89   O49   S    
C93   O53   S    
C44   C76   S    
C162  O67   D    
O86   H91   S    
C124  C125  A    
C116  C140  A    
O21   Zn7   S    
