data_mof_unit_58515.cif
_audit_creation_date              2012-12-10T18:46:14-0500
_audit_creation_method            fapswitch 2.2
_symmetry_space_group_name_H-M    P1
_symmetry_Int_Tables_number       1
_space_group_crystal_system       triclinic
_cell_length_a                    9.950644
_cell_length_b                    10.754265
_cell_length_c                    13.021894
_cell_angle_alpha                 91.482993
_cell_angle_beta                  68.713326
_cell_angle_gamma                 88.344342
_cell_volume                      1296.89480494

loop_
_atom_site_label
_atom_site_type_symbol
_atom_type_description
_atom_site_fract_x
_atom_site_fract_y
_atom_site_fract_z
_atom_type_partial_charge
C1    C     C_R   0.499796 0.739922 0.496605 0.900240
C2    C     C_R   0.433604 0.493441 0.988051 0.004138
C3    C     C_R   0.447803 0.442569 0.882618 -0.015755
C4    C     C_R   0.545137 0.461972 0.028700 0.078814
C5    C     C_R   0.644843 0.360238 0.979726 0.051902
C6    C     C_R   0.639229 0.298165 0.886268 -0.257582
C7    C     C_R   0.543095 0.337050 0.837623 0.127544
C8    C     C_R   0.560241 0.527544 0.117586 -0.265292
C9    C     C_R   0.730677 0.371906 0.131844 -0.230573
C10   C     C_R   0.361427 0.494561 0.827802 -0.209492
C11   C     C_R   0.629363 0.933775 0.450461 0.076218
C12   C     C_R   0.418152 0.497545 0.705772 0.867214
C13   C     C_R   0.627739 0.061737 0.457618 -0.282824
C14   C     C_R   0.497741 0.129002 0.508724 -0.108109
C15   C     C_R   0.366122 0.069478 0.554895 0.053613
C16   C     C_R   0.365163 0.942158 0.539057 0.182663
C17   C     C_R   0.497740 0.873379 0.493280 -0.123799
C18   C     C_R   0.967446 0.427503 0.424689 0.070476
C19   C     C_R   0.109115 0.423158 0.428445 0.157136
C20   C     C_R   0.033625 0.573298 0.574411 0.128766
C21   C     C_R   0.890330 0.569804 0.577021 0.130939
C22   C     C_R   0.499326 0.260824 0.503719 0.875079
C23   C     C_R   0.581626 0.499275 0.295073 0.886969
C24   C     C_R   0.741197 0.317660 0.030635 0.218515
C25   C     C_R   0.636034 0.473969 0.176807 -0.106995
C26   C     C_R   0.231127 0.559403 0.890159 0.162081
C27   C     C_R   0.201838 0.592721 0.000783 0.093736
C28   C     C_R   0.303318 0.565407 0.049550 0.033501
H1    H     H_    0.790959 0.330298 0.177585 0.153328
H2    H     H_    0.728239 0.108294 0.420783 0.154885
H3    H     H_    0.705790 0.215022 0.851562 0.163690
H4    H     H_    0.505594 0.616086 0.147947 0.142099
N1    N     N_R   0.142790 0.500030 0.500030 -0.120944
N2    N     N_R   0.857180 0.499940 0.500010 -0.120654
O1    O     O_R   0.385370 0.683250 0.500010 -0.616860
O2    O     O_R   0.614700 0.683220 0.500010 -0.605480
O3    O     O_R   0.328400 0.499990 0.653620 -0.595045
O4    O     O_R   0.557730 0.499960 0.653620 -0.628703
O5    O     O_R   0.385300 0.316780 0.499990 -0.603944
O6    O     O_R   0.614630 0.316750 0.499990 -0.648206
O7    O     O_R   0.442270 0.500040 0.346380 -0.589047
O8    O     O_R   0.671600 0.500010 0.346380 -0.623048
Zn1   Zn    Zn3+2 0.346870 0.500020 0.500000 0.941749
Zn2   Zn    Zn3+2 0.653130 0.499980 0.500000 0.910527
N3    N     N_3   0.232043 0.135311 0.617618 -0.477899
H5    H     H_    0.247619 0.198476 0.674238 0.182480
H6    H     H_    0.191568 0.181316 0.564676 0.216181
N4    N     N_2   0.230319 0.885232 0.563055 -0.299284
H7    H     H_    0.152352 0.915598 0.637063 0.230781
C29   C     C_3   0.178281 0.888023 0.472518 -0.763150
H8    H     H_    0.157308 0.985648 0.454636 0.225410
H9    H     H_    0.076067 0.838446 0.494020 0.223589
H10   H     H_    0.258635 0.841302 0.397218 0.251105
N5    N     N_3   0.943673 0.356681 0.339026 -0.487547
H11   H     H_    0.918924 0.418662 0.287606 0.211580
H12   H     H_    0.858198 0.298828 0.373678 0.216155
N6    N     N_3   0.216287 0.334026 0.360406 -0.387266
H13   H     H_    0.179474 0.245273 0.383866 0.163133
H14   H     H_    0.225332 0.341890 0.278469 0.182830
N7    N     N_3   0.058433 0.647731 0.657933 -0.440669
H15   H     H_    0.167559 0.657749 0.638765 0.273381
H16   H     H_    0.013711 0.737129 0.660009 0.178031
N8    N     N_3   0.781470 0.638723 0.665286 -0.469086
H17   H     H_    0.724096 0.577751 0.725141 0.214160
H18   H     H_    0.714550 0.691553 0.636419 0.236075
N9    N     N_2   0.844541 0.217576 0.984905 -0.315639
H19   H     H_    0.895148 0.215201 0.900347 0.218086
C30   C     C_3   0.798655 0.097621 0.029585 -0.793777
H20   H     H_    0.888469 0.027054 0.993463 0.238792
H21   H     H_    0.704634 0.068654 0.009250 0.240544
H22   H     H_    0.768891 0.101456 0.120569 0.245988
N10   N     N_2   0.123600 0.582848 0.844489 -0.283322
H23   H     H_    0.069613 0.668245 0.868455 0.239562
C31   C     C_3   0.025904 0.481987 0.859077 -0.701540
H24   H     H_    0.941484 0.505896 0.825088 0.240399
H25   H     H_    0.971832 0.465334 0.948151 0.241606
H26   H     H_    0.085767 0.395543 0.815684 0.234532
N11   N     N_3   0.256692 0.595322 0.165678 -0.483924
H27   H     H_    0.287319 0.525911 0.207833 0.219292
H28   H     H_    0.290779 0.683189 0.179072 0.177467
N12   N     N_3   0.065759 0.654414 0.064295 -0.469788
H29   H     H_    0.085424 0.739642 0.095581 0.189412
H30   H     H_    0.011134 0.599409 0.130525 0.210453
N13   N     N_3   0.529931 0.253938 0.754174 -0.459123
H31   H     H_    0.615559 0.267821 0.680740 0.224110
H32   H     H_    0.430957 0.266190 0.744452 0.163045
N14   N     N_3   0.763935 0.865991 0.395004 -0.429554
H33   H     H_    0.834299 0.887411 0.435569 0.184745
H34   H     H_    0.808441 0.896764 0.314507 0.175176

loop_
_geom_bond_atom_site_label_1
_geom_bond_atom_site_label_2
_ccdc_geom_bond_type
N9    C30   S    
N14   H33   S    
N8    H18   S    
C26   N10   S    
C4    C8    A    
C16   N4    S    
N12   H29   S    
C9    C25   A    
N3    H5    S    
C19   N6    S    
C26   C27   A    
C23   O8    A    
C31   H25   S    
N13   H32   S    
C3    C7    A    
C5    C6    A    
N11   H28   S    
N6    H14   S    
C15   C16   A    
N7    H16   S    
C18   C19   A    
C12   O3    A    
C6    H3    S    
C11   N14   S    
C30   H20   S    
C31   H26   S    
C29   H9    S    
C20   N7    S    
O1    Zn1   S    
C9    H1    S    
C10   C26   A    
N4    C29   S    
C7    N13   S    
C13   C14   A    
C8    C25   A    
O7    Zn1   S    
O8    Zn2   S    
N12   H30   S    
N3    H6    S    
N5    H12   S    
C29   H10   S    
C31   H24   S    
N1    Zn1   S    
C13   H2    S    
C27   N12   S    
N2    Zn2   S    
N13   H31   S    
N10   C31   S    
C19   N1    A    
N11   H27   S    
N10   H23   S    
O5    Zn1   S    
C21   N2    A    
N7    H15   S    
C8    H4    S    
O3    Zn1   S    
C2    C4    A    
O4    Zn2   S    
C22   O6    A    
C29   H8    S    
C18   N2    A    
C10   C12   S    
C20   N1    A    
N4    H7    S    
N14   H34   S    
O2    Zn2   S    
C15   N3    S    
C28   N11   S    
C1    O1    A    
N5    H11   S    
C11   C17   A    
C4    C5    A    
C9    C24   A    
C6    C7    A    
C24   N9    S    
C1    C17   S    
C23   O7    A    
C14   C22   S    
C2    C3    A    
C3    C10   A    
C11   C13   A    
N6    H13   S    
C16   C17   A    
C5    C24   A    
C30   H22   S    
C22   O5    A    
N9    H19   S    
C23   C25   S    
C12   O4    A    
C21   N8    S    
C18   N5    S    
N8    H17   S    
O6    Zn2   S    
C20   C21   A    
C30   H21   S    
C27   C28   A    
C14   C15   A    
C2    C28   A    
C1    O2    A    
