data_mof_unit_63378.cif
_audit_creation_date              2012-12-10T18:22:05-0500
_audit_creation_method            fapswitch 2.2
_symmetry_space_group_name_H-M    P1
_symmetry_Int_Tables_number       1
_space_group_crystal_system       triclinic
_cell_length_a                    41.798236
_cell_length_b                    35.650537
_cell_length_c                    21.588472
_cell_angle_alpha                 89.998532
_cell_angle_beta                  58.398999
_cell_angle_gamma                 89.999074
_cell_volume                      27399.4375306

loop_
_atom_site_label
_atom_site_type_symbol
_atom_type_description
_atom_site_fract_x
_atom_site_fract_y
_atom_site_fract_z
_atom_type_partial_charge
C1    C     C_R   0.927569 0.499968 0.573423 0.800125
C2    C     C_R   0.327118 0.469068 0.156822 -0.182980
C3    C     C_R   0.999987 0.807364 0.000034 0.138231
C4    C     C_1   0.500001 0.267015 0.000003 -0.052776
C5    C     C_1   0.999985 0.767014 0.000043 -0.052775
C6    C     C_1   0.999985 0.733207 0.000046 -0.034314
C7    C     C_1   0.500001 0.233208 0.000003 -0.034318
C8    C     C_R   0.020970 0.673254 0.934696 -0.181737
C9    C     C_R   0.979008 0.673242 0.065371 -0.181742
C10   C     C_R   0.520942 0.173250 0.934654 -0.181726
C11   C     C_R   0.479058 0.173249 0.065349 -0.181725
C12   C     C_R   0.021145 0.633968 0.934143 -0.041157
C13   C     C_R   0.172882 0.969066 0.843199 -0.182972
C14   C     C_R   0.978837 0.633956 0.065899 -0.041102
C15   C     C_R   0.521114 0.133964 0.934113 -0.041148
C16   C     C_R   0.478886 0.133962 0.065889 -0.041155
C17   C     C_R   0.999996 0.613788 0.000015 -0.120666
C18   C     C_R   0.500000 0.113789 0.000001 -0.120584
C19   C     C_3   0.015328 0.537326 0.196991 -0.502483
C20   C     C_3   0.984556 0.537287 0.803105 -0.502806
C21   C     C_3   0.515481 0.037274 0.196858 -0.502874
C22   C     C_3   0.484524 0.037274 0.803135 -0.502834
C23   C     C_R   0.999989 0.692847 0.000039 0.108662
C24   C     C_R   0.827118 0.969069 0.156797 -0.182972
C25   C     C_R   0.500001 0.192849 0.000002 0.108656
C26   C     C_R   0.527195 0.672886 0.006909 -0.051888
C27   C     C_R   0.472805 0.672887 0.993082 -0.051886
C28   C     C_R   0.027204 0.172886 0.006883 -0.051880
C29   C     C_R   0.972799 0.172887 0.993101 -0.051875
C30   C     C_R   0.527185 0.633387 0.007075 -0.104383
C31   C     C_R   0.472815 0.633387 0.992919 -0.104401
C32   C     C_R   0.027193 0.133386 0.007052 -0.104391
C33   C     C_R   0.972810 0.133387 0.992938 -0.104391
C34   C     C_R   0.500000 0.613523 0.999997 -0.153115
C35   C     C_R   0.633580 0.468301 0.883424 -0.092835
C36   C     C_R   0.000001 0.113522 0.999996 -0.153112
C37   C     C_R   0.500000 0.692552 0.999995 0.018633
C38   C     C_R   0.000002 0.192551 0.999991 0.018632
C39   C     C_1   0.500000 0.733088 0.999994 -0.005782
C40   C     C_1   0.000002 0.233087 0.999990 -0.005775
C41   C     C_1   0.000002 0.266811 0.999990 -0.020437
C42   C     C_1   0.500000 0.766812 0.999994 -0.020449
C43   C     C_R   0.034161 0.327125 0.968884 -0.007475
C44   C     C_R   0.965842 0.327124 0.031104 -0.007463
C45   C     C_R   0.534159 0.827125 0.968910 -0.007503
C46   C     C_R   0.366421 0.468292 0.116590 -0.092831
C47   C     C_R   0.465841 0.827125 0.031082 -0.007501
C48   C     C_R   0.033978 0.366342 0.968824 -0.249062
C49   C     C_R   0.966024 0.366342 0.031173 -0.248903
C50   C     C_R   0.533976 0.866342 0.968849 -0.248983
C51   C     C_R   0.466024 0.866343 0.031146 -0.248970
C52   C     C_R   0.000000 0.386238 0.000001 -0.064468
C53   C     C_R   0.500000 0.886238 0.999999 -0.064527
C54   C     C_3   0.024447 0.466869 0.260417 -0.440052
C55   C     C_3   0.975741 0.466738 0.739403 -0.439925
C56   C     C_3   0.524213 0.966707 0.260645 -0.439971
C57   C     C_R   0.133578 0.968292 0.883430 -0.092829
C58   C     C_3   0.475774 0.966714 0.739370 -0.439910
C59   C     C_R   0.000002 0.307283 0.999992 0.038105
C60   C     C_R   0.500000 0.807283 0.999995 0.038061
C61   C     C_3   0.959612 0.495106 0.329207 -0.261648
C62   C     C_3   0.040417 0.495336 0.670758 -0.261967
C63   C     C_3   0.459577 0.995394 0.329251 -0.262030
C64   C     C_3   0.540421 0.995378 0.670752 -0.262006
C65   C     C_3   0.000925 0.500256 0.309965 -0.043811
C66   C     C_3   0.999075 0.500255 0.690033 -0.043815
C67   C     C_3   0.500926 0.000256 0.309967 -0.043814
C68   C     C_R   0.866421 0.968294 0.116567 -0.092824
C69   C     C_3   0.499074 0.000255 0.690033 -0.043836
C70   C     C_3   0.999152 0.499505 0.190126 0.009695
C71   C     C_3   0.000851 0.499517 0.809869 0.009641
C72   C     C_3   0.499149 0.999521 0.190131 0.009682
C73   C     C_3   0.500850 0.999518 0.809869 0.009683
C74   C     C_3   0.024646 0.467095 0.188529 0.218330
C75   C     C_3   0.975463 0.467023 0.811370 0.218186
C76   C     C_3   0.524507 0.967003 0.188661 0.218067
C77   C     C_3   0.475489 0.967004 0.811345 0.218076
C78   C     C_1   0.055996 0.544936 0.248558 0.244244
C79   C     C_R   0.613189 0.500404 0.885974 -0.150741
C80   C     C_1   0.943729 0.544580 0.751803 0.243926
C81   C     C_1   0.556337 0.044495 0.248112 0.243874
C82   C     C_1   0.443680 0.044517 0.751857 0.243895
C83   C     C_3   0.040957 0.407141 0.137867 0.051933
C84   C     C_3   0.025111 0.368003 0.143803 -0.744709
C85   C     C_3   0.959264 0.407043 0.861943 0.051983
C86   C     C_3   0.975199 0.367942 0.855938 -0.744714
C87   C     C_3   0.540663 0.906987 0.138265 0.052032
C88   C     C_3   0.524683 0.867907 0.144289 -0.744741
C89   C     C_3   0.459337 0.906995 0.861786 0.052008
C90   C     C_R   0.386810 0.500399 0.114028 -0.150739
C91   C     C_3   0.475314 0.867912 0.855752 -0.744719
C92   C     C_1   0.614681 0.434204 0.920948 0.245627
C93   C     C_1   0.385324 0.434195 0.079073 0.245613
C94   C     C_1   0.114674 0.934199 0.920970 0.245637
C95   C     C_1   0.885325 0.934202 0.079028 0.245638
C96   C     C_3   0.615910 0.574325 0.788404 0.057550
C97   C     C_3   0.589219 0.606334 0.800143 -0.743973
C98   C     C_3   0.384081 0.574329 0.211581 0.057549
C99   C     C_3   0.410775 0.606336 0.199830 -0.743980
C100  C     C_3   0.115918 0.074309 0.788380 0.057549
C101  C     C_R   0.113190 0.000396 0.885972 -0.150749
C102  C     C_3   0.089232 0.106321 0.800113 -0.743966
C103  C     C_3   0.884092 0.074300 0.211610 0.057539
C104  C     C_3   0.910776 0.106314 0.199877 -0.743959
C105  C     C_1   0.881825 0.437980 0.673474 0.256672
C106  C     C_1   0.118155 0.438125 0.326115 0.256387
C107  C     C_1   0.381854 0.938167 0.674014 0.256504
C108  C     C_1   0.618149 0.938159 0.326015 0.256522
C109  C     C_1   0.809501 0.565211 0.640427 0.245116
C110  C     C_1   0.190497 0.565063 0.360049 0.245095
C111  C     C_1   0.309501 0.065021 0.639823 0.245073
C112  C     C_R   0.072429 0.499968 0.426582 0.799908
C113  C     C_R   0.886810 0.000397 0.114027 -0.150759
C114  C     C_1   0.690498 0.065031 0.360142 0.245076
C115  C     C_1   0.042178 0.615148 0.864857 0.228019
C116  C     C_1   0.957782 0.615121 0.135169 0.228015
C117  C     C_1   0.542114 0.115139 0.864827 0.227901
C118  C     C_1   0.457885 0.115136 0.135174 0.227898
C119  C     C_1   0.555283 0.693337 0.013567 0.258016
C120  C     C_1   0.444718 0.693338 0.986422 0.258010
C121  C     C_1   0.055300 0.193336 0.013515 0.258027
C122  C     C_1   0.944704 0.193338 0.986467 0.258022
C123  C     C_1   0.555844 0.613274 0.012390 0.314207
C124  C     C_R   0.632409 0.533018 0.847750 0.424337
C125  C     C_1   0.444156 0.613275 0.987606 0.314197
C126  C     C_1   0.055858 0.113272 0.012348 0.314182
C127  C     C_1   0.944144 0.113274 0.987645 0.314182
C128  C     C_1   0.069751 0.307800 0.936875 0.238146
C129  C     C_1   0.930252 0.307799 0.063110 0.238116
C130  C     C_1   0.569748 0.807799 0.936920 0.238184
C131  C     C_1   0.430252 0.807800 0.063068 0.238165
C132  C     C_1   0.934244 0.523894 0.381602 0.311195
C133  C     C_1   0.065596 0.524334 0.618688 0.311855
C134  C     C_1   0.434442 0.024440 0.381247 0.311995
C135  C     C_R   0.367586 0.533013 0.152246 0.424339
C136  C     C_1   0.565569 0.024408 0.618729 0.311946
C137  C     C_3   0.897630 0.507568 0.285318 0.085319
C138  C     C_3   0.871058 0.539169 0.294546 -0.711190
C139  C     C_3   0.102380 0.507760 0.714624 0.085272
C140  C     C_3   0.128892 0.539374 0.705634 -0.711106
C141  C     C_3   0.397622 0.007830 0.285380 0.085269
C142  C     C_3   0.371131 0.039457 0.294318 -0.711090
C143  C     C_3   0.602377 0.007824 0.714622 0.085271
C144  C     C_3   0.628871 0.039453 0.705652 -0.711096
C145  C     C_R   0.132416 0.033006 0.847734 0.424340
C146  C     C_R   0.867585 0.033007 0.152263 0.424333
C147  C     C_R   0.671883 0.533616 0.808999 -0.232573
C148  C     C_R   0.328112 0.533606 0.191002 -0.232579
C149  C     C_R   0.171891 0.033597 0.808977 -0.232562
C150  C     C_R   0.828110 0.033599 0.191020 -0.232547
C151  C     C_R   0.691998 0.501649 0.806199 0.059319
C152  C     C_R   0.427571 0.999968 0.573419 0.799931
C153  C     C_R   0.307999 0.501634 0.193814 0.059322
C154  C     C_R   0.192002 0.001628 0.806186 0.059319
C155  C     C_R   0.807998 0.001631 0.193811 0.059313
C156  C     C_1   0.732370 0.502312 0.766077 -0.006432
C157  C     C_1   0.267626 0.502293 0.233942 -0.006441
C158  C     C_1   0.232375 0.002285 0.766059 -0.006426
C159  C     C_1   0.767625 0.002289 0.233937 -0.006425
C160  C     C_1   0.766201 0.502532 0.732664 -0.036584
C161  C     C_1   0.233794 0.502512 0.267361 -0.036629
C162  C     C_1   0.266207 0.002505 0.732642 -0.036618
C163  C     C_R   0.572429 0.999968 0.426580 0.799946
C164  C     C_1   0.733793 0.002508 0.267355 -0.036614
C165  C     C_R   0.825216 0.471411 0.699513 -0.198778
C166  C     C_R   0.174775 0.471462 0.300303 -0.198782
C167  C     C_R   0.325229 0.971476 0.699762 -0.198702
C168  C     C_R   0.674772 0.971474 0.300250 -0.198701
C169  C     C_R   0.001621 0.499999 0.378267 0.800046
C170  C     C_R   0.998381 0.499997 0.621730 0.799971
C171  C     C_R   0.501619 0.999998 0.378269 0.800035
C172  C     C_R   0.498380 0.999997 0.621731 0.800037
C173  C     C_R   0.864504 0.470022 0.661707 -0.026352
C174  C     C_3   0.958387 0.494200 0.258124 0.309630
C175  C     C_R   0.135487 0.470082 0.338103 -0.026248
C176  C     C_R   0.364517 0.970100 0.661961 -0.026094
C177  C     C_R   0.635484 0.970097 0.338052 -0.026100
C178  C     C_R   0.885896 0.500176 0.615839 -0.096405
C179  C     C_R   0.114100 0.500175 0.384176 -0.096436
C180  C     C_R   0.385902 0.000175 0.615826 -0.096326
C181  C     C_R   0.614099 0.000175 0.384173 -0.096325
C182  C     C_R   0.866968 0.531474 0.610503 -0.208812
C183  C     C_R   0.133028 0.531406 0.389734 -0.209506
C184  C     C_R   0.366972 0.031388 0.610206 -0.209731
C185  C     C_3   0.041632 0.494332 0.741849 0.309400
C186  C     C_R   0.633028 0.031392 0.389777 -0.209684
C187  C     C_R   0.827685 0.532695 0.648319 0.007604
C188  C     C_R   0.172311 0.532619 0.351926 0.007634
C189  C     C_R   0.327689 0.032597 0.648013 0.007668
C190  C     C_R   0.672311 0.032603 0.351969 0.007664
C191  C     C_R   0.806705 0.502403 0.692897 0.071732
C192  C     C_R   0.193290 0.502386 0.307133 0.071728
C193  C     C_R   0.306712 0.002381 0.692869 0.071742
C194  C     C_R   0.693289 0.002384 0.307128 0.071742
C195  C     C_R   0.999999 0.572238 0.000002 0.800080
C196  C     C_3   0.458364 0.994371 0.258159 0.309366
C197  C     C_R   0.500000 0.072238 0.000000 0.800031
C198  C     C_R   0.999695 0.499590 0.120579 0.847802
C199  C     C_R   0.000306 0.499603 0.879419 0.848354
C200  C     C_R   0.499694 0.999607 0.120581 0.848490
C201  C     C_R   0.500306 0.999605 0.879419 0.848417
C202  C     C_R   0.000000 0.427616 0.000001 0.841141
C203  C     C_R   0.500000 0.927616 1.000000 0.841372
C204  C     C_R   0.500000 0.427829 0.000000 0.790759
C205  C     C_R   0.999999 0.927829 0.000002 0.790756
C206  C     C_R   0.571943 0.500190 0.927823 0.856994
C207  C     C_3   0.541635 0.994363 0.741844 0.309391
C208  C     C_R   0.428057 0.500189 0.072178 0.856992
C209  C     C_R   0.071943 0.000189 0.927822 0.856985
C210  C     C_R   0.928057 0.000189 0.072178 0.856977
C211  C     C_3   0.017140 0.537838 0.266684 -0.154051
C212  C     C_3   0.982653 0.537749 0.733509 -0.154220
C213  C     C_3   0.517399 0.037727 0.266438 -0.154287
C214  C     C_3   0.482613 0.037731 0.733547 -0.154281
C215  C     C_R   0.500000 0.572089 0.999999 0.833270
C216  C     C_R   0.000000 0.072089 0.999999 0.833248
C217  C     C_R   0.498787 0.327036 0.945190 -0.147178
C218  C     C_R   0.672883 0.469082 0.843197 -0.182966
C219  C     C_R   0.501214 0.327035 0.054815 -0.147176
C220  C     C_R   0.998752 0.827033 0.945241 -0.147174
C221  C     C_R   0.001227 0.827038 0.054815 -0.147185
C222  C     C_R   0.498794 0.366248 0.945113 -0.160212
C223  C     C_R   0.501207 0.366248 0.054891 -0.160215
C224  C     C_R   0.998764 0.866245 0.945152 -0.160205
C225  C     C_R   0.001223 0.866250 0.054880 -0.160202
C226  C     C_R   0.500000 0.386305 0.000002 -0.018494
C227  C     C_R   0.999996 0.886305 0.000010 -0.018530
C228  C     C_R   0.500001 0.307365 0.000003 0.138246
Cu1   Cu    Cu3+1 0.000000 0.537250 0.500000 0.989746
Cu2   Cu    Cu3+1 0.500030 0.500070 0.062440 0.985672
Cu3   Cu    Cu3+1 0.999970 0.000070 0.937560 0.985670
Cu4   Cu    Cu3+1 0.000030 0.000070 0.062440 0.985657
Cu5   Cu    Cu3+1 0.500000 0.037250 0.500000 0.989730
Cu6   Cu    Cu3+1 0.000000 0.462700 0.500000 0.987470
Cu7   Cu    Cu3+1 0.500000 0.962700 0.500000 0.987367
Cu8   Cu    Cu3+1 0.962700 0.499940 0.037300 0.955987
Cu9   Cu    Cu3+1 0.037300 0.499940 0.962700 0.956028
Cu10  Cu    Cu3+1 0.462700 0.999940 0.037300 0.956156
Cu11  Cu    Cu3+1 0.537300 0.999940 0.962700 0.956167
Cu12  Cu    Cu3+1 0.499970 0.500070 0.937560 0.985665
H1    H     H_    0.949133 0.465490 0.253150 0.095777
H2    H     H_    0.311385 0.444368 0.159055 0.150736
H3    H     H_    0.891531 0.049883 0.233943 0.147575
H4    H     H_    0.854992 0.083636 0.251886 0.147493
H5    H     H_    0.904300 0.131105 0.177154 0.252992
H6    H     H_    0.907736 0.114223 0.252454 0.199880
H7    H     H_    0.940238 0.097530 0.161460 0.252433
H8    H     H_    0.886413 0.493684 0.339059 0.124988
H9    H     H_    0.898267 0.486906 0.246034 0.144706
H10   H     H_    0.880157 0.552044 0.240959 0.252833
H11   H     H_    0.842183 0.527939 0.317982 0.184347
H12   H     H_    0.870774 0.560908 0.331686 0.262537
H13   H     H_    0.188613 0.944368 0.840983 0.150740
H14   H     H_    0.113605 0.494009 0.660764 0.124959
H15   H     H_    0.101813 0.487000 0.753700 0.144585
H16   H     H_    0.119789 0.552117 0.759326 0.252742
H17   H     H_    0.157795 0.528194 0.682051 0.184336
H18   H     H_    0.129109 0.561207 0.668709 0.262579
H19   H     H_    0.386391 0.994106 0.339266 0.124943
H20   H     H_    0.398170 0.987054 0.246348 0.144578
H21   H     H_    0.380240 0.052175 0.240603 0.252712
H22   H     H_    0.342219 0.028294 0.317930 0.184345
H23   H     H_    0.370933 0.061304 0.331198 0.262584
H24   H     H_    0.811386 0.944372 0.159013 0.150740
H25   H     H_    0.613606 0.994086 0.660750 0.124937
H26   H     H_    0.601826 0.987059 0.753675 0.144592
H27   H     H_    0.619765 0.052184 0.759355 0.252717
H28   H     H_    0.657782 0.028289 0.682047 0.184348
H29   H     H_    0.629069 0.061290 0.668755 0.262585
H30   H     H_    0.686801 0.559113 0.781992 0.155348
H31   H     H_    0.313191 0.559102 0.218005 0.155339
H32   H     H_    0.186812 0.059091 0.781959 0.155343
H33   H     H_    0.813189 0.059093 0.218039 0.155352
H34   H     H_    0.808915 0.448289 0.734668 0.144785
H35   H     H_    0.191074 0.448388 0.264984 0.144789
H36   H     H_    0.308932 0.948416 0.735130 0.144783
H37   H     H_    0.050937 0.465619 0.746667 0.096011
H38   H     H_    0.691070 0.948412 0.264893 0.144782
H39   H     H_    0.882848 0.554929 0.576065 0.178732
H40   H     H_    0.117147 0.554813 0.424338 0.178805
H41   H     H_    0.382853 0.054781 0.575554 0.178798
H42   H     H_    0.617147 0.054789 0.424418 0.178798
H43   H     H_    0.999876 0.561829 0.300793 0.173610
H44   H     H_    0.999738 0.561845 0.699495 0.173537
H45   H     H_    0.500356 0.061848 0.300424 0.173534
H46   H     H_    0.499669 0.061845 0.699554 0.173546
H47   H     H_    0.497831 0.312068 0.902508 0.137526
H48   H     H_    0.449041 0.965661 0.253384 0.096057
H49   H     H_    0.502170 0.312066 0.097498 0.137527
H50   H     H_    0.997777 0.812062 0.902582 0.137534
H51   H     H_    0.002199 0.812071 0.097482 0.137536
H52   H     H_    0.497806 0.380810 0.902130 0.159496
H53   H     H_    0.502194 0.380808 0.097873 0.159498
H54   H     H_    0.997759 0.880805 0.902186 0.159511
H55   H     H_    0.002231 0.880813 0.097839 0.159515
H56   H     H_    0.037047 0.688629 0.884058 0.142343
H57   H     H_    0.962924 0.688609 0.116018 0.142342
H58   H     H_    0.536992 0.188622 0.884004 0.142340
H59   H     H_    0.550958 0.965654 0.746631 0.096052
H60   H     H_    0.463009 0.188619 0.116000 0.142341
H61   H     H_    0.060430 0.381312 0.944805 0.161651
H62   H     H_    0.939572 0.381311 0.055192 0.161585
H63   H     H_    0.560428 0.881311 0.944849 0.161647
H64   H     H_    0.439572 0.881312 0.055148 0.161636
H65   H     H_    0.997286 0.560819 0.199036 0.219747
H66   H     H_    0.002571 0.560827 0.800984 0.219698
H67   H     H_    0.497482 0.060831 0.198979 0.219705
H68   H     H_    0.502521 0.060829 0.801022 0.219705
H69   H     H_    0.043585 0.542145 0.147541 0.177225
H70   H     H_    0.012624 0.439850 0.289414 0.219983
H71   H     H_    0.956314 0.542065 0.852621 0.177423
H72   H     H_    0.543723 0.042032 0.147330 0.177463
H73   H     H_    0.456280 0.042032 0.852657 0.177453
H74   H     H_    0.053814 0.468298 0.248114 0.152872
H75   H     H_    0.946384 0.467957 0.751606 0.153013
H76   H     H_    0.553569 0.967877 0.248457 0.153207
H77   H     H_    0.446417 0.967899 0.751568 0.153195
H78   H     H_    0.053989 0.473022 0.142867 0.103521
H79   H     H_    0.946091 0.472893 0.856974 0.103646
H80   H     H_    0.553886 0.972849 0.143063 0.103734
H81   H     H_    0.987763 0.439784 0.710301 0.219883
H82   H     H_    0.446112 0.972850 0.856951 0.103702
H83   H     H_    0.949064 0.467610 0.357141 0.105117
H84   H     H_    0.051150 0.467936 0.642536 0.104628
H85   H     H_    0.448800 0.968016 0.357541 0.104509
H86   H     H_    0.551185 0.967992 0.642487 0.104548
H87   H     H_    0.060821 0.405922 0.157580 0.150430
H88   H     H_    0.056363 0.415866 0.079757 0.154878
H89   H     H_    0.003892 0.368448 0.127683 0.257206
H90   H     H_    0.048069 0.348424 0.107569 0.207982
H91   H     H_    0.011542 0.357831 0.200737 0.246240
H92   H     H_    0.512145 0.939770 0.289778 0.219862
H93   H     H_    0.939441 0.405779 0.842137 0.150351
H94   H     H_    0.943794 0.415723 0.920078 0.154884
H95   H     H_    0.996392 0.368434 0.872121 0.257264
H96   H     H_    0.952280 0.348306 0.892085 0.207994
H97   H     H_    0.988822 0.357808 0.798972 0.246150
H98   H     H_    0.560420 0.905706 0.158223 0.150450
H99   H     H_    0.556215 0.915625 0.080104 0.154822
H100  H     H_    0.503569 0.868414 0.127905 0.257248
H101  H     H_    0.547595 0.848224 0.108310 0.208009
H102  H     H_    0.510953 0.857821 0.201302 0.246153
H103  H     H_    0.487828 0.939772 0.710244 0.219878
H104  H     H_    0.439554 0.905715 0.841885 0.150449
H105  H     H_    0.443814 0.915642 0.919941 0.154834
H106  H     H_    0.496459 0.868420 0.872057 0.257252
H107  H     H_    0.452406 0.848239 0.891789 0.208011
H108  H     H_    0.489005 0.857814 0.798753 0.246147
H109  H     H_    0.608486 0.549912 0.766036 0.147557
H110  H     H_    0.645009 0.583673 0.748152 0.147484
H111  H     H_    0.595678 0.631119 0.822902 0.252993
H112  H     H_    0.592270 0.614256 0.747562 0.199874
H113  H     H_    0.559757 0.597537 0.838533 0.252432
H114  H     H_    0.688618 0.444385 0.840973 0.150737
H115  H     H_    0.391501 0.549917 0.233961 0.147551
H116  H     H_    0.354983 0.583681 0.251826 0.147507
H117  H     H_    0.404321 0.631119 0.177058 0.252993
H118  H     H_    0.407724 0.614263 0.252409 0.199879
H119  H     H_    0.440236 0.597534 0.161449 0.252428
H120  H     H_    0.108488 0.049894 0.766028 0.147564
H121  H     H_    0.145018 0.083650 0.748118 0.147497
H122  H     H_    0.095700 0.131109 0.822852 0.252990
H123  H     H_    0.092278 0.114237 0.747534 0.199879
H124  H     H_    0.059770 0.097532 0.838518 0.252433
N1    N     N_1   0.086377 0.550444 0.234494 -0.277784
N2    N     N_1   0.104306 0.412531 0.316365 -0.281240
N3    N     N_1   0.395707 0.912594 0.683815 -0.281319
N4    N     N_1   0.604297 0.912582 0.316226 -0.281317
N5    N     N_1   0.794917 0.591254 0.634114 -0.270655
N6    N     N_1   0.205083 0.591048 0.366547 -0.270694
N7    N     N_1   0.294913 0.090989 0.633272 -0.270715
N8    N     N_1   0.705085 0.091004 0.366680 -0.270708
N9    N     N_1   0.059026 0.600262 0.809116 -0.242801
N10   N     N_1   0.940916 0.600222 0.190894 -0.243104
N11   N     N_1   0.558936 0.100252 0.809085 -0.242694
N12   N     N_1   0.913295 0.549876 0.765996 -0.277971
N13   N     N_1   0.441062 0.100248 0.190916 -0.242665
N14   N     N_1   0.577668 0.709659 0.018867 -0.248141
N15   N     N_1   0.422332 0.709660 0.981122 -0.248145
N16   N     N_1   0.077692 0.209658 0.018792 -0.248130
N17   N     N_1   0.922312 0.209660 0.981187 -0.248136
N18   N     N_1   0.578698 0.597241 0.016642 -0.230073
N19   N     N_1   0.421302 0.597242 0.983354 -0.230068
N20   N     N_1   0.078716 0.097239 0.016586 -0.230058
N21   N     N_1   0.921285 0.097242 0.983410 -0.230053
N22   N     N_1   0.098247 0.292309 0.911262 -0.256063
N23   N     N_1   0.586784 0.049741 0.233893 -0.277927
N24   N     N_1   0.901757 0.292307 0.088720 -0.256046
N25   N     N_1   0.598243 0.792308 0.911323 -0.256041
N26   N     N_1   0.401758 0.792309 0.088662 -0.256043
N27   N     N_1   0.914450 0.546377 0.422402 -0.290182
N28   N     N_1   0.085241 0.546983 0.578147 -0.289991
N29   N     N_1   0.414832 0.047126 0.421731 -0.289966
N30   N     N_1   0.585188 0.047083 0.578225 -0.289982
N31   N     N_1   0.413238 0.049779 0.766064 -0.277913
N32   N     N_1   0.599496 0.406907 0.951015 -0.283110
N33   N     N_1   0.400512 0.406898 0.049013 -0.283116
N34   N     N_1   0.099485 0.906906 0.951048 -0.283123
N35   N     N_1   0.900514 0.906909 0.048950 -0.283125
N36   N     N_1   0.895664 0.412317 0.683048 -0.281061
O1    O     O_R   0.945620 0.531450 0.554380 -0.575454
O2    O     O_R   0.445650 0.500090 0.001590 -0.566684
O3    O     O_R   0.054350 0.000090 0.998410 -0.566682
O4    O     O_R   0.945650 0.000090 0.001590 -0.566681
O5    O     O_R   0.500010 0.554450 0.947200 -0.581886
O6    O     O_R   0.499990 0.554450 0.052800 -0.581892
O7    O     O_R   0.000010 0.054450 0.947200 -0.581884
O8    O     O_R   0.999990 0.054450 0.052800 -0.581888
O9    O     O_R   0.945570 0.468490 0.554430 -0.576793
O10   O     O_R   0.054430 0.468490 0.445570 -0.576787
O11   O     O_R   0.445570 0.968490 0.554430 -0.576808
O12   O     O_R   0.054380 0.531450 0.445620 -0.575317
O13   O     O_R   0.554430 0.968490 0.445570 -0.576808
O14   O     O_R   0.999990 0.531450 0.408860 -0.586251
O15   O     O_R   0.000010 0.531450 0.591140 -0.586329
O16   O     O_R   0.499990 0.031450 0.408860 -0.586335
O17   O     O_R   0.500010 0.031450 0.591140 -0.586326
O18   O     O_R   0.999940 0.468490 0.408900 -0.588472
O19   O     O_R   0.000060 0.468490 0.591100 -0.588488
O20   O     O_R   0.499940 0.968490 0.408900 -0.588451
O21   O     O_R   0.500060 0.968490 0.591100 -0.588450
O22   O     O_R   0.968510 0.554330 0.031500 -0.574734
O23   O     O_R   0.445620 0.031450 0.554380 -0.575356
O24   O     O_R   0.031490 0.554330 0.968500 -0.574743
O25   O     O_R   0.468510 0.054330 0.031500 -0.574786
O26   O     O_R   0.531490 0.054330 0.968500 -0.574787
O27   O     O_R   0.968510 0.499950 0.122650 -0.557542
O28   O     O_R   0.031490 0.499950 0.877350 -0.557380
O29   O     O_R   0.468510 0.999950 0.122650 -0.557395
O30   O     O_R   0.531490 0.999950 0.877350 -0.557409
O31   O     O_R   0.031450 0.499990 0.059700 -0.614201
O32   O     O_R   0.968550 0.499990 0.940300 -0.614206
O33   O     O_R   0.531450 0.999990 0.059700 -0.614199
O34   O     O_R   0.554380 0.031450 0.445620 -0.575367
O35   O     O_R   0.468550 0.999990 0.940300 -0.614215
O36   O     O_R   0.968500 0.445560 0.031500 -0.599126
O37   O     O_R   0.031500 0.445560 0.968500 -0.599062
O38   O     O_R   0.468500 0.945560 0.031500 -0.599039
O39   O     O_R   0.531500 0.945560 0.968500 -0.599020
O40   O     O_R   0.499920 0.445680 0.947340 -0.589246
O41   O     O_R   0.500080 0.445680 0.052660 -0.589243
O42   O     O_R   0.999920 0.945680 0.947340 -0.589237
O43   O     O_R   0.000080 0.945680 0.052660 -0.589244
O44   O     O_3   0.011059 0.432231 0.179592 -0.599416
O45   O     O_R   0.554340 0.500070 0.892900 -0.589746
O46   O     O_3   0.989111 0.432211 0.820365 -0.599447
O47   O     O_3   0.510838 0.932206 0.179662 -0.599456
O48   O     O_3   0.489161 0.932205 0.820329 -0.599465
O49   O     O_3   0.612277 0.565336 0.855457 -0.580875
O50   O     O_3   0.387715 0.565334 0.144531 -0.580876
O51   O     O_3   0.112289 0.065326 0.855432 -0.580872
O52   O     O_3   0.887712 0.065327 0.144564 -0.580868
O53   O     O_3   0.933977 0.522364 0.258912 -0.547706
O54   O     O_3   0.065993 0.522500 0.741225 -0.547670
O55   O     O_3   0.434021 0.022548 0.258739 -0.547648
O56   O     O_R   0.445660 0.500070 0.107100 -0.589743
O57   O     O_3   0.565979 0.022542 0.741250 -0.547654
O58   O     O_R   0.054340 0.000070 0.892900 -0.589741
O59   O     O_R   0.945660 0.000070 0.107100 -0.589753
O60   O     O_R   0.554350 0.500090 0.998410 -0.566683

loop_
_geom_bond_atom_site_label_1
_geom_bond_atom_site_label_2
_ccdc_geom_bond_type
Cu10  O25   S    
C114  C190  S    
C197  O25   A    
Cu3   O7    S    
C223  C226  A    
C168  H38   S    
C54   C65   S    
C1    O9    A    
C216  O8    A    
Cu1   O15   S    
C140  H18   S    
C200  O33   A    
C49   H62   S    
C143  O57   S    
C85   H94   S    
C154  C158  S    
C34   C215  S    
C4    C7    T    
C5    C6    T    
C83   O44   S    
Cu2   O41   S    
C143  C144  S    
C92   N32   T    
C29   C33   A    
C21   H67   S    
C8    C23   A    
C93   N33   T    
C22   H68   S    
C96   H109  S    
C88   H100  S    
C100  O51   S    
Cu1   Cu6   S    
Cu1   O12   S    
C54   C74   S    
C107  N3    T    
C218  H114  S    
Cu5   O23   S    
C128  N22   T    
C84   H89   S    
C70   C74   S    
C114  N8    T    
C106  C175  S    
C97   H112  S    
C20   C71   S    
C217  H47   S    
Cu2   O56   S    
C91   H106  S    
C179  C183  A    
C12   C115  S    
C122  N17   T    
C45   C130  S    
C135  O50   S    
Cu2   O6    S    
C89   O48   S    
C190  C194  A    
C124  C147  A    
C50   C53   A    
C21   C72   S    
C27   C31   A    
C28   C32   A    
C112  O12   A    
Cu4   O43   S    
C62   C66   S    
C73   C201  S    
C47   C131  S    
C143  H25   S    
C69   C172  S    
C113  C146  A    
C186  C190  A    
C210  O4    A    
C72   C196  S    
C16   C118  S    
C104  H7    S    
C29   C122  S    
C99   H118  S    
C134  N29   T    
Cu3   O58   S    
C26   C37   A    
Cu11  O30   S    
C100  H121  S    
C178  C182  A    
C111  C189  S    
C144  H27   S    
C211  H43   S    
C88   H101  S    
C66   C212  S    
C98   O50   S    
C215  O5    A    
Cu12  O5    S    
C69   C214  S    
C160  C191  S    
C115  N9    T    
C185  H37   S    
C195  O24   A    
C113  C210  S    
C133  N28   T    
C139  C140  S    
C102  H124  S    
C109  N5    T    
C129  N24   T    
C203  O39   A    
C19   H69   S    
Cu12  O40   S    
C183  C188  A    
C213  H45   S    
C45   C50   A    
C89   H104  S    
C223  H53   S    
C84   H91   S    
C141  H20   S    
C206  O60   A    
C108  C177  S    
C74   O44   S    
C20   C212  S    
C210  O59   A    
C13   C154  A    
C217  C228  A    
C130  N25   T    
C61   C65   S    
C48   C52   A    
C98   C99   S    
C201  O30   A    
C73   C77   S    
C63   C196  S    
Cu12  O45   S    
C87   H99   S    
C180  C184  A    
C209  O3    A    
C118  N13   T    
C15   C18   A    
C64   C136  S    
C82   N31   T    
C221  C225  A    
C163  C181  S    
C198  O31   A    
C152  O11   A    
C33   C36   A    
C208  O2    A    
C85   C86   S    
C109  C187  S    
Cu4   O3    S    
C101  C145  A    
C53   C203  S    
Cu3   O42   S    
C32   C36   A    
Cu3   O4    S    
C199  O28   A    
C147  H30   S    
C138  H12   S    
C106  N2    T    
C112  C179  S    
C164  C194  S    
C13   C57   A    
C107  C176  S    
C11   C25   A    
C44   C59   A    
C222  H52   S    
C33   C127  S    
Cu8   Cu9   S    
C87   O47   S    
C171  O16   A    
C119  N14   T    
C32   C126  S    
C170  O19   A    
C58   C77   S    
C55   H81   S    
C81   C213  S    
C3    C220  A    
C29   C38   A    
C21   H72   S    
C97   H113  S    
C142  H21   S    
C219  C228  A    
C89   C91   S    
C61   C132  S    
C43   C59   A    
C80   C212  S    
Cu6   O9    S    
C55   C75   S    
C70   C198  S    
C76   O47   S    
C146  C150  A    
C200  O29   A    
C167  C193  A    
C14   C17   A    
C71   C185  S    
C132  N27   T    
C195  O22   A    
C102  H122  S    
C205  O43   A    
C64   C207  S    
C145  O51   S    
C30   C34   A    
C155  C159  S    
C156  C160  T    
C139  H14   S    
C48   H61   S    
Cu10  O29   S    
C9    C14   A    
C9    C23   A    
C111  N7    T    
C101  C209  S    
C51   C53   A    
C86   H95   S    
C147  C151  A    
C80   N12   T    
C209  O58   A    
C56   H92   S    
C2    H2    S    
C1    C178  S    
C83   C84   S    
C8    C12   A    
Cu4   O8    S    
C22   H73   S    
C103  H4    S    
C31   C34   A    
C64   C69   S    
C70   C174  S    
C90   C208  S    
Cu8   O32   S    
C10   C25   A    
C26   C30   A    
C104  H6    S    
C57   C94   S    
C117  N11   T    
C91   H107  S    
C21   C213  S    
C31   C125  S    
C139  O54   S    
C100  H120  S    
C121  N16   T    
C20   H66   S    
C204  O40   A    
C61   C174  S    
C149  H32   S    
C138  H10   S    
C124  O49   S    
C108  N4    T    
C181  C186  A    
C64   H86   S    
C185  O54   S    
C57   C101  A    
C79   C124  A    
C170  O15   A    
C86   H97   S    
C197  O26   A    
C58   H77   S    
C22   C214  S    
C85   H93   S    
C36   C216  S    
C90   C135  A    
C212  H44   S    
C173  C178  A    
C20   H71   S    
C177  C181  A    
C162  C193  S    
C35   C79   A    
C225  C227  A    
C96   H110  S    
Cu5   O16   S    
C81   N23   T    
C189  C193  A    
C176  C180  A    
C75   O46   S    
C199  O32   A    
Cu8   O36   S    
C136  N30   T    
C84   H90   S    
C159  C164  T    
C207  O57   S    
C148  C153  A    
C74   H78   S    
C87   C88   S    
C19   H65   S    
Cu9   O28   S    
C163  O34   A    
C27   C120  S    
C214  H46   S    
C166  C175  A    
C19   C211  S    
C62   C133  S    
C161  C192  S    
C103  O52   S    
C221  H51   S    
C146  O52   S    
C168  C177  A    
C54   H74   S    
C207  H59   S    
C77   O48   S    
Cu2   Cu12  S    
C184  H41   S    
C12   C17   A    
C198  O27   A    
C163  O13   A    
C165  H34   S    
C9    H57   S    
C68   C113  A    
C35   C92   S    
C73   C207  S    
C3    C221  A    
C148  H31   S    
C144  H28   S    
C88   H102  S    
Cu10  O38   S    
Cu1   O14   S    
C39   C42   T    
Cu11  O33   S    
C216  O7    A    
Cu5   O17   S    
C140  H17   S    
C68   C95   S    
C63   C134  S    
C63   H85   S    
C11   H60   S    
C172  O17   A    
C125  N19   T    
C219  H49   S    
C47   C51   A    
C8    H56   S    
C44   C129  S    
C15   C117  S    
C65   C169  S    
C167  H36   S    
C139  H15   S    
C149  C154  A    
Cu9   O31   S    
C55   H75   S    
C11   C16   A    
C1    O1    A    
C49   C52   A    
C110  C188  S    
C141  H19   S    
C151  C156  S    
C76   H80   S    
C204  C226  S    
C201  O35   A    
C224  C227  A    
C157  C161  T    
C55   C66   S    
C202  O36   A    
Cu7   O20   S    
Cu8   O27   S    
C217  C222  A    
C137  H8    S    
C79   C206  S    
Cu10  Cu11  S    
C99   H117  S    
C3    C5    S    
C43   C128  S    
C137  H9    S    
C58   C69   S    
C71   C199  S    
C182  H39   S    
C46   C90   A    
C141  O55   S    
C110  N6    T    
C98   H116  S    
C7    C25   S    
C188  C192  A    
C143  H26   S    
C144  H29   S    
C37   C39   S    
C202  O37   A    
C91   H108  S    
C38   C40   S    
Cu1   O1    S    
C165  C191  A    
C205  C227  S    
C166  C192  A    
C4    C228  S    
C153  C157  S    
C166  H35   S    
C24   C68   A    
C219  C223  A    
C94   N34   T    
C103  C104  S    
C123  N18   T    
C112  O10   A    
C142  H22   S    
C89   H105  S    
C78   C211  S    
C145  C149  A    
Cu6   O10   S    
C215  O6    A    
C44   C49   A    
C127  N21   T    
C45   C60   A    
C152  C180  S    
C56   C76   S    
C61   H83   S    
C99   H119  S    
C150  H33   S    
C150  C155  A    
C72   C76   S    
C171  O20   A    
C54   H70   S    
C102  H123  S    
C169  O18   A    
C2    C46   A    
C205  O42   A    
C206  O45   A    
C96   O49   S    
Cu7   O13   S    
C137  O53   S    
C10   C15   A    
C51   H64   S    
C222  C226  A    
C165  C173  A    
Cu4   O59   S    
C152  O23   A    
C86   H96   S    
C174  O53   S    
C126  N20   T    
C186  H42   S    
C47   C60   A    
C82   C214  S    
C10   H58   S    
C103  H3    S    
C77   H82   S    
C140  H16   S    
Cu9   O24   S    
C43   C48   A    
C52   C202  S    
C24   C155  A    
C62   H84   S    
Cu11  O26   S    
Cu11  O39   S    
C168  C194  A    
C58   H103  S    
C105  N36   T    
C116  N10   T    
C78   N1    T    
C56   H76   S    
C63   C67   S    
C26   C119  S    
C41   C59   S    
C138  H11   S    
C183  H40   S    
Cu9   O37   S    
Cu8   O22   S    
C28   C121  S    
C175  C179  A    
C67   C171  S    
C225  H55   S    
C95   N35   T    
C72   C200  S    
C83   H87   S    
C28   C38   A    
C131  N26   T    
C13   H13   S    
C96   C97   S    
C24   H24   S    
C100  C102  S    
C151  C218  A    
C30   C123  S    
Cu5   Cu7   S    
Cu10  O35   S    
C62   C185  S    
C40   C41   T    
C98   H115  S    
Cu12  O2    S    
C135  C148  A    
C2    C153  A    
C172  O21   A    
Cu6   O18   S    
C224  H54   S    
C17   C195  S    
C169  O14   A    
C35   C218  A    
C220  C224  A    
C220  H50   S    
C83   H88   S    
C203  O38   A    
C187  C191  A    
C66   C170  S    
Cu7   O11   S    
C204  O41   A    
C97   H111  S    
C50   H63   S    
C75   H79   S    
Cu7   O21   S    
C67   C213  S    
C42   C60   S    
C56   C67   S    
C137  C138  S    
C18   C197  S    
C120  N15   T    
Cu5   O34   S    
C196  H48   S    
C141  C142  S    
C71   C75   S    
C46   C93   S    
C27   C37   A    
C196  O55   S    
C14   C116  S    
C6    C23   S    
C182  C187  A    
C87   H98   S    
C65   C211  S    
C158  C162  T    
C208  O56   A    
C16   C18   A    
C104  H5    S    
C142  H23   S    
Cu3   Cu4   S    
Cu2   O60   S    
C184  C189  A    
C19   C70   S    
C105  C173  S    
C174  H1    S    
C22   C73   S    
C85   O46   S    
Cu6   O19   S    
C167  C176  A    
