data_mof_unit_18152.cif
_audit_creation_date              2012-12-10T17:21:13-0500
_audit_creation_method            fapswitch 2.2
_symmetry_space_group_name_H-M    P1
_symmetry_Int_Tables_number       1
_space_group_crystal_system       triclinic
_cell_length_a                    10.168463
_cell_length_b                    10.670204
_cell_length_c                    10.639135
_cell_angle_alpha                 90.389971
_cell_angle_beta                  94.857768
_cell_angle_gamma                 81.315132
_cell_volume                      1136.98588145

loop_
_atom_site_label
_atom_site_type_symbol
_atom_type_description
_atom_site_fract_x
_atom_site_fract_y
_atom_site_fract_z
_atom_type_partial_charge
C1    C     C_R   0.444650 0.502342 0.266376 0.902549
C2    C     C_3   0.497914 0.878465 0.485165 0.003190
C3    C     C_3   0.538254 0.923854 0.619375 -0.424460
C4    C     C_3   0.352961 0.944973 0.445281 -0.578391
C5    C     C_2   0.415144 0.480838 0.133178 -0.346359
C6    C     C_2   0.510444 0.413656 0.070490 -0.203358
C7    C     C_2   0.584767 0.460530 0.868178 -0.239216
C8    C     C_2   0.497133 0.409766 0.934320 -0.030855
C9    C     C_2   0.073529 0.488822 0.491049 -0.110245
C10   C     C_2   0.928276 0.505603 0.515373 0.151549
C11   C     C_R   0.496835 0.258654 0.491318 0.860078
C12   C     C_R   0.555166 0.485008 0.733633 0.885010
C13   C     C_R   0.498531 0.741986 0.491386 0.887761
C14   C     C_3   0.594268 0.061843 0.391911 -0.605457
C15   C     C_3   0.590995 0.917042 0.385168 0.441756
C16   C     C_3   0.541524 0.066771 0.618356 -0.424795
C17   C     C_3   0.352006 0.089563 0.436060 0.429283
C18   C     C_3   0.493487 0.122807 0.485598 0.031185
H1    H     H_    0.694305 0.085213 0.421125 0.203061
H2    H     H_    0.283589 0.919577 0.512266 0.217299
H3    H     H_    0.480970 0.114677 0.691793 0.178241
H4    H     H_    0.464874 0.903004 0.685356 0.174174
H5    H     H_    0.606953 0.375123 0.117301 0.179997
H6    H     H_    0.318645 0.519878 0.086323 0.166739
H7    H     H_    0.111252 0.420091 0.422226 0.237857
H8    H     H_    0.567592 0.104673 0.296196 0.130804
H9    H     H_    0.122502 0.617994 0.616099 0.161149
H10   H     H_    0.537905 0.902177 0.291585 0.081219
H11   H     H_    0.645653 0.083779 0.644813 0.174900
H12   H     H_    0.636330 0.871861 0.657257 0.191389
H13   H     H_    0.342319 0.110522 0.332972 0.084597
H14   H     H_    0.317120 0.908871 0.352021 0.144184
N1    N     N_2   0.157300 0.551950 0.551120 -0.221828
N2    N     N_2   0.842730 0.448000 0.448950 0.076908
O1    O     O_R   0.568940 0.489540 0.307530 -0.588906
O2    O     O_R   0.348880 0.522880 0.340350 -0.610991
O3    O     O_R   0.610030 0.298130 0.483570 -0.664714
O4    O     O_R   0.389960 0.331470 0.516390 -0.556517
O5    O     O_R   0.651120 0.477120 0.659650 -0.615601
O6    O     O_R   0.431060 0.510460 0.692470 -0.597252
O7    O     O_R   0.610040 0.668530 0.483610 -0.556165
O8    O     O_R   0.389970 0.701870 0.516430 -0.633506
Zn1   Zn    Zn3+2 0.646940 0.477740 0.478080 0.997264
Zn2   Zn    Zn3+2 0.353060 0.522260 0.521920 0.959597
C19   C     C_1   0.383866 0.356271 0.876201 0.225301
N3    N     N_1   0.293318 0.313700 0.830520 -0.234106
C20   C     C_1   0.704407 0.500639 0.929308 0.199215
N4    N     N_1   0.799772 0.532488 0.978337 -0.157366
C21   C     C_1   0.883684 0.583187 0.619790 0.150727
N5    N     N_1   0.849227 0.646241 0.703378 -0.219206
O9    O     O_3   0.886017 0.395542 0.341276 -0.541497
C22   C     C_3   0.844530 0.276200 0.329788 -0.120539
H15   H     H_    0.737685 0.285675 0.295870 0.169608
H16   H     H_    0.865963 0.221268 0.419757 0.128141
H17   H     H_    0.901566 0.221313 0.257939 0.141884
O10   O     O_3   0.716465 0.836319 0.380850 -0.568325
C23   C     C_3   0.825407 0.874342 0.454775 -0.237790
H18   H     H_    0.798857 0.915014 0.546799 0.145500
H19   H     H_    0.872479 0.941626 0.400572 0.144556
H20   H     H_    0.902607 0.790261 0.473882 0.177035
O11   O     O_3   0.238618 0.168416 0.479620 -0.591210
C24   C     C_3   0.193742 0.129943 0.593116 -0.248536
H21   H     H_    0.274055 0.081593 0.660149 0.157479
H22   H     H_    0.116118 0.068221 0.571735 0.138406
H23   H     H_    0.144971 0.215371 0.640323 0.197596

loop_
_geom_bond_atom_site_label_1
_geom_bond_atom_site_label_2
_ccdc_geom_bond_type
O3    Zn1   S    
C3    H12   S    
C2    C4    S    
C11   C18   S    
C12   O6    A    
C16   H3    S    
C11   O4    A    
O1    Zn1   S    
C9    C10   S    
C14   C18   S    
C24   H22   S    
C20   N4    T    
C22   H17   S    
C15   O10   S    
C12   O5    A    
C13   O7    A    
C17   C18   S    
N2    O9    S    
C9    H7    S    
C7    C8    D    
C10   N2    D    
C4    H14   S    
C19   N3    T    
H9    N1    S    
C9    N1    D    
C2    C15   S    
O7    Zn1   S    
C15   H10   S    
C24   H21   S    
C5    H6    S    
O8    Zn2   S    
C1    C5    S    
C4    C17   S    
C6    C8    S    
C13   O8    A    
C22   H16   S    
O4    Zn2   S    
C2    C3    S    
C23   H18   S    
O11   C24   S    
C17   H13   S    
C7    C12   S    
O2    Zn2   S    
C23   H19   S    
C6    H5    S    
O9    C22   S    
C4    H2    S    
O6    Zn2   S    
O10   C23   S    
C1    O1    A    
C16   C18   S    
C21   N5    T    
C5    C6    D    
C2    C13   S    
C14   C15   S    
C23   H20   S    
O5    Zn1   S    
C24   H23   S    
C17   O11   S    
C16   H11   S    
N2    Zn1   S    
C10   C21   S    
C14   H1    S    
C11   O3    A    
C3    H4    S    
C14   H8    S    
C3    C16   S    
C8    C19   S    
C1    O2    A    
C22   H15   S    
N1    Zn2   S    
C7    C20   S    
