data_mof_unit_65341.cif
_audit_creation_date              2013-03-05T16:23:47-0500
_audit_creation_method            fapswitch 2.2
_symmetry_space_group_name_H-M    P1
_symmetry_Int_Tables_number       1
_space_group_crystal_system       triclinic
_cell_length_a                    18.929564
_cell_length_b                    18.901377
_cell_length_c                    18.698603
_cell_angle_alpha                 109.241723
_cell_angle_beta                  109.500083
_cell_angle_gamma                 109.768396
_cell_volume                      5143.9404537

loop_
_atom_site_label
_atom_site_type_symbol
_atom_site_description
_atom_site_fract_x
_atom_site_fract_y
_atom_site_fract_z
_atom_type_partial_charge
O1    O     O_R   0.090190 0.947810 0.538000 -0.531791
O2    O     O_R   0.090150 0.052180 0.642350 -0.600258
C1    C     C_R   0.119515 0.001207 0.619250 0.773978
O3    O     O_R   0.090200 0.037990 0.447830 -0.595109
O4    O     O_R   0.090160 0.142360 0.552180 -0.549758
C2    C     C_R   0.118202 0.118689 0.499292 0.832369
Cu1   Cu    Cu3+1 0.000020 0.938200 0.438220 1.097355
Cu2   Cu    Cu3+1 0.999980 0.061800 0.561780 1.092126
O5    O     O_R   0.909850 0.947820 0.357650 -0.553656
O6    O     O_R   0.909810 0.052190 0.462000 -0.531608
O7    O     O_R   0.909840 0.857640 0.447820 -0.570021
O8    O     O_R   0.909800 0.962010 0.552170 -0.594911
C3    C     C_R   0.881907 0.000501 0.381025 0.879017
C4    C     C_R   0.881071 0.881449 0.500039 0.812268
H1    H     H_    0.909472 0.917448 0.105196 0.215141
C5    C     C_R   0.044050 0.973616 0.198261 -0.129133
H2    H     H_    0.051539 0.923901 0.157654 0.176544
C6    C     C_R   0.114569 0.041527 0.280158 -0.097083
H3    H     H_    0.176427 0.043893 0.302418 0.192860
C7    C     C_R   0.105008 0.105905 0.333163 0.030176
C8    C     C_R   0.024551 0.102303 0.302865 0.623083
C9    C     C_R   0.954236 0.034317 0.220848 -0.150400
H4    H     H_    0.892266 0.031606 0.197501 0.177748
C10   C     C_R   0.963945 0.969967 0.168679 -0.079043
C11   C     C_R   0.244989 0.243743 0.421978 0.642196
C12   C     C_R   0.314854 0.315607 0.502300 -0.172485
C13   C     C_R   0.318728 0.323531 0.581546 0.056610
C14   C     C_R   0.253248 0.258161 0.578735 -0.087838
H5    H     H_    0.255754 0.264301 0.639416 0.162261
C15   C     C_R   0.184540 0.185484 0.498569 -0.121087
C16   C     C_R   0.179868 0.178216 0.419389 -0.063429
C17   C     C_R   0.470402 0.417334 0.712015 0.333396
C18   C     C_R   0.535045 0.497644 0.787523 -0.144746
H6    H     H_    0.600562 0.510398 0.821719 0.201698
C19   C     C_R   0.516058 0.561915 0.820567 -0.158320
H7    H     H_    0.566745 0.623573 0.878601 0.218829
C20   C     C_R   0.431860 0.546628 0.780141 -0.181424
H8    H     H_    0.418579 0.597274 0.808021 0.204024
C21   C     C_R   0.365543 0.467792 0.703664 0.274748
C22   C     C_R   0.385527 0.403412 0.667157 -0.137001
C23   C     C_R   0.178432 0.924318 0.681860 -0.137566
C24   C     C_R   0.184999 0.001986 0.687903 0.017955
C25   C     C_R   0.252136 0.080474 0.764791 -0.139656
H9    H     H_    0.256441 0.141585 0.773215 0.162754
C26   C     C_R   0.317381 0.080682 0.828845 -0.163342
H10   H     H_    0.370801 0.141719 0.886078 0.162038
C27   C     C_R   0.314014 0.002142 0.817448 0.022885
C28   C     C_R   0.241312 0.924412 0.746284 -0.082408
C29   C     C_3   0.236816 0.849162 0.680964 0.404781
C30   C     C_3   0.167199 0.848584 0.610211 0.509552
H11   H     H_    0.213382 0.790721 0.687843 0.012318
H12   H     H_    0.101995 0.790017 0.574975 0.016342
C31   C     C_R   0.790817 0.729898 0.461291 -0.043825
C32   C     C_R   0.813634 0.816355 0.500645 -0.083353
C33   C     C_R   0.768763 0.839351 0.542677 -0.207338
H13   H     H_    0.783876 0.906109 0.573499 0.209485
C34   C     C_R   0.702786 0.776316 0.543767 0.325227
C35   C     C_R   0.683185 0.688582 0.503020 -0.180249
C36   C     C_R   0.729402 0.669466 0.463378 -0.034788
C37   C     C_3   0.740348 0.598204 0.413750 1.090912
C38   C     C_3   0.810720 0.667135 0.411540 -0.433273
H14   H     H_    0.877395 0.680772 0.450902 0.185796
H15   H     H_    0.792939 0.658511 0.345044 0.234465
C39   C     C_R   0.739347 0.923395 0.247475 -0.139525
C40   C     C_R   0.814751 0.000878 0.315194 -0.221586
C41   C     C_R   0.819128 0.079693 0.324845 0.675686
C42   C     C_R   0.754829 0.079247 0.259771 -0.256425
H16   H     H_    0.760975 0.140280 0.265621 0.190107
C43   C     C_R   0.683887 0.000236 0.186972 -0.165812
C44   C     C_R   0.674032 0.922972 0.185169 0.003325
C45   C     C_3   0.653080 0.840357 0.112903 0.008821
C46   C     C_3   0.725577 0.841100 0.182270 0.772161
H17   H     H_    0.666364 0.849124 0.061845 0.135268
O9    O     O_R   0.447790 0.590200 0.538040 -0.564558
O10   O     O_R   0.552160 0.590170 0.642390 -0.565824
C47   C     C_R   0.502000 0.620023 0.619351 0.860378
O11   O     O_R   0.357620 0.409850 0.447860 -0.525660
O12   O     O_R   0.461990 0.409820 0.552210 -0.582815
C48   C     C_R   0.381356 0.382450 0.501586 0.823864
Cu3   Cu    Cu3+1 0.438190 0.500040 0.438260 1.165285
Cu4   Cu    Cu3+1 0.561780 0.500000 0.561820 1.130143
O13   O     O_R   0.447810 0.409860 0.357690 -0.543430
O14   O     O_R   0.552180 0.409830 0.462050 -0.573437
O15   O     O_R   0.537970 0.590210 0.447870 -0.542278
O16   O     O_R   0.642350 0.590180 0.552220 -0.559919
C49   C     C_R   0.499565 0.381224 0.381085 0.831067
C50   C     C_R   0.618188 0.619974 0.501349 0.875497
O17   O     O_R   0.552210 0.142430 0.090170 -0.588462
O18   O     O_R   0.447820 0.038100 0.090220 -0.577853
C51   C     C_R   0.500239 0.118725 0.118827 0.777797
O19   O     O_R   0.462030 0.052220 0.909860 -0.561036
O20   O     O_R   0.357640 0.947890 0.909900 -0.599980
C52   C     C_R   0.381317 0.000513 0.881677 0.806337
Cu5   Cu    Cu3+1 0.561810 0.061820 0.000020 1.095260
Cu6   Cu    Cu3+1 0.438190 0.938280 0.000080 1.060712
O21   O     O_R   0.552180 0.962000 0.909880 -0.520076
O22   O     O_R   0.447790 0.857670 0.909930 -0.587443
O23   O     O_R   0.642360 0.052210 0.090200 -0.574833
O24   O     O_R   0.537970 0.947880 0.090240 -0.541594
C53   C     C_R   0.500407 0.881481 0.881865 0.891973
C54   C     C_R   0.618487 0.999240 0.118222 0.834230
C55   C     C_R   0.429880 0.685258 0.681216 0.033917
C56   C     C_R   0.505788 0.687934 0.687975 -0.238411
C57   C     C_R   0.584996 0.758054 0.764764 0.241685
C58   C     C_R   0.583299 0.822748 0.828471 0.534053
C59   C     C_R   0.503485 0.815715 0.818370 -0.237297
C60   C     C_R   0.428405 0.744041 0.744555 0.041937
C61   C     C_3   0.332097 0.701417 0.695676 -0.377435
C62   C     C_3   0.334172 0.634746 0.623324 -0.351060
H18   H     H_    0.301824 0.674003 0.728999 0.227675
H19   H     H_    0.309879 0.741873 0.674878 0.246451
H20   H     H_    0.305208 0.568743 0.614279 0.238197
H21   H     H_    0.313828 0.638094 0.562029 0.232520
C63   C     C_R   0.425068 0.242699 0.243353 0.011213
C64   C     C_R   0.500858 0.316462 0.314581 -0.083870
C65   C     C_R   0.580047 0.325080 0.320828 -0.092544
H22   H     H_    0.641155 0.381568 0.374963 0.210892
C66   C     C_R   0.580328 0.260614 0.255943 -0.159579
H23   H     H_    0.641672 0.268646 0.261400 0.169626
C67   C     C_R   0.501513 0.185593 0.185760 -0.031945
C68   C     C_R   0.425479 0.179520 0.182700 -0.018152
C69   C     C_3   0.329332 0.122772 0.130754 -0.531146
C70   C     C_3   0.328624 0.193775 0.200716 0.854345
H24   H     H_    0.301698 0.116036 0.064681 0.198639
H25   H     H_    0.307863 0.060766 0.131698 0.227056
N1    N     N_R   0.278798 0.454197 0.665580 0.116753
O25   O     O_R   0.226091 0.408219 0.581361 -0.330883
O26   O     O_R   0.254711 0.494769 0.714789 -0.321949
F1    F     F_    0.312850 0.872697 0.677492 -0.597542
F2    F     F_    0.193620 0.870204 0.555947 -0.553883
N2    N     N_R   0.658898 0.803414 0.587287 0.135925
O27   O     O_R   0.578343 0.751666 0.560318 -0.343500
O28   O     O_R   0.696298 0.883739 0.647911 -0.279117
F3    F     F_    0.771967 0.563719 0.462767 -0.662721
F4    F     F_    0.667663 0.536466 0.332410 -0.642532
F5    F     F_    0.887391 0.156873 0.394445 -0.570560
N3    N     N_R   0.566206 0.768110 0.075909 0.162552
O29   O     O_R   0.543542 0.690710 0.019641 -0.316875
O30   O     O_R   0.509033 0.781013 0.093172 -0.268534
N4    N     N_R   0.697579 0.770387 0.201225 0.151661
O31   O     O_R   0.728676 0.718397 0.190828 -0.265505
O32   O     O_R   0.646059 0.762000 0.233617 -0.306749
F6    F     F_    0.795123 0.852673 0.168347 -0.667485
N5    N     N_R   0.666928 0.765683 0.778441 0.165055
O33   O     O_R   0.689379 0.715166 0.801059 -0.326962
O34   O     O_R   0.726264 0.835142 0.789730 -0.231156
F7    F     F_    0.658945 0.890193 0.901131 -0.608768
F8    F     F_    0.014976 0.165469 0.352083 -0.601968
N6    N     N_R   0.287369 0.237705 0.167414 0.124753
O35   O     O_R   0.227430 0.244647 0.183242 -0.212403
O36   O     O_R   0.310582 0.270928 0.122607 -0.349620
F9    F     F_    0.300449 0.166725 0.251405 -0.614106
F10   F     F_    0.239207 0.238278 0.345761 -0.574525
N7    N     N_R   0.492364 0.351639 0.681518 0.146622
O37   O     O_R   0.572311 0.373583 0.701855 -0.315084
O38   O     O_R   0.434858 0.269642 0.640426 -0.329066

loop_
_geom_bond_atom_site_label_1
_geom_bond_atom_site_label_2
_geom_bond_distance
_ccdc_geom_bond_type
C11   C16   1.394195 A    
C46   F6    1.385749 S    
C33   H13   1.082864 S    
C70   N6    1.463512 S    
C1    C24   1.448279 S    
N1    O25   1.301189 A    
C23   C24   1.393268 A    
C19   H7    1.082273 S    
O15   C50   1.288367 A    
Cu3   O15   1.974485 S    
C39   C46   1.495847 S    
C35   C50   1.436933 S    
C63   C64   1.386856 A    
C31   C36   1.348773 A    
Cu1   Cu2   2.690834 S    
C45   N3    1.465089 S    
C3    C40   1.448631 S    
C31   C32   1.384305 A    
C61   C62   1.537921 S    
Cu1   O7    1.972650 S    
N3    O30   1.301868 A    
C12   C13   1.413250 A    
O9    C47   1.297934 A    
C14   H5    1.084745 S    
C19   C20   1.391187 A    
N4    O32   1.302357 A    
C43   C44   1.395604 A    
N6    O36   1.302014 A    
C15   C16   1.410330 A    
O7    C4    1.297550 A    
Cu6   O24   1.970606 S    
C59   C60   1.384128 A    
Cu5   O23   1.968257 S    
C64   C65   1.411604 A    
C58   F7    1.358776 S    
C65   H22   1.083135 S    
C6    H3    1.083176 S    
C38   H15   1.111652 S    
O5    C3    1.298495 A    
C66   H23   1.083199 S    
C30   F2    1.385820 S    
C32   C33   1.413616 A    
C63   C68   1.353457 A    
C31   C38   1.491156 S    
C65   C66   1.411038 A    
C5    H2    1.082277 S    
C29   H11   1.110767 S    
C30   H12   1.111355 S    
C60   C61   1.488887 S    
C57   N5    1.432212 S    
C44   C45   1.501380 S    
C39   C44   1.382597 A    
N7    O38   1.301106 A    
C38   H14   1.111695 S    
C62   H21   1.111542 S    
C47   C56   1.445687 S    
C26   C27   1.404154 A    
C41   C42   1.399876 A    
C36   C37   1.487165 S    
C5    C10   1.397931 A    
C21   N1    1.443176 S    
O9    Cu3   1.971465 S    
C8    C9    1.398635 A    
Cu5   Cu6   2.689939 S    
O3    Cu1   1.974288 S    
C57   C58   1.416807 A    
Cu4   O14   1.971447 S    
O16   C50   1.291504 A    
O17   Cu5   1.973572 S    
C11   F10   1.358268 S    
C42   H16   1.083444 S    
C8    F8    1.356025 S    
N4    O31   1.300693 A    
N5    O34   1.300515 A    
C62   H20   1.105404 S    
C21   C22   1.423430 A    
C45   H17   1.112897 S    
O12   C48   1.293045 A    
O10   Cu4   1.976951 S    
C35   C36   1.384073 A    
C26   H10   1.083256 S    
C29   F1    1.386362 S    
C2    C15   1.456439 S    
O20   Cu6   1.968257 S    
C37   C38   1.540108 S    
O1    C1    1.297031 A    
C51   C67   1.442578 S    
O18   Cu6   1.974864 S    
O10   C47   1.286503 A    
C20   H8    1.082921 S    
O19   C52   1.296215 A    
C27   C28   1.394395 A    
C13   C22   1.485011 S    
Cu2   O8    1.974288 S    
C18   H6    1.082501 S    
C27   C52   1.447703 S    
O11   C48   1.295486 A    
C55   C60   1.346722 A    
Cu5   O21   1.974866 S    
C25   C26   1.402124 A    
C37   F4    1.383878 S    
N7    O37   1.301594 A    
C68   C69   1.489628 S    
Cu3   O13   1.977075 S    
C41   F5    1.357350 S    
C63   C70   1.491341 S    
O3    C2    1.295630 A    
H1    C10   1.082362 S    
O24   C54   1.292726 A    
O8    C4    1.293139 A    
C29   C30   1.517830 S    
C33   C34   1.416417 A    
C25   H9    1.083283 S    
C9    C10   1.397717 A    
C24   C25   1.407838 A    
C17   N7    1.442444 S    
C69   H24   1.111769 S    
N2    O27   1.299555 A    
C37   F3    1.383701 S    
C23   C30   1.493019 S    
C56   C57   1.424963 A    
O22   C53   1.292833 A    
C67   C68   1.384540 A    
C58   C59   1.411768 A    
O11   Cu3   1.972343 S    
Cu1   O5    1.972284 S    
C70   F9    1.384427 S    
C28   C29   1.491897 S    
N1    O26   1.301613 A    
C4    C32   1.449129 S    
O1    Cu1   1.966788 S    
C34   N2    1.441928 S    
Cu2   O6    1.966788 S    
O2    Cu2   1.972283 S    
O17   C51   1.291399 A    
Cu3   Cu4   2.684208 S    
N2    O28   1.301573 A    
O6    C3    1.291528 A    
O4    Cu2   1.972650 S    
Cu6   O22   1.973572 S    
C43   C54   1.446150 S    
O23   C54   1.295765 A    
N3    O29   1.300333 A    
C53   C59   1.442440 S    
C12   C48   1.458630 S    
C61   H19   1.103272 S    
N5    O33   1.300708 A    
C17   C18   1.404462 A    
C69   H25   1.111429 S    
C14   C15   1.399376 A    
O2    C1    1.293097 A    
C11   C12   1.401410 A    
C45   C46   1.533771 S    
C20   C21   1.404616 A    
O13   C49   1.293369 A    
N6    O35   1.300581 A    
C39   C40   1.393782 A    
O19   Cu5   1.970607 S    
O12   Cu4   1.974703 S    
C34   C35   1.424929 A    
O4    C2    1.295932 A    
O21   C53   1.293817 A    
O20   C52   1.292685 A    
C18   C19   1.391257 A    
C23   C28   1.381245 A    
C61   H18   1.111500 S    
C6    C7    1.403410 A    
C17   C22   1.422299 A    
C55   C56   1.381532 A    
C66   C67   1.412120 A    
C46   N4    1.466774 S    
O14   C49   1.290672 A    
C7    C8    1.404844 A    
C5    C6    1.398310 A    
C40   C41   1.409974 A    
C13   C14   1.394111 A    
C69   C70   1.542517 S    
C9    H4    1.082586 S    
C49   C64   1.443138 S    
C55   C62   1.484949 S    
C42   C43   1.403479 A    
O18   C51   1.295606 A    
Cu4   O16   1.972221 S    
C7    C16   1.479108 S    
