data_mof_unit_48141.cif
_audit_creation_date              2013-03-05T15:52:10-0500
_audit_creation_method            fapswitch 2.2
_symmetry_space_group_name_H-M    P1
_symmetry_Int_Tables_number       1
_space_group_crystal_system       triclinic
_cell_length_a                    11.200027
_cell_length_b                    11.190482
_cell_length_c                    18.689749
_cell_angle_alpha                 90.551329
_cell_angle_beta                  89.508068
_cell_angle_gamma                 119.66101
_cell_volume                      2035.40595404

loop_
_atom_site_label
_atom_site_type_symbol
_atom_site_description
_atom_site_fract_x
_atom_site_fract_y
_atom_site_fract_z
_atom_type_partial_charge
O1    O     O_R   0.911480 0.572650 0.170990 -0.527375
O2    O     O_R   0.427350 0.338830 0.170990 -0.538288
O3    O     O_R   0.661170 0.088520 0.170990 -0.518844
O4    O     O_R   0.572650 0.911480 0.829010 -0.529724
O5    O     O_R   0.338830 0.427350 0.829010 -0.510736
O6    O     O_R   0.088520 0.661170 0.829010 -0.529979
O7    O     O_R   0.640340 0.528970 0.175680 -0.513076
O8    O     O_R   0.471030 0.111370 0.175680 -0.502348
O9    O     O_R   0.888630 0.359660 0.175680 -0.510231
O10   O     O_R   0.528970 0.640340 0.824320 -0.517449
O11   O     O_R   0.111370 0.471030 0.824320 -0.490363
O12   O     O_R   0.359660 0.888630 0.824320 -0.513333
C1    C     C_R   0.518858 0.457064 0.148932 0.535671
C2    C     C_R   0.545115 0.063673 0.146346 0.542015
C3    C     C_R   0.937918 0.480859 0.147522 0.533009
C4    C     C_R   0.423145 0.543230 0.860458 0.592221
C5    C     C_R   0.065002 0.547233 0.853217 0.558173
C6    C     C_R   0.482876 0.940801 0.851505 0.541281
O13   O     O_R   0.909980 0.572450 0.331530 -0.524754
O14   O     O_R   0.427550 0.337530 0.331530 -0.546000
O15   O     O_R   0.662470 0.090020 0.331530 -0.516439
O16   O     O_R   0.572450 0.909980 0.668470 -0.540613
O17   O     O_R   0.337530 0.427550 0.668470 -0.521495
O18   O     O_R   0.090020 0.662470 0.668470 -0.538544
O19   O     O_R   0.638950 0.528780 0.324500 -0.511751
O20   O     O_R   0.471220 0.110170 0.324500 -0.520415
O21   O     O_R   0.889830 0.361050 0.324500 -0.532352
O22   O     O_R   0.528780 0.638950 0.675500 -0.515622
O23   O     O_R   0.110170 0.471220 0.675500 -0.528094
O24   O     O_R   0.361050 0.889830 0.675500 -0.521185
C7    C     C_R   0.516920 0.456969 0.352864 0.526587
C8    C     C_R   0.578160 0.124956 0.361008 0.572940
C9    C     C_R   0.934812 0.480827 0.354055 0.538237
C10   C     C_R   0.420459 0.546335 0.639560 0.574219
C11   C     C_R   0.063013 0.543527 0.646661 0.537170
C12   C     C_R   0.481595 0.938615 0.646999 0.534733
Cr1   Cr    Cr6+3 0.769160 0.541570 0.250690 0.959562
Cr2   Cr    Cr6+3 0.458430 0.227590 0.250690 0.955163
Cr3   Cr    Cr6+3 0.772410 0.230840 0.250690 0.959288
Cr4   Cr    Cr6+3 0.541570 0.769160 0.749310 0.957454
Cr5   Cr    Cr6+3 0.227590 0.458430 0.749310 0.976288
Cr6   Cr    Cr6+3 0.230840 0.772410 0.749310 0.955066
O25   O     O_3   0.666667 0.333333 0.250560 -0.263636
O26   O     O_3   0.333333 0.666667 0.749440 -0.282020
C13   C     C_R   0.517245 0.009643 0.921222 -0.030209
C14   C     C_R   0.017615 0.530974 0.926913 -0.004240
C15   C     C_R   0.444242 0.524057 0.935831 0.017668
C16   C     C_R   0.984519 0.499741 0.073265 -0.016673
C17   C     C_R   0.515655 0.008689 0.072405 -0.025539
C18   C     C_R   0.491719 0.496310 0.080717 0.009862
C19   C     C_R   0.417373 0.022264 0.959061 -0.030546
C20   C     C_R   0.913515 0.407721 0.951944 -0.034004
C21   C     C_R   0.574443 0.566464 0.960917 -0.043083
C22   C     C_R   0.897758 0.393356 0.026642 -0.014156
C23   C     C_R   0.418012 0.024923 0.033322 0.017028
C24   C     C_R   0.597513 0.546401 0.031072 -0.052017
C25   C     C_R   0.619936 0.995466 0.033158 0.135162
C26   C     C_R   0.060313 0.634378 0.044180 0.141021
C27   C     C_R   0.356959 0.451561 0.057620 0.124807
C28   C     C_R   0.053837 0.649851 0.969599 0.169208
C29   C     C_R   0.630597 0.015308 0.957934 0.152745
C30   C     C_R   0.333621 0.459415 0.984296 0.123292
C31   C     C_3   0.395405 0.143778 0.955415 -0.295806
C32   C     C_3   0.766162 0.371286 0.944089 -0.286090
C33   C     C_3   0.688276 0.708848 0.963703 -0.265081
C34   C     C_3   0.749991 0.349762 0.022816 -0.244208
C35   C     C_3   0.391570 0.143891 0.035615 -0.231135
C36   C     C_3   0.725121 0.680078 0.036257 -0.257261
H1    H     H_    0.297093 0.120791 0.930820 0.120828
H2    H     H_    0.704413 0.278490 0.911833 0.132134
H3    H     H_    0.644524 0.778336 0.966935 0.185554
H4    H     H_    0.724172 0.419572 0.052355 0.147464
H5    H     H_    0.477529 0.238289 0.058610 0.157607
H6    H     H_    0.815261 0.665080 0.037115 0.179424
H7    H     H_    0.483858 0.237131 0.932801 0.143181
H8    H     H_    0.751919 0.457761 0.926650 0.134674
H9    H     H_    0.761237 0.728528 0.919952 0.128320
H10   H     H_    0.688760 0.243954 0.038623 0.154671
H11   H     H_    0.289335 0.117488 0.057700 0.132266
H12   H     H_    0.722958 0.744488 0.080605 0.151818
C37   C     C_R   0.511070 0.016795 0.581331 -0.001408
C38   C     C_R   0.002115 0.503325 0.576768 -0.003824
C39   C     C_R   0.435781 0.538161 0.562795 -0.005283
C40   C     C_R   0.974286 0.499149 0.427973 0.019897
C41   C     C_R   0.556611 0.095781 0.436973 0.000111
C42   C     C_R   0.477302 0.502374 0.417622 -0.008767
C43   C     C_R   0.644605 0.088309 0.553496 -0.005628
C44   C     C_R   0.939259 0.570048 0.545208 -0.005965
C45   C     C_R   0.336599 0.426683 0.523902 -0.003305
C46   C     C_R   0.926857 0.568825 0.472091 0.021730
C47   C     C_R   0.666900 0.122833 0.481672 0.000489
C48   C     C_R   0.352831 0.413179 0.451935 0.033906
C49   C     C_R   0.425128 0.038482 0.466760 -0.167795
C50   C     C_R   0.025519 0.422191 0.459315 -0.185583
C51   C     C_R   0.569963 0.621784 0.453799 -0.177600
C52   C     C_R   0.038782 0.423983 0.533219 -0.152001
C53   C     C_R   0.401927 0.996647 0.537573 -0.138558
C54   C     C_R   0.546161 0.642361 0.525188 -0.179548
C55   C     C_3   0.754319 0.049344 0.555449 0.043811
C56   C     C_3   0.967462 0.715555 0.551713 0.031353
C57   C     C_3   0.264367 0.273601 0.536392 0.029325
C58   C     C_3   0.957782 0.715709 0.470474 0.040744
C59   C     C_3   0.771362 0.075183 0.475409 0.049036
C60   C     C_3   0.276832 0.259076 0.456176 0.042607
H13   H     H_    0.338571 0.015471 0.433812 0.151063
H14   H     H_    0.058404 0.364845 0.426433 0.162457
H15   H     H_    0.666089 0.691153 0.429499 0.147612
H16   H     H_    0.087020 0.371991 0.556291 0.163419
H17   H     H_    0.297251 0.937892 0.555954 0.139023
H18   H     H_    0.622175 0.730932 0.553058 0.151646
H19   H     H_    0.718587 0.941809 0.569576 0.183005
H20   H     H_    0.070430 0.791680 0.572028 0.169733
H21   H     H_    0.156648 0.227026 0.555065 0.162828
H22   H     H_    0.872696 0.729254 0.450709 0.151898
H23   H     H_    0.875448 0.154468 0.458648 0.176840
H24   H     H_    0.338608 0.211196 0.440554 0.177492
N1    N     N_2   0.711687 0.962223 0.069210 -0.510336
H25   H     H_    0.670043 0.900372 0.113384 0.248633
C61   C     C_3   0.854976 0.066372 0.077567 -0.262565
H26   H     H_    0.876747 0.104261 0.133601 0.162743
H27   H     H_    0.884311 0.154820 0.042006 0.193374
H28   H     H_    0.920721 0.020167 0.065815 0.095184
N2    N     N_2   0.141507 0.750825 0.089126 -0.491471
H29   H     H_    0.175564 0.727291 0.135071 0.237876
C62   C     C_3   0.092496 0.846935 0.103042 -0.271558
H30   H     H_    0.160515 0.925051 0.142762 0.121031
H31   H     H_    0.986653 0.795407 0.124735 0.161094
H32   H     H_    0.094940 0.901724 0.054258 0.162965
N3    N     N_2   0.243680 0.398453 0.106455 -0.526118
H33   H     H_    0.207009 0.297694 0.121251 0.257620
C63   C     C_3   0.251827 0.489494 0.164150 -0.306048
H34   H     H_    0.330367 0.503227 0.203985 0.150352
H35   H     H_    0.151919 0.444468 0.192590 0.147714
H36   H     H_    0.277053 0.591292 0.142546 0.139738
N4    N     N_2   0.998405 0.733852 0.946726 -0.522269
H37   H     H_    0.912317 0.677475 0.916376 0.240323
C64   C     C_3   0.085487 0.863685 0.912500 -0.269880
H38   H     H_    0.080803 0.947080 0.942364 0.098563
H39   H     H_    0.048697 0.864247 0.857457 0.123793
H40   H     H_    0.190126 0.881541 0.908108 0.216057
N5    N     N_2   0.761678 0.075215 0.921276 -0.502718
H41   H     H_    0.768171 0.135764 0.878603 0.253247
C65   C     C_3   0.826738 0.995092 0.901677 -0.304917
H42   H     H_    0.867344 0.969640 0.949059 0.163037
H43   H     H_    0.914769 0.054690 0.865099 0.087132
H44   H     H_    0.758863 0.903492 0.869854 0.186180
N6    N     N_2   0.198815 0.410903 0.960728 -0.489021
H45   H     H_    0.146638 0.437648 0.996640 0.267637
C66   C     C_3   0.124936 0.265503 0.946470 -0.291130
H46   H     H_    0.116806 0.206101 0.995290 0.113835
H47   H     H_    0.174297 0.237052 0.903109 0.166977
H48   H     H_    0.021954 0.240483 0.929032 0.177855
N7    N     N_2   0.871117 0.147181 0.597446 -0.537554
H49   H     H_    0.857465 0.221067 0.623808 0.269970
C67   C     C_3   0.929879 0.087321 0.643600 -0.336442
H50   H     H_    0.021229 0.170529 0.670840 0.140178
H51   H     H_    0.961661 0.023764 0.611506 0.164816
H52   H     H_    0.854209 0.023173 0.685145 0.154072
N8    N     N_2   0.855685 0.722351 0.587750 -0.545720
H53   H     H_    0.760424 0.641039 0.575338 0.262396
C68   C     C_3   0.872014 0.747582 0.664065 -0.286125
H54   H     H_    0.794739 0.774543 0.683874 0.156537
H55   H     H_    0.975525 0.834947 0.676700 0.127717
H56   H     H_    0.855847 0.653788 0.692292 0.172161
N9    N     N_2   0.345761 0.228848 0.576631 -0.517229
H57   H     H_    0.448285 0.299363 0.584209 0.271182
C69   C     C_3   0.277238 0.138125 0.636367 -0.285068
H58   H     H_    0.189038 0.040658 0.616906 0.124713
H59   H     H_    0.238655 0.185306 0.675777 0.164717
H60   H     H_    0.350402 0.115385 0.664418 0.159930
N10   N     N_2   0.090510 0.807997 0.438139 -0.547537
H61   H     H_    0.169008 0.789220 0.451274 0.248409
C70   C     C_3   0.093954 0.849298 0.364493 -0.282454
H62   H     H_    0.135485 0.797823 0.329298 0.163848
H63   H     H_    0.162689 0.961457 0.359839 0.132446
H64   H     H_    0.991173 0.825206 0.345035 0.148910
N11   N     N_2   0.717414 0.945730 0.436036 -0.531791
H65   H     H_    0.612179 0.887630 0.430433 0.273272
C71   C     C_3   0.797559 0.938710 0.376825 -0.300131
H66   H     H_    0.884375 0.929964 0.397831 0.132291
H67   H     H_    0.835022 0.029315 0.342293 0.176809
H68   H     H_    0.733732 0.847546 0.342698 0.132773
N12   N     N_2   0.144026 0.197963 0.421351 -0.564329
H69   H     H_    0.081596 0.097115 0.435717 0.259649
C72   C     C_3   0.142602 0.222768 0.345344 -0.291336
H70   H     H_    0.037990 0.194196 0.328329 0.109697
H71   H     H_    0.178212 0.161924 0.313685 0.152598
H72   H     H_    0.205496 0.333857 0.333032 0.173836

loop_
_geom_bond_atom_site_label_1
_geom_bond_atom_site_label_2
_geom_bond_distance
_ccdc_geom_bond_type
O19   C7    1.305181 A    
C65   H44   1.098702 S    
C55   C59   1.518772 S    
N10   H61   1.031944 S    
O20   C8    1.320316 A    
N9    H57   1.032042 S    
C54   H18   1.068185 S    
C65   H43   1.109340 S    
C43   C47   1.386494 A    
C67   H51   1.109518 S    
O18   Cr6   2.090106 S    
N6    H45   1.021793 S    
C66   H46   1.110424 S    
C63   H36   1.108565 S    
C15   C30   1.408920 A    
C68   H54   1.108123 S    
C41   C47   1.399331 A    
C51   C54   1.397504 A    
C17   C25   1.441628 A    
N2    H29   1.030339 S    
C69   H59   1.104927 S    
C70   H62   1.110631 S    
O21   C9    1.295256 A    
C21   C24   1.380316 A    
C16   C22   1.403728 A    
N10   C70   1.450281 S    
C26   N2    1.431741 S    
Cr6   O26   2.015569 S    
C18   C27   1.405038 A    
N6    C66   1.437371 S    
C38   C52   1.400234 A    
C66   H47   1.106935 S    
C72   H71   1.108934 S    
C2    C17   1.479112 S    
O22   Cr4   1.950593 S    
C26   C28   1.413148 A    
C65   H42   1.100973 S    
C14   C20   1.375512 A    
O9    Cr3   1.971849 S    
O14   Cr2   2.071798 S    
O10   Cr4   1.974217 S    
C25   C29   1.420238 A    
O2    C1    1.277528 A    
C46   C58   1.503310 S    
O5    C4    1.304477 A    
O12   Cr6   1.970010 S    
O13   Cr1   2.093115 S    
C49   H13   1.070258 S    
C60   H24   1.100683 S    
C41   C49   1.395678 A    
C34   H4    1.100566 S    
C31   H1    1.102717 S    
O21   Cr3   1.962538 S    
N11   C71   1.444850 S    
C39   C54   1.398626 A    
O8    Cr2   1.954459 S    
C62   H32   1.096205 S    
N8    C68   1.446768 S    
C27   N3    1.428358 S    
O1    C3    1.274876 A    
C32   H2    1.097443 S    
N7    C67   1.443318 S    
C21   C33   1.468298 S    
O1    Cr1   2.073906 S    
C15   C21   1.376251 A    
C71   H68   1.109996 S    
O23   Cr5   1.968305 S    
C33   C36   1.504070 S    
C61   H27   1.102903 S    
C52   H16   1.065959 S    
O3    Cr3   2.080836 S    
N9    C69   1.449868 S    
C7    C42   1.456703 S    
C67   H52   1.110751 S    
C40   C46   1.400018 A    
C3    C16   1.458497 S    
C39   C45   1.394087 A    
C4    C15   1.465609 S    
C68   H55   1.110889 S    
C11   C38   1.440223 S    
C20   C22   1.406430 A    
C69   H60   1.107895 S    
C43   C55   1.494260 S    
C70   H63   1.104606 S    
C32   H8    1.108092 S    
C34   H10   1.076622 S    
C64   H40   1.089512 S    
C31   C35   1.499184 S    
O18   C11   1.273765 A    
C33   H9    1.094884 S    
O4    Cr4   2.071477 S    
N4    H37   1.024646 S    
C19   C31   1.499144 S    
C5    C14   1.452106 S    
C20   C32   1.499496 S    
C66   H48   1.095454 S    
C69   H58   1.109013 S    
O10   C4    1.329480 A    
N1    C61   1.451839 S    
O16   Cr4   2.093580 S    
O20   Cr2   1.968412 S    
C72   H72   1.109315 S    
Cr3   O25   2.015602 S    
C33   H3    1.106409 S    
C18   C24   1.383065 A    
C1    C18   1.435346 S    
C59   N11   1.458073 S    
C32   C34   1.488256 S    
Cr1   O25   2.024923 S    
C59   H23   1.104407 S    
N12   H69   1.027721 S    
C58   H22   1.103471 S    
N12   C72   1.451764 S    
C53   H17   1.076702 S    
O2    Cr2   2.088794 S    
N8    H53   1.029288 S    
O15   Cr3   2.091797 S    
O7    C1    1.291895 A    
C12   C37   1.452093 S    
O17   C10   1.305682 A    
C55   H19   1.098006 S    
C56   C58   1.523220 S    
O7    Cr1   1.973950 S    
C35   H11   1.108216 S    
C40   C50   1.385144 A    
C45   C48   1.372637 A    
C50   C52   1.389378 A    
C64   H39   1.112700 S    
C28   N4    1.428890 S    
C44   C56   1.501236 S    
O3    C2    1.276359 A    
C51   H15   1.067324 S    
C35   H5    1.104204 S    
C29   N5    1.446242 S    
C44   C46   1.374011 A    
C56   H20   1.108503 S    
C57   C60   1.519110 S    
C30   N6    1.401391 S    
O13   C9    1.264276 A    
C62   H30   1.110737 S    
Cr5   O26   2.025156 S    
C10   C39   1.450865 S    
C14   C28   1.421869 A    
C36   H12   1.101160 S    
C6    C13   1.461232 S    
C49   C53   1.387051 A    
C68   H56   1.110705 S    
C25   N1    1.429499 S    
N3    H33   1.030630 S    
C70   H64   1.108261 S    
C58   N10   1.455589 S    
N4    C64   1.440843 S    
O6    C5    1.255543 A    
O5    Cr5   2.088718 S    
C50   H14   1.071267 S    
C27   C30   1.408997 A    
O8    C2    1.303393 A    
C45   C57   1.508758 S    
C61   H28   1.108895 S    
C47   C59   1.510215 S    
C63   H35   1.106986 S    
O11   C5    1.308886 A    
C23   C35   1.500285 S    
C61   H26   1.108830 S    
C16   C26   1.424111 A    
C22   C34   1.477963 S    
O16   C12   1.277257 A    
C64   H38   1.105962 S    
O23   C11   1.288581 A    
N1    H25   1.031057 S    
O17   Cr5   2.073036 S    
O24   C12   1.291635 A    
C24   C36   1.474223 S    
N5    C65   1.450802 S    
O9    C3    1.299580 A    
O4    C6    1.269650 A    
Cr2   O25   2.026858 S    
C17   C23   1.405489 A    
O15   C8    1.303965 A    
C57   N9    1.455449 S    
C37   C43   1.399256 A    
C56   N8    1.451012 S    
C72   H70   1.099909 S    
C31   H7    1.108329 S    
C38   C44   1.391725 A    
C8    C41   1.451071 S    
C55   N7    1.452434 S    
C13   C29   1.421619 A    
C37   C53   1.398131 A    
O11   Cr5   1.956044 S    
C19   C23   1.387964 A    
C57   H21   1.105853 S    
C9    C40   1.435750 S    
N2    C62   1.449886 S    
C42   C51   1.393523 A    
C48   C60   1.501105 S    
O22   C10   1.324124 A    
C71   H66   1.100299 S    
Cr4   O26   2.026660 S    
C60   N12   1.450882 S    
N11   H65   1.032104 S    
O6    Cr6   2.083330 S    
O12   C6    1.308579 A    
C67   H50   1.109030 S    
C62   H31   1.105380 S    
C13   C19   1.382804 A    
O24   Cr6   1.964714 S    
C42   C48   1.403841 A    
N3    C63   1.448296 S    
N7    H49   1.032358 S    
N5    H41   1.030104 S    
C36   H6    1.102586 S    
C63   H34   1.107678 S    
O19   Cr1   1.952677 S    
C71   H67   1.098860 S    
O14   C7    1.272717 A    
