data_mof_unit_38859.cif
_audit_creation_date              2013-03-05T15:52:54-0500
_audit_creation_method            fapswitch 2.2
_symmetry_space_group_name_H-M    P1
_symmetry_Int_Tables_number       1
_space_group_crystal_system       triclinic
_cell_length_a                    14.999074
_cell_length_b                    10.621843
_cell_length_c                    9.936193
_cell_angle_alpha                 89.568056
_cell_angle_beta                  89.393823
_cell_angle_gamma                 92.101022
_cell_volume                      1581.81000132

loop_
_atom_site_label
_atom_site_type_symbol
_atom_site_description
_atom_site_fract_x
_atom_site_fract_y
_atom_site_fract_z
_atom_type_partial_charge
O1    O     O_R   0.500000 0.316780 0.614690 -0.643904
O2    O     O_R   0.499990 0.316750 0.385360 -0.630163
C1    C     C_R   0.502286 0.260806 0.500406 0.846367
O3    O     O_R   0.367850 0.499980 0.614680 -0.635288
O4    O     O_R   0.367840 0.499960 0.385350 -0.647299
C2    C     C_R   0.326732 0.498595 0.500599 0.866098
Zn1   Zn    Zn3+2 0.500010 0.500020 0.653130 0.938628
Zn2   Zn    Zn3+2 0.499990 0.499980 0.346870 0.993351
O5    O     O_R   0.500010 0.683250 0.614640 -0.624479
O6    O     O_R   0.500000 0.683220 0.385310 -0.560884
O7    O     O_R   0.632160 0.500040 0.614650 -0.639734
O8    O     O_R   0.632150 0.500020 0.385320 -0.590871
C3    C     C_R   0.502946 0.739382 0.499493 0.876841
C4    C     C_R   0.673167 0.498851 0.499464 0.867307
C5    C     C_R   0.816727 0.519477 0.380063 -0.211189
C6    C     C_R   0.768877 0.492961 0.498754 -0.082732
C7    C     C_R   0.812401 0.459621 0.616787 -0.234805
C8    C     C_R   0.904507 0.454627 0.617310 0.056802
C9    C     C_R   0.953155 0.484469 0.498661 0.067822
C10   C     C_R   0.908843 0.516964 0.379363 0.098751
C11   C     C_R   0.948227 0.419826 0.734441 -0.286064
C12   C     C_R   0.041035 0.414774 0.735911 0.318677
C13   C     C_R   0.090624 0.450433 0.618860 -0.014644
C14   C     C_R   0.045974 0.483457 0.499492 0.022943
C15   C     C_R   0.094096 0.517458 0.380963 0.120087
C16   C     C_R   0.049659 0.549020 0.262973 -0.148100
C17   C     C_R   0.957161 0.548005 0.261890 -0.161717
C18   C     C_R   0.183562 0.457979 0.618495 -0.198611
C19   C     C_R   0.230616 0.493107 0.501043 -0.089165
C20   C     C_R   0.186152 0.521064 0.382495 -0.233875
H1    H     H_    0.774679 0.436766 0.708044 0.166469
H2    H     H_    0.909976 0.393773 0.824261 0.187483
H3    H     H_    0.219863 0.438015 0.709229 0.199144
H4    H     H_    0.223151 0.547998 0.291710 0.169937
H5    H     H_    0.923502 0.573061 0.170012 0.178621
H6    H     H_    0.388106 0.109005 0.382911 0.139152
C21   C     C_R   0.651020 0.138123 0.624785 -0.170773
H7    H     H_    0.654529 0.239866 0.625079 0.151280
C22   C     C_R   0.720767 0.075630 0.684484 -0.117758
H8    H     H_    0.775080 0.129089 0.730457 0.148759
C23   C     C_R   0.721183 0.944649 0.683453 -0.100361
C24   C     C_R   0.651928 0.875735 0.622533 -0.163996
H9    H     H_    0.656150 0.774352 0.620841 0.144953
C25   C     C_R   0.580082 0.937673 0.562909 0.094944
C26   C     C_R   0.579582 0.069621 0.564122 0.098371
C27   C     C_R   0.508357 0.128746 0.500627 -0.083915
C28   C     C_R   0.441650 0.061634 0.432683 -0.204888
H10   H     H_    0.388933 0.880795 0.381071 0.152387
C29   C     C_R   0.442187 0.933099 0.431431 -0.156027
C30   C     C_R   0.509358 0.872036 0.498286 -0.072361
C31   C     C_R   0.385975 0.329688 0.142761 -0.130815
C32   C     C_R   0.332342 0.242674 0.074060 -0.152154
H11   H     H_    0.289179 0.176256 0.129414 0.157911
C33   C     C_R   0.333381 0.241708 0.934724 -0.105893
C34   C     C_R   0.386801 0.329137 0.863182 -0.144378
H12   H     H_    0.380933 0.326736 0.756509 0.199948
C35   C     C_R   0.444220 0.415763 0.929319 0.148210
C36   C     C_R   0.444145 0.415779 0.073761 0.094118
N1    N     N_R   0.499150 0.498800 0.142780 -0.181874
C37   C     C_R   0.552980 0.581876 0.068942 0.350180
H13   H     H_    0.596077 0.647004 0.870326 0.175668
C38   C     C_R   0.553112 0.580685 0.926104 -0.166283
N2    N     N_R   0.499120 0.498720 0.857170 -0.142506
H14   H     H_    0.782558 0.543727 0.288744 0.215083
H15   H     H_    0.775801 0.896295 0.728707 0.154046
N3    N     N_R   0.608619 0.673633 0.134584 0.223049
O9    O     O_R   0.576011 0.782378 0.161935 -0.375793
O10   O     O_R   0.694633 0.666586 0.122103 -0.440693
H16   H     H_    0.379637 0.326987 0.249511 0.196818
H17   H     H_    0.291673 0.173781 0.881522 0.187927
N4    N     N_R   0.083086 0.369629 0.855087 0.202615
O11   O     O_R   0.136864 0.276715 0.846547 -0.431648
O12   O     O_R   0.053081 0.400913 0.973036 -0.417643
H18   H     H_    0.086514 0.575480 0.172079 0.182538

loop_
_geom_bond_atom_site_label_1
_geom_bond_atom_site_label_2
_geom_bond_distance
_ccdc_geom_bond_type
N3    O10   1.299706 A    
C34   H12   1.064927 S    
C8    C11   1.395925 A    
C23   C24   1.394811 A    
C9    C10   1.411840 A    
C28   C29   1.365747 A    
C26   C27   1.411097 A    
C25   C26   1.401964 A    
Zn1   O7    2.014683 S    
C16   C17   1.387189 A    
C21   H7    1.080074 S    
C18   C19   1.398564 A    
Zn2   N1    2.028180 S    
O4    C2    1.294561 A    
O7    C4    1.293934 A    
C5    C6    1.395529 A    
H6    C28   1.084908 S    
C37   C38   1.419398 A    
C8    C9    1.407817 A    
O5    C3    1.285759 A    
C27   C28   1.390774 A    
C6    C7    1.397824 A    
C5    H14   1.080880 S    
C19   C20   1.395104 A    
N3    O9    1.300228 A    
C37   N3    1.425908 S    
N1    C37   1.376336 A    
C11   C12   1.395250 A    
C24   C25   1.415874 A    
O3    Zn1   2.022707 S    
C32   C33   1.384510 A    
C35   N2    1.375934 A    
C5    C10   1.382841 A    
C11   H2    1.084469 S    
C20   H4    1.085071 S    
C31   C32   1.390675 A    
C14   C15   1.412421 A    
O3    C2    1.296089 A    
C22   H8    1.082869 S    
N4    O12   1.300830 A    
C23   H15   1.082701 S    
C17   H5    1.084007 S    
C15   C16   1.399307 A    
O1    C1    1.286466 A    
C38   N2    1.360883 A    
C33   H17   1.082137 S    
Zn2   O8    2.022708 S    
C7    C8    1.384537 A    
C31   C36   1.409583 A    
C13   C18   1.393310 A    
Zn1   N2    2.027223 S    
H10   C29   1.084972 S    
O8    C4    1.296177 A    
C18   H3    1.081754 S    
C34   C35   1.408253 A    
C7    H1    1.084893 S    
C4    C6    1.439162 S    
C24   H9    1.081290 S    
C21   C26   1.415623 A    
C12   N4    1.435061 S    
C32   H11   1.082804 S    
C25   C30   1.410878 A    
C15   C20   1.380134 A    
Zn1   O5    1.980628 S    
C33   C34   1.390388 A    
O1    Zn1   1.986288 S    
O2    Zn2   1.980628 S    
O6    C3    1.286212 A    
O4    Zn2   2.014683 S    
C10   C17   1.398265 A    
C1    C27   1.408987 S    
O2    C1    1.285730 A    
C36   N1    1.377074 A    
N4    O11   1.300016 A    
C21   C22   1.394634 A    
C35   C36   1.435198 A    
C16   H18   1.083716 S    
C9    C14   1.392744 A    
H13   C38   1.082561 S    
C13   C14   1.416360 A    
C3    C30   1.408736 S    
C2    C19   1.440646 S    
C22   C23   1.391623 A    
Zn2   O6    1.986288 S    
C29   C30   1.390178 A    
C12   C13   1.415541 A    
C31   H16   1.064011 S    
