data_mof_unit_14519.cif
_audit_creation_date              2012-12-10T17:09:16-0500
_audit_creation_method            fapswitch 2.2
_symmetry_space_group_name_H-M    P1
_symmetry_Int_Tables_number       1
_space_group_crystal_system       triclinic
_cell_length_a                    18.187843
_cell_length_b                    18.479122
_cell_length_c                    11.782054
_cell_angle_alpha                 91.913958
_cell_angle_beta                  75.4029
_cell_angle_gamma                 89.865353
_cell_volume                      3829.70084158

loop_
_atom_site_label
_atom_site_type_symbol
_atom_type_description
_atom_site_fract_x
_atom_site_fract_y
_atom_site_fract_z
_atom_type_partial_charge
C1    C     C_R   0.401024 0.102502 0.523554 0.887549
C2    C     C_R   0.598976 0.897498 0.476446 0.887550
C3    C     C_R   0.602210 0.097740 0.479109 0.871991
C4    C     C_R   0.397790 0.902260 0.520891 0.871989
C5    C     C_R   0.901024 0.602501 0.523554 0.887553
C6    C     C_R   0.098976 0.397498 0.476446 0.887548
C7    C     C_R   0.102210 0.597740 0.479109 0.871990
C8    C     C_R   0.897790 0.402260 0.520891 0.871989
C9    C     C_R   0.536972 0.996452 0.961419 -0.202989
C10   C     C_R   0.463028 0.003547 0.038581 -0.202989
C11   C     C_R   0.036972 0.496453 0.961419 -0.202989
C12   C     C_R   0.963028 0.503547 0.038581 -0.202989
C13   C     C_R   0.410371 0.005756 0.865287 -0.049432
C14   C     C_R   0.589629 0.994244 0.134712 -0.049433
C15   C     C_R   0.910371 0.505756 0.865287 -0.049433
C16   C     C_R   0.089629 0.494244 0.134713 -0.049432
C17   C     C_R   0.399672 0.010820 0.987120 0.378932
C18   C     C_R   0.600328 0.989180 0.012880 0.378931
C19   C     C_R   0.899672 0.510820 0.987120 0.378931
C20   C     C_R   0.100328 0.489180 0.012880 0.378932
C21   C     C_R   0.543809 0.997777 0.837059 0.593902
C22   C     C_R   0.456191 0.002223 0.162941 0.593904
C23   C     C_R   0.043809 0.497777 0.837059 0.593904
C24   C     C_R   0.956191 0.502223 0.162941 0.593902
C25   C     C_R   0.664510 0.147944 0.468307 -0.174254
C26   C     C_R   0.335490 0.852056 0.531693 -0.174254
C27   C     C_R   0.347378 0.164556 0.541776 -0.163205
C28   C     C_R   0.652623 0.835445 0.458224 -0.163203
C29   C     C_R   0.164510 0.647944 0.468307 -0.174254
C30   C     C_R   0.835490 0.352056 0.531693 -0.174256
C31   C     C_R   0.847377 0.664555 0.541776 -0.163203
C32   C     C_R   0.152622 0.335444 0.458224 -0.163204
C33   C     C_R   0.202071 0.825427 0.602960 0.375892
C34   C     C_R   0.797930 0.174569 0.397048 0.375890
C35   C     C_R   0.764152 0.769833 0.342033 0.372698
C36   C     C_R   0.235849 0.230168 0.657968 0.372697
C37   C     C_R   0.702070 0.325430 0.602952 0.375888
C38   C     C_R   0.297929 0.674571 0.397043 0.375892
C39   C     C_R   0.264150 0.269832 0.342032 0.372697
C40   C     C_R   0.735848 0.730167 0.657967 0.372698
C41   C     C_R   0.261537 0.874771 0.591916 -0.125061
C42   C     C_R   0.738463 0.125227 0.408090 -0.125055
C43   C     C_R   0.705278 0.820090 0.348280 -0.125528
C44   C     C_R   0.294723 0.179911 0.651720 -0.125534
C45   C     C_R   0.761537 0.374773 0.591911 -0.125052
C46   C     C_R   0.238463 0.625228 0.408085 -0.125055
C47   C     C_R   0.205277 0.320088 0.348280 -0.125530
C48   C     C_R   0.794722 0.679910 0.651720 -0.125528
C49   C     C_R   0.349591 0.782265 0.478804 -0.042853
C50   C     C_R   0.650409 0.217736 0.521192 -0.042857
C51   C     C_R   0.653495 0.791381 0.553395 -0.015594
C52   C     C_R   0.346505 0.208619 0.446604 -0.015591
C53   C     C_R   0.849591 0.282264 0.478807 -0.042856
C54   C     C_R   0.150409 0.717735 0.521197 -0.042852
C55   C     C_R   0.153495 0.291381 0.553395 -0.015591
C56   C     C_R   0.846505 0.708619 0.446605 -0.015594
C57   C     C_R   0.287437 0.739035 0.468601 -0.060168
C58   C     C_R   0.712563 0.260966 0.531397 -0.060166
C59   C     C_R   0.721720 0.755104 0.553507 -0.072990
C60   C     C_R   0.278280 0.244896 0.446493 -0.072994
C61   C     C_R   0.787437 0.239034 0.468602 -0.060165
C62   C     C_R   0.212564 0.760964 0.531401 -0.060170
C63   C     C_R   0.221720 0.255104 0.553507 -0.072993
C64   C     C_R   0.778280 0.744896 0.446493 -0.072990
Cu1   Cu    Cu3+1 0.507800 0.000000 0.383250 1.059882
Cu2   Cu    Cu3+1 0.492200 0.000000 0.616750 1.059883
Cu3   Cu    Cu3+1 0.007800 0.500000 0.383250 1.059882
Cu4   Cu    Cu3+1 0.992200 0.500000 0.616750 1.059882
H1    H     H_    0.637951 0.990402 0.172196 0.169929
H2    H     H_    0.362049 0.009598 0.827803 0.169932
H3    H     H_    0.137951 0.490402 0.172197 0.169930
H4    H     H_    0.862049 0.509598 0.827803 0.169928
N1    N     N_R   0.519530 0.000000 0.207810 -0.251275
N2    N     N_R   0.480470 0.000000 0.792190 -0.251277
N3    N     N_R   0.019530 0.500000 0.207810 -0.251277
N4    N     N_R   0.980470 0.500000 0.792190 -0.251276
O1    O     O_R   0.430030 0.075530 0.417420 -0.500857
O2    O     O_R   0.569970 0.924470 0.582580 -0.500857
O3    O     O_R   0.569970 0.075530 0.582580 -0.503752
O4    O     O_R   0.430030 0.924470 0.417420 -0.503750
O5    O     O_R   0.930030 0.575530 0.417420 -0.500857
O6    O     O_R   0.069970 0.424470 0.582580 -0.500857
O7    O     O_R   0.069970 0.575530 0.582580 -0.503749
O8    O     O_R   0.930030 0.424470 0.417420 -0.503750
O9    O     O_R   0.416860 0.075510 0.614610 -0.638644
O10   O     O_R   0.583140 0.924490 0.385390 -0.638643
O11   O     O_R   0.583140 0.075510 0.385390 -0.587969
O12   O     O_R   0.416860 0.924490 0.614610 -0.587967
O13   O     O_R   0.916860 0.575510 0.614610 -0.638644
O14   O     O_R   0.083140 0.424490 0.385390 -0.638644
O15   O     O_R   0.083140 0.575510 0.385390 -0.587969
O16   O     O_R   0.916860 0.424490 0.614610 -0.587972
Cl1   Cl    Cl    0.366195 0.995789 0.262031 -0.463734
Cl2   Cl    Cl    0.633805 0.004211 0.737969 -0.463730
Cl3   Cl    Cl    0.866195 0.495789 0.262031 -0.463727
Cl4   Cl    Cl    0.133805 0.504211 0.737969 -0.463729
C65   C     C_2   0.572033 0.249177 0.549749 0.532722
H5    H     H_    0.563743 0.304463 0.526734 0.114041
O17   O     O_2   0.516998 0.215482 0.602252 -0.513919
C66   C     C_2   0.427968 0.750824 0.450243 0.532723
H6    H     H_    0.436258 0.695538 0.473256 0.114038
O18   O     O_2   0.483002 0.784520 0.397740 -0.513915
C67   C     C_2   0.419035 0.230043 0.362443 0.491188
H7    H     H_    0.418792 0.272454 0.301248 0.134931
O19   O     O_2   0.480708 0.205318 0.365513 -0.533567
C68   C     C_2   0.580964 0.769956 0.637554 0.491187
H8    H     H_    0.581206 0.727545 0.698749 0.134934
O20   O     O_2   0.519292 0.794681 0.634483 -0.533569
C69   C     C_2   0.072033 0.749176 0.549759 0.532721
H9    H     H_    0.063743 0.804462 0.526747 0.114035
O21   O     O_2   0.016999 0.715480 0.602261 -0.513914
C70   C     C_2   0.927967 0.250823 0.450248 0.532721
H10   H     H_    0.936258 0.195539 0.473266 0.114039
O22   O     O_2   0.983001 0.284518 0.397741 -0.513915
C71   C     C_2   0.919036 0.730044 0.362447 0.491187
H11   H     H_    0.918794 0.772455 0.301251 0.134934
O23   O     O_2   0.980708 0.705320 0.365518 -0.533569
C72   C     C_2   0.080964 0.269957 0.637556 0.491183
H12   H     H_    0.081207 0.227546 0.698752 0.134933
O24   O     O_2   0.019292 0.294681 0.634485 -0.533571
C73   C     C_2   0.753692 0.049846 0.357262 0.520327
H13   H     H_    0.709532 0.018283 0.333355 0.038444
O25   O     O_2   0.815658 0.020803 0.345517 -0.433982
C74   C     C_2   0.246307 0.950152 0.642746 0.520327
H14   H     H_    0.290471 0.981720 0.666630 0.038435
O26   O     O_2   0.184336 0.979188 0.654519 -0.433971
C75   C     C_2   0.302072 0.147793 0.762092 0.524510
H15   H     H_    0.356160 0.148351 0.785134 0.116372
O27   O     O_2   0.247176 0.121232 0.829033 -0.433377
C76   C     C_2   0.697931 0.852210 0.237908 0.524507
H16   H     H_    0.643843 0.851651 0.214865 0.116373
O28   O     O_2   0.752827 0.878771 0.170969 -0.433380
C77   C     C_2   0.253692 0.549848 0.357253 0.520323
H17   H     H_    0.209531 0.518283 0.333354 0.038445
O29   O     O_2   0.315660 0.520808 0.345494 -0.433977
C78   C     C_2   0.746308 0.450153 0.642743 0.520323
H18   H     H_    0.790467 0.481713 0.666656 0.038452
O30   O     O_2   0.684344 0.479197 0.654484 -0.433983
C79   C     C_2   0.802069 0.647790 0.762092 0.524506
H19   H     H_    0.856158 0.648349 0.785135 0.116373
O31   O     O_2   0.747173 0.621229 0.829032 -0.433380
C80   C     C_2   0.197928 0.352207 0.237907 0.524509
H20   H     H_    0.143840 0.351649 0.214866 0.116373
O32   O     O_2   0.252824 0.378767 0.170966 -0.433378
Cl5   Cl    Cl    0.621242 0.339093 0.723501 -0.452122
Cl6   Cl    Cl    0.378755 0.660913 0.276489 -0.452114
Cl7   Cl    Cl    0.310315 0.228865 0.203494 -0.456546
Cl8   Cl    Cl    0.689683 0.771133 0.796506 -0.456546
Cl9   Cl    Cl    0.121248 0.839083 0.723517 -0.452107
Cl10  Cl    Cl    0.878757 0.160907 0.276498 -0.452117
Cl11  Cl    Cl    0.810317 0.728867 0.203494 -0.456546
Cl12  Cl    Cl    0.189685 0.271135 0.796506 -0.456546
Cl13  Cl    Cl    0.305247 0.033386 0.062651 -0.381501
Cl14  Cl    Cl    0.694752 0.966613 0.937349 -0.381505
Cl15  Cl    Cl    0.805247 0.533385 0.062651 -0.381506
Cl16  Cl    Cl    0.194753 0.466615 0.937349 -0.381502

loop_
_geom_bond_atom_site_label_1
_geom_bond_atom_site_label_2
_ccdc_geom_bond_type
C6    C32   S    
C52   C67   S    
C20   Cl16  S    
C6    O6    A    
C16   N3    A    
C1    O1    A    
C14   C18   A    
C30   C45   A    
C7    O7    A    
C34   C42   A    
C23   N4    A    
C17   Cl13  S    
Cu2   O9    S    
C70   O22   D    
C65   H5    S    
C34   Cl10  S    
Cu1   N1    S    
Cu1   O10   S    
C44   C75   S    
C10   C22   A    
C15   C19   A    
Cu2   O3    S    
C47   C80   S    
C59   C64   A    
C60   C63   A    
C7    C29   S    
C41   C74   S    
C39   C47   A    
C32   C47   A    
C4    O4    A    
C69   O21   D    
Cu2   O12   S    
C28   C51   A    
C13   H2    S    
C10   C17   A    
C71   H11   S    
Cu2   N2    S    
C49   C57   A    
C23   Cl4   S    
C25   C50   A    
C38   Cl6   S    
C5    C31   S    
C52   C60   A    
C72   H12   S    
C53   C61   A    
C27   C44   A    
C33   C62   A    
C71   O23   D    
C55   C63   A    
C56   C64   A    
C35   C64   A    
C8    O16   A    
C31   C56   A    
C36   C63   A    
C35   C43   A    
C9    C10   A    
C32   C55   A    
C37   C58   A    
C18   Cl14  S    
C1    C27   S    
C58   C61   A    
C15   N4    A    
C3    O3    A    
Cu3   O8    S    
C40   C59   A    
C77   O29   D    
C16   H3    S    
C35   Cl11  S    
C66   O18   D    
C70   H10   S    
C65   O17   D    
Cu1   O11   S    
C1    O9    A    
Cu2   O2    S    
C30   C53   A    
C11   C20   A    
Cu1   O1    S    
C40   Cl8   S    
C3    O11   A    
Cu3   Cu4   S    
C50   C58   A    
C14   N1    A    
C3    C25   S    
C78   O30   D    
C26   C49   A    
C36   Cl12  S    
C54   C62   A    
C57   C62   A    
C6    O14   A    
C21   N2    A    
C34   C61   A    
C54   C69   S    
C76   O28   D    
C75   O27   D    
C2    O2    A    
Cu4   O6    S    
C38   C57   A    
C5    O5    A    
C16   C20   A    
C7    O15   A    
Cu3   O15   S    
Cu4   O13   S    
C67   O19   D    
C68   H8    S    
C73   H13   S    
C53   C70   S    
C14   H1    S    
Cu3   O5    S    
C31   C48   A    
C19   Cl15  S    
C22   Cl1   S    
C80   O32   D    
C36   C44   A    
C51   C59   A    
C37   C45   A    
C75   H15   S    
C73   O25   D    
C27   C52   A    
C79   H19   S    
C74   O26   D    
C40   C48   A    
C45   C78   S    
C50   C65   S    
C48   C79   S    
C8    O8    A    
Cu4   O7    S    
C43   C76   S    
C78   H18   S    
C25   C42   A    
C4    C26   S    
C11   C12   A    
C24   N3    A    
C29   C54   A    
C4    O12   A    
Cu4   N4    S    
C12   C24   A    
C28   C43   A    
C13   C17   A    
C29   C46   A    
C33   C41   A    
C76   H16   S    
C8    C30   S    
C33   Cl9   S    
C69   H9    S    
C24   Cl3   S    
C49   C66   S    
C79   O31   D    
C9    C21   A    
C77   H17   S    
C68   O20   D    
C51   C68   S    
C39   C60   A    
C12   C19   A    
C11   C23   A    
C66   H6    S    
Cu4   O16   S    
C56   C71   S    
C15   H4    S    
C2    O10   A    
Cu3   O14   S    
C72   O24   D    
C38   C46   A    
C9    C18   A    
Cu3   N3    S    
C13   N2    A    
C42   C73   S    
Cu1   Cu2   S    
C21   Cl2   S    
C39   Cl7   S    
C67   H7    S    
Cu1   O4    S    
C80   H20   S    
C2    C28   S    
C22   N1    A    
C37   Cl5   S    
C5    O13   A    
C26   C41   A    
C74   H14   S    
C46   C77   S    
C55   C72   S    
