data_mof_unit_34650.cif
_audit_creation_date              2012-10-26T19:54:45-0400
_audit_creation_method            fapswitch 2.2
_symmetry_space_group_name_H-M    P1
_symmetry_Int_Tables_number       1
_space_group_crystal_system       triclinic
_cell_length_a                    17.781845
_cell_length_b                    16.461167
_cell_length_c                    11.078645
_cell_angle_alpha                 90.532391
_cell_angle_beta                  89.514261
_cell_angle_gamma                 91.33163
_cell_volume                      3241.7028471

loop_
_atom_site_label
_atom_site_type_symbol
_atom_type_description
_atom_site_fract_x
_atom_site_fract_y
_atom_site_fract_z
_atom_type_partial_charge
C1    C     C_R   0.354972 0.499378 0.505736 0.607717
C2    C     C_R   0.561149 0.174119 0.441007 0.216265
C3    C     C_R   0.565883 0.744636 0.514558 0.049144
C4    C     C_R   0.442686 0.254250 0.551281 0.072394
C5    C     C_R   0.435414 0.742512 0.479743 0.040126
C6    C     C_R   0.557176 0.259666 0.442437 0.060307
C7    C     C_R   0.502312 0.873503 0.493329 0.045787
C8    C     C_R   0.501812 0.126878 0.492393 0.020719
C9    C     C_1   0.503105 0.962974 0.491222 0.056078
C10   C     C_1   0.502946 0.037332 0.491061 0.032606
C11   C     C_R   0.499230 0.499289 0.262222 0.547840
C12   C     C_R   0.644836 0.501051 0.504984 0.628237
C13   C     C_R   0.500931 0.500520 0.738272 0.543562
C14   C     C_R   0.597419 0.606058 0.126831 -0.003434
C15   C     C_R   0.424511 0.370602 0.876417 -0.001314
C16   C     C_R   0.573934 0.635423 0.888816 -0.043676
C17   C     C_R   0.414796 0.376587 0.120879 -0.005291
C18   C     C_R   0.616366 0.682767 0.081754 0.295703
C19   C     C_R   0.411133 0.297530 0.937214 0.250688
C20   C     C_R   0.592985 0.701529 0.965329 0.257869
C21   C     C_R   0.398767 0.302613 0.062201 0.269863
C22   C     C_R   0.537948 0.564836 0.939689 -0.069027
C23   C     C_R   0.885359 0.505766 0.537540 -0.050318
C24   C     C_R   0.461207 0.436036 0.063180 -0.078179
C25   C     C_R   0.543158 0.557199 0.066296 -0.074293
C26   C     C_R   0.464291 0.435184 0.935604 -0.072540
C27   C     C_R   0.500720 0.501004 0.872337 0.002497
C28   C     C_R   0.500650 0.497409 0.128598 0.000602
C29   C     C_R   0.850019 0.572230 0.488978 -0.119179
C30   C     C_R   0.148330 0.430368 0.507063 -0.122002
C31   C     C_R   0.156011 0.572976 0.558653 -0.104802
C32   C     C_R   0.843342 0.439639 0.580271 -0.113883
C33   C     C_R   0.770839 0.574115 0.482045 0.269044
C34   C     C_R   0.113368 0.502976 0.534360 -0.055498
C35   C     C_R   0.227424 0.426009 0.505332 0.277386
C36   C     C_R   0.234481 0.571365 0.553585 0.223638
C37   C     C_R   0.764779 0.437151 0.568813 0.222720
C38   C     C_R   0.728101 0.503993 0.517783 0.072190
C39   C     C_R   0.271273 0.498850 0.519299 0.064572
C40   C     C_3   0.289489 0.229932 0.098723 -0.084285
C41   C     C_3   0.542704 0.807830 0.867181 -0.122326
C42   C     C_3   0.446873 0.173288 0.875018 -0.086784
C43   C     C_3   0.731642 0.742332 0.112347 -0.080614
C44   C     C_1   0.652464 0.564927 0.196842 0.258462
C45   C     C_1   0.965683 0.505097 0.540049 -0.017340
C46   C     C_1   0.365788 0.390654 0.794616 0.226381
C47   C     C_1   0.624140 0.629666 0.786907 0.235446
C48   C     C_1   0.359058 0.403189 0.206060 0.251692
C49   C     C_3   0.772332 0.714271 0.441858 -0.111289
C50   C     C_3   0.226893 0.287832 0.547934 -0.111234
C51   C     C_3   0.289338 0.641799 0.707028 -0.119007
C52   C     C_3   0.740595 0.299778 0.564500 -0.108607
C53   C     C_3   0.662655 0.878894 0.631398 -0.160465
C54   C     C_3   0.332255 0.099127 0.498946 -0.132728
C55   C     C_3   0.326919 0.874384 0.562532 -0.136879
C56   C     C_1   0.033102 0.504732 0.538682 -0.018382
C57   C     C_3   0.667393 0.098356 0.461303 -0.124514
C58   C     C_R   0.568731 0.830606 0.511182 0.210391
C59   C     C_R   0.440651 0.168348 0.544545 0.208236
C60   C     C_R   0.434711 0.828440 0.479218 0.206784
Cu1   Cu    Cu3+1 0.500000 0.580420 0.500000 1.001548
Cu2   Cu    Cu3+1 0.500000 0.419580 0.500000 1.020261
H1    H     H_    0.885206 0.621674 0.455465 0.109099
H2    H     H_    0.260802 0.289258 0.093586 0.112535
H3    H     H_    0.261303 0.194592 0.171647 0.128899
H4    H     H_    0.492612 0.800579 0.927664 0.125557
H5    H     H_    0.531918 0.777619 0.778646 0.109054
H6    H     H_    0.550721 0.873830 0.851258 0.130235
H7    H     H_    0.460825 0.155601 0.968833 0.149964
H8    H     H_    0.497832 0.198042 0.827732 0.113320
H9    H     H_    0.428360 0.117232 0.826411 0.173687
H10   H     H_    0.736829 0.765844 0.018860 0.155567
H11   H     H_    0.758507 0.682153 0.118431 0.113448
H12   H     H_    0.113648 0.376856 0.488216 0.113328
H13   H     H_    0.763370 0.785100 0.172012 0.131067
H14   H     H_    0.818077 0.718855 0.373235 0.101643
H15   H     H_    0.793770 0.725137 0.534883 0.112492
H16   H     H_    0.732920 0.763378 0.421772 0.196105
H17   H     H_    0.184059 0.257742 0.489249 0.100749
H18   H     H_    0.201274 0.306799 0.635640 0.127902
H19   H     H_    0.269128 0.242416 0.570268 0.167139
H20   H     H_    0.321590 0.587703 0.733646 0.137890
H21   H     H_    0.236302 0.645158 0.760715 0.114318
H22   H     H_    0.324468 0.696300 0.729556 0.119131
H23   H     H_    0.128541 0.629090 0.582376 0.134563
H24   H     H_    0.795336 0.277703 0.596831 0.102604
H25   H     H_    0.740528 0.303567 0.464128 0.121555
H26   H     H_    0.697073 0.253996 0.590999 0.141153
H27   H     H_    0.625074 0.918580 0.685230 0.119709
H28   H     H_    0.719356 0.908427 0.630432 0.135015
H29   H     H_    0.668020 0.818555 0.674659 0.152509
H30   H     H_    0.355627 0.045404 0.451972 0.170138
H31   H     H_    0.321590 0.147629 0.432042 0.130753
H32   H     H_    0.277145 0.080086 0.538370 0.124346
H33   H     H_    0.359213 0.908092 0.633536 0.115889
H34   H     H_    0.871815 0.390118 0.622758 0.123421
H35   H     H_    0.308295 0.813605 0.595680 0.144631
H36   H     H_    0.275678 0.909231 0.544168 0.140847
H37   H     H_    0.657348 0.112936 0.558635 0.076644
H38   H     H_    0.726809 0.115184 0.440272 0.125578
H39   H     H_    0.660593 0.031808 0.447364 0.195360
H40   H     H_    0.617504 0.713272 0.526743 0.198715
H41   H     H_    0.397191 0.285297 0.595456 0.187623
H42   H     H_    0.383558 0.709771 0.461608 0.202751
H43   H     H_    0.600979 0.294889 0.397549 0.155748
H44   H     H_    0.281511 0.195115 0.013377 0.169942
N1    N     N_R   0.500000 0.701220 0.500000 -0.294894
N2    N     N_R   0.500000 0.298780 0.500000 -0.292232
N3    N     N_1   0.697510 0.529281 0.247249 -0.299016
N4    N     N_1   0.316290 0.406515 0.733348 -0.339373
N5    N     N_1   0.667524 0.626895 0.708995 -0.315271
N6    N     N_1   0.311974 0.425458 0.269511 -0.278276
O1    O     O_R   0.391260 0.567930 0.500000 -0.495739
O2    O     O_3   0.608492 0.778327 0.920236 -0.563817
O3    O     O_3   0.388100 0.229179 0.873060 -0.565081
O4    O     O_3   0.656050 0.738600 0.152135 -0.518111
O5    O     O_3   0.733134 0.639009 0.431567 -0.536900
O6    O     O_3   0.263167 0.352586 0.485644 -0.527754
O7    O     O_3   0.274578 0.641712 0.582065 -0.579795
O8    O     O_3   0.722486 0.374360 0.619940 -0.547146
O9    O     O_3   0.637414 0.871649 0.511629 -0.594375
O10   O     O_3   0.379667 0.126278 0.593499 -0.585043
O11   O     O_3   0.368874 0.867783 0.454567 -0.569960
O12   O     O_R   0.608740 0.432070 0.500000 -0.488558
O13   O     O_3   0.620554 0.138931 0.379983 -0.567444
O14   O     O_R   0.608740 0.567930 0.500000 -0.458018
O15   O     O_R   0.391260 0.432070 0.500000 -0.448039
O16   O     O_R   0.500000 0.567910 0.319660 -0.491316
O17   O     O_R   0.500000 0.432090 0.680340 -0.497693
O18   O     O_R   0.500000 0.567910 0.680340 -0.517875
O19   O     O_R   0.500000 0.432090 0.319660 -0.504622
O20   O     O_3   0.366677 0.238558 0.126487 -0.555137

loop_
_geom_bond_atom_site_label_1
_geom_bond_atom_site_label_2
_ccdc_geom_bond_type
C43   H11   S    
C29   H1    S    
C34   C56   S    
C43   H10   S    
C23   C45   S    
C14   C18   A    
C17   C48   S    
C41   O2    S    
C50   H17   S    
Cu2   O12   S    
C41   H5    S    
C25   C28   A    
C15   C19   A    
C4    N2    A    
C26   C27   A    
C30   C35   A    
C31   H23   S    
C23   C29   A    
C40   H44   S    
C19   C21   A    
C24   C26   A    
C8    C59   A    
C57   O13   S    
Cu2   O15   S    
C30   H12   S    
Cu2   N2    S    
C57   H37   S    
C4    H41   S    
C29   C33   A    
C42   H8    S    
C49   H16   S    
C55   H36   S    
C36   O7    S    
C54   H31   S    
C49   O5    S    
C45   C56   T    
C22   C25   A    
C53   H29   S    
C51   O7    S    
C13   O18   A    
Cu1   O14   S    
C9    C10   T    
C7    C58   A    
C44   N3    T    
C59   O10   S    
C40   O20   S    
C5    H42   S    
Cu2   O17   S    
C2    C6    A    
C1    O1    A    
C16   C47   S    
C41   H6    S    
C52   H25   S    
C43   H13   S    
C33   O5    S    
C55   O11   S    
C31   C34   A    
C17   C24   A    
C30   C34   A    
C1    O15   A    
C52   H26   S    
C55   H33   S    
C18   O4    S    
C15   C26   A    
C3    N1    A    
C57   H38   S    
C42   H7    S    
C17   C21   A    
C50   H18   S    
C60   O11   S    
C35   C39   A    
C2    O13   S    
C21   O20   S    
C54   H30   S    
C37   C38   A    
C43   O4    S    
C12   O12   A    
C19   O3    S    
C16   C20   A    
C55   H35   S    
C49   H14   S    
C32   C37   A    
C51   H20   S    
Cu1   O18   S    
C52   O8    S    
C3    H40   S    
C48   N6    T    
C40   H3    S    
C46   N4    T    
C53   H27   S    
C51   H21   S    
C7    C60   A    
C14   C44   S    
C5    N1    A    
C7    C9    S    
C58   O9    S    
C16   C22   A    
C5    C60   A    
C32   H34   S    
C50   O6    S    
Cu2   O19   S    
C36   C39   A    
C2    C8    A    
C24   C28   A    
C11   O19   A    
C41   H4    S    
C57   H39   S    
C33   C38   A    
C40   H2    S    
C22   C27   A    
C23   C32   A    
C52   H24   S    
C11   O16   A    
C53   O9    S    
C20   O2    S    
C37   O8    S    
C11   C28   S    
C47   N5    T    
C4    C59   A    
C42   H9    S    
C6    H43   S    
C49   H15   S    
Cu1   O16   S    
C18   C20   A    
C14   C25   A    
C12   C38   S    
Cu1   Cu2   S    
Cu1   N1    S    
C54   H32   S    
C1    C39   S    
Cu1   O1    S    
C3    C58   A    
C42   O3    S    
C54   O10   S    
C12   O14   A    
C8    C10   S    
C53   H28   S    
C6    N2    A    
C31   C36   A    
C13   C27   S    
C35   O6    S    
C15   C46   S    
C51   H22   S    
C13   O17   A    
C50   H19   S    
