data_mof_unit_31458.cif
_audit_creation_date              2012-10-26T18:51:46-0400
_audit_creation_method            fapswitch 2.2
_symmetry_space_group_name_H-M    P1
_symmetry_Int_Tables_number       1
_space_group_crystal_system       triclinic
_cell_length_a                    11.658781
_cell_length_b                    14.927833
_cell_length_c                    15.014491
_cell_angle_alpha                 63.561426
_cell_angle_beta                  108.43731
_cell_angle_gamma                 101.774066
_cell_volume                      2213.56346781

loop_
_atom_site_label
_atom_site_type_symbol
_atom_type_description
_atom_site_fract_x
_atom_site_fract_y
_atom_site_fract_z
_atom_type_partial_charge
C1    C     C_R   0.482602 0.119299 0.312369 0.558502
C2    C     C_R   0.618166 0.602268 0.101907 -0.130509
C3    C     C_R   0.640729 0.250960 0.703133 -0.136094
C4    C     C_R   0.358984 0.749382 0.296611 -0.137451
C5    C     C_R   0.653520 0.193265 0.655125 0.359907
C6    C     C_R   0.346298 0.806856 0.344893 0.360838
C7    C     C_R   0.516810 0.293490 0.499115 0.333149
C8    C     C_R   0.483139 0.706439 0.500753 0.332762
C9    C     C_R   0.539098 0.369369 0.536940 0.004749
C10   C     C_R   0.460503 0.630748 0.462563 -0.000945
C11   C     C_R   0.576617 0.336616 0.644366 -0.039019
C12   C     C_R   0.516912 0.880783 0.687550 0.559079
C13   C     C_R   0.423040 0.663698 0.355152 -0.040892
C14   C     C_R   0.511087 0.471957 0.476070 0.081176
C15   C     C_R   0.488590 0.528228 0.523208 0.075695
C16   C     C_R   0.284492 0.999794 0.499825 0.558765
C17   C     C_R   0.715504 0.000215 0.500161 0.558431
C18   C     C_R   0.490208 0.478663 0.628114 -0.053334
C19   C     C_R   0.509325 0.521684 0.371039 -0.054202
C20   C     C_R   0.546883 0.389331 0.690063 -0.093171
C21   C     C_R   0.452713 0.611113 0.309284 -0.103903
C22   C     C_1   0.162462 0.999431 0.499733 0.041390
C23   C     C_R   0.410450 0.329004 0.999062 0.043661
C24   C     C_1   0.837535 0.000577 0.500254 0.041049
C25   C     C_1   0.059871 0.999714 0.499859 0.008084
C26   C     C_1   0.940127 0.000295 0.500128 0.008042
C27   C     C_R   0.470063 0.187031 0.203032 0.010713
C28   C     C_R   0.527121 0.813481 0.796680 0.009382
C29   C     C_R   0.373936 0.227097 0.022984 -0.122754
C30   C     C_R   0.619001 0.774031 0.977166 -0.122901
C31   C     C_R   0.402163 0.156640 0.124636 -0.110469
C32   C     C_R   0.593790 0.844020 0.875241 -0.110208
C33   C     C_R   0.519444 0.286139 0.177334 -0.078880
C34   C     C_R   0.580698 0.672384 0.001272 0.044119
C35   C     C_R   0.475703 0.714945 0.822194 -0.092356
C36   C     C_R   0.484552 0.360561 0.076641 0.048628
C37   C     C_R   0.507330 0.640829 0.923474 0.037447
C38   C     C_R   0.516833 0.465063 0.051694 0.047107
C39   C     C_R   0.473442 0.536447 0.948752 0.035974
C40   C     C_R   0.399948 0.500850 0.874218 -0.114513
C41   C     C_R   0.588731 0.500755 0.126590 -0.104439
C42   C     C_R   0.370756 0.399301 0.898855 -0.128099
Cu1   Cu    Cu3+1 0.469550 0.918260 0.475690 1.134964
Cu2   Cu    Cu3+1 0.530450 0.081740 0.524310 1.134478
H1    H     H_    0.314134 0.375762 0.839082 0.128323
H2    H     H_    0.673472 0.798609 0.036707 0.135444
H3    H     H_    0.362097 0.549275 0.795402 0.140668
H4    H     H_    0.624925 0.452492 0.205798 0.132929
H5    H     H_    0.561592 0.358983 0.772824 0.122316
H6    H     H_    0.437815 0.641552 0.226498 0.125587
H7    H     H_    0.687560 0.234059 0.783045 0.154089
H8    H     H_    0.312070 0.766440 0.216685 0.152916
H9    H     H_    0.633931 0.597988 0.777790 0.372432
H10   H     H_    0.250611 0.416880 0.305493 0.374111
H11   H     H_    0.150219 0.013170 0.250612 0.365598
H12   H     H_    0.673760 0.625858 0.161926 0.124535
H13   H     H_    0.849193 0.986547 0.750134 0.365561
H14   H     H_    0.449939 0.509728 0.662429 0.165159
H15   H     H_    0.548838 0.490671 0.336163 0.157569
H16   H     H_    0.415617 0.697830 0.759987 0.159118
H17   H     H_    0.581335 0.303214 0.238941 0.146268
H18   H     H_    0.629635 0.920997 0.858023 0.186235
H19   H     H_    0.367742 0.079369 0.141844 0.186260
H20   H     H_    0.318753 0.202550 0.963604 0.136596
N1    N     N_R   0.576230 0.204580 0.560790 -0.269017
N2    N     N_R   0.423770 0.795420 0.439210 -0.267173
O1    O     O_R   0.459870 0.022090 0.338120 -0.482130
O2    O     O_2   0.684720 0.778083 0.624640 -0.232704
O3    O     O_3   0.561264 0.626359 0.721900 -0.600091
O4    O     O_2   0.438741 0.364497 0.290368 -0.367520
O5    O     O_2   0.314482 0.222321 0.375742 -0.230113
O6    O     O_3   0.295600 0.386378 0.378868 -0.526411
O7    O     O_2   0.133369 0.851482 0.202811 -0.289966
O8    O     O_2   0.141291 0.820075 0.378624 -0.264430
O9    O     O_3   0.231481 0.991240 0.265661 -0.519455
O10   O     O_2   0.858509 0.179340 0.621825 -0.265285
O11   O     O_2   0.866362 0.148830 0.797361 -0.288093
O12   O     O_R   0.540130 0.977910 0.661880 -0.481507
O13   O     O_3   0.768055 0.008581 0.735296 -0.519941
O14   O     O_R   0.511290 0.160150 0.379180 -0.453281
O15   O     O_R   0.488710 0.839850 0.620820 -0.450066
O16   O     O_R   0.311490 0.930960 0.479480 -0.445076
O17   O     O_R   0.688510 0.069040 0.520520 -0.445933
O18   O     O_R   0.362910 0.069020 0.520540 -0.463856
O19   O     O_R   0.637090 0.930980 0.479460 -0.464264
O20   O     O_2   0.696236 0.623921 0.616534 -0.291550
S1    S     S_3+6 0.610044 0.687608 0.614720 0.025506
S2    S     S_3+6 0.391496 0.312440 0.384425 0.023458
S3    S     S_3+6 0.209709 0.867428 0.296866 0.041272
S4    S     S_3+6 0.790013 0.132490 0.703526 0.041965

loop_
_geom_bond_atom_site_label_1
_geom_bond_atom_site_label_2
_ccdc_geom_bond_type
C40   H3    S    
C8    N2    A    
C15   C18   A    
C34   C37   A    
H13   O13   S    
Cu1   Cu2   S    
Cu2   O17   S    
O4    S2    D    
C27   C33   A    
C23   C42   A    
C4    H8    S    
C17   O19   A    
C23   C29   A    
O8    S3    D    
C19   C21   A    
C24   C26   T    
C10   C15   A    
C38   C39   A    
C2    C41   A    
C16   O18   A    
C33   C36   A    
C4    C13   A    
O13   S4    S    
C18   H14   S    
C28   C35   A    
C22   C25   T    
C12   O12   A    
C5    S4    S    
O3    S1    S    
H11   O9    S    
C2    C34   A    
C40   C42   A    
C29   H20   S    
H9    O3    S    
Cu2   N1    S    
C21   H6    S    
O6    S2    S    
O11   S4    D    
C11   C20   A    
C17   C24   S    
C30   C34   A    
C27   C31   A    
Cu1   O19   S    
C31   H19   S    
Cu2   O14   S    
C38   C41   A    
C5    N1    A    
C39   C40   A    
C3    H7    S    
O20   S1    D    
C19   H15   S    
C25   C26   S    
C35   H16   S    
C17   O17   A    
C42   H1    S    
C37   C39   A    
C9    C14   A    
Cu1   O1    S    
C20   H5    S    
C7    N1    A    
C7    S2    S    
C28   C32   A    
C16   O16   A    
C13   C21   A    
C9    C11   A    
C4    C6    A    
C12   C28   S    
Cu1   O15   S    
C3    C5    A    
C7    C9    A    
C16   C22   S    
C35   C37   A    
C14   C19   A    
C30   H2    S    
C8    C10   A    
Cu2   O18   S    
C10   C13   A    
C6    S3    S    
C8    S1    S    
Cu2   O12   S    
O7    S3    D    
C29   C31   A    
C2    H12   S    
C30   C32   A    
Cu1   N2    S    
C36   C38   A    
C1    O1    A    
C41   H4    S    
C12   O15   A    
C18   C20   A    
C3    C11   A    
O9    S3    S    
C32   H18   S    
O5    S2    D    
C6    N2    A    
H10   O6    S    
C33   H17   S    
C23   C36   A    
C1    C27   S    
O2    S1    D    
C14   C15   A    
C1    O14   A    
Cu1   O16   S    
O10   S4    D    
