data_mof_unit_31257.cif
_audit_creation_date              2012-10-26T19:05:06-0400
_audit_creation_method            fapswitch 2.2
_symmetry_space_group_name_H-M    P1
_symmetry_Int_Tables_number       1
_space_group_crystal_system       triclinic
_cell_length_a                    15.885398
_cell_length_b                    10.894755
_cell_length_c                    9.640363
_cell_angle_alpha                 86.634655
_cell_angle_beta                  88.979639
_cell_angle_gamma                 94.215766
_cell_volume                      1660.63984675

loop_
_atom_site_label
_atom_site_type_symbol
_atom_type_description
_atom_site_fract_x
_atom_site_fract_y
_atom_site_fract_z
_atom_type_partial_charge
C1    C     C_R   0.497574 0.261482 0.504445 0.545261
C2    C     C_R   0.351662 0.016824 0.815351 -0.113799
C3    C     C_R   0.329492 0.895590 0.781966 0.230841
C4    C     C_R   0.340427 0.499825 0.501104 0.542921
C5    C     C_R   0.373458 0.846396 0.674519 -0.045699
C6    C     C_R   0.435158 0.919648 0.592782 -0.040360
C7    C     C_R   0.447921 0.047056 0.613649 -0.002859
C8    C     C_R   0.494298 0.125446 0.511161 -0.010519
C9    C     C_R   0.526065 0.074390 0.393501 -0.144923
C10   C     C_R   0.516004 0.948752 0.374892 -0.039138
C11   C     C_R   0.480275 0.869205 0.485208 -0.023762
C12   C     C_3   0.945314 0.431015 0.631600 -0.221151
C13   C     C_R   0.623696 0.647442 0.131539 -0.060031
C14   C     C_R   0.690476 0.709039 0.055108 -0.158057
C15   C     C_R   0.691196 0.709496 0.911740 -0.170537
C16   C     C_R   0.494446 0.736859 0.495451 0.515806
C17   C     C_R   0.625402 0.647769 0.844763 -0.080976
C18   C     C_R   0.562088 0.571163 0.919240 0.126657
C19   C     C_R   0.561716 0.571114 0.068508 0.132247
C20   C     C_R   0.440411 0.434131 0.081689 0.075072
C21   C     C_R   0.439504 0.433746 0.935257 0.332154
C22   C     C_R   0.659578 0.500496 0.498870 0.542142
C23   C     C_3   0.916895 0.497623 0.495760 0.034610
C24   C     C_3   0.042532 0.426440 0.630591 -0.223937
C25   C     C_3   0.049010 0.440766 0.363862 0.138784
C26   C     C_3   0.950082 0.435766 0.364511 -0.032079
C27   C     C_1   0.749208 0.500208 0.496738 -0.035513
C28   C     C_3   0.082984 0.498576 0.499123 0.038158
C29   C     C_R   0.527220 0.911809 0.229965 0.044473
C30   C     C_R   0.596183 0.963495 0.146833 -0.116902
C31   C     C_R   0.597237 0.952395 0.003266 -0.108800
C32   C     C_R   0.531691 0.884212 0.941964 -0.091696
C33   C     C_R   0.464576 0.828409 0.023892 -0.110493
C34   C     C_3   0.957658 0.632051 0.492215 -0.252224
C35   C     C_R   0.460578 0.846019 0.165899 -0.056345
C36   C     C_R   0.905725 0.309173 0.340137 0.089910
C37   C     C_R   0.848338 0.298547 0.230764 -0.089107
C38   C     C_R   0.807437 0.184500 0.204545 -0.111169
C39   C     C_R   0.822942 0.079308 0.287033 -0.109039
C40   C     C_R   0.879131 0.088106 0.396144 -0.113419
C41   C     C_R   0.920280 0.201887 0.422742 -0.047194
C42   C     C_3   0.055254 0.632356 0.498590 -0.255545
C43   C     C_1   0.824700 0.499436 0.496005 -0.073219
C44   C     C_1   0.175252 0.500216 0.502408 -0.040154
C45   C     C_1   0.250791 0.500362 0.503028 -0.001569
C46   C     C_R   0.411273 0.090173 0.733784 -0.138786
Cu1   Cu    Cu3+1 0.499990 0.499990 0.640660 0.926841
Cu2   Cu    Cu3+1 0.500010 0.500010 0.359340 0.919859
H1    H     H_    0.913424 0.337176 0.647998 0.115683
H2    H     H_    0.059249 0.329189 0.637098 0.107055
H3    H     H_    0.620359 0.667288 0.238360 0.180830
H4    H     H_    0.738374 0.764488 0.106728 0.108534
H5    H     H_    0.739835 0.765098 0.851752 0.109242
H6    H     H_    0.624843 0.668330 0.735483 0.178043
H7    H     H_    0.072242 0.505101 0.274961 0.150546
H8    H     H_    0.934307 0.497986 0.274157 0.067619
H9    H     H_    0.077399 0.676548 0.593967 0.147020
H10   H     H_    0.084491 0.688924 0.407962 0.113590
H11   H     H_    0.933613 0.680778 0.581470 0.124486
H12   H     H_    0.067829 0.468024 0.725540 0.140292
H13   H     H_    0.244040 0.869401 0.929236 0.320624
H14   H     H_    0.647537 0.016549 0.192508 0.092979
H15   H     H_    0.649677 0.994673 0.939925 0.107103
H16   H     H_    0.533934 0.872578 0.831436 0.134395
H17   H     H_    0.415143 0.772159 0.977517 0.159132
H18   H     H_    0.404809 0.809808 0.225367 0.128506
H19   H     H_    0.387208 0.353403 0.784541 0.367607
H20   H     H_    0.098810 0.285603 0.424175 0.326627
H21   H     H_    0.834982 0.378665 0.165266 0.097649
H22   H     H_    0.763909 0.177791 0.119744 0.102677
H23   H     H_    0.925761 0.481870 0.722288 0.124052
H24   H     H_    0.791814 0.990790 0.266172 0.095821
H25   H     H_    0.891379 0.006361 0.459696 0.097262
H26   H     H_    0.964627 0.204331 0.506037 0.101270
H27   H     H_    0.940035 0.684453 0.395771 0.111387
H28   H     H_    0.554696 0.135047 0.309819 0.144311
H29   H     H_    0.429963 0.177998 0.769695 0.164214
H30   H     H_    0.323073 0.054650 0.904677 0.128493
H31   H     H_    0.356428 0.751733 0.652061 0.165510
H32   H     H_    0.391752 0.379725 0.142802 0.156867
N1    N     N_R   0.500800 0.501210 0.147910 -0.288513
N2    N     N_R   0.500820 0.501290 0.852040 -0.256579
O1    O     O_R   0.499990 0.319640 0.618810 -0.526922
O2    O     O_3   0.373539 0.364645 0.881764 -0.726541
O3    O     O_3   0.080806 0.326705 0.336581 -0.700915
O4    O     O_R   0.500000 0.319660 0.381240 -0.499777
O5    O     O_R   0.379430 0.499990 0.618840 -0.501573
O6    O     O_R   0.379440 0.500020 0.381260 -0.499345
O7    O     O_R   0.500000 0.680340 0.618760 -0.530543
O8    O     O_R   0.500010 0.680360 0.381190 -0.518475
O9    O     O_R   0.620560 0.499980 0.618740 -0.511145
O10   O     O_R   0.620570 0.500010 0.381160 -0.512334
O11   O     O_3   0.268202 0.821351 0.855954 -0.713497

loop_
_geom_bond_atom_site_label_1
_geom_bond_atom_site_label_2
_ccdc_geom_bond_type
C38   H22   S    
C16   O8    A    
C37   H21   S    
C1    C8    S    
C34   C42   S    
C42   H10   S    
C12   H1    S    
C33   H17   S    
C7    C8    A    
C4    O5    A    
C2    C46   A    
C25   C28   S    
C12   C23   S    
C37   C38   A    
C15   H5    S    
C36   C37   A    
C5    C6    A    
H13   O11   S    
Cu1   N2    S    
C23   C43   S    
C40   H25   S    
C18   C19   A    
C23   C26   S    
C33   C35   A    
C41   H26   S    
C13   H3    S    
C14   H4    S    
C31   C32   A    
C8    C9    A    
C22   O9    A    
Cu2   O6    S    
C9    H28   S    
Cu1   O1    S    
C5    H31   S    
C9    C10   A    
C34   H27   S    
C16   O7    A    
Cu2   O8    S    
C20   N1    A    
H20   O3    S    
Cu1   O7    S    
C36   C41   A    
C42   H9    S    
C4    C45   S    
C24   H2    S    
C38   C39   A    
C20   H32   S    
C7    C46   A    
C31   H15   S    
C32   H16   S    
C39   C40   A    
C13   C19   A    
C35   H18   S    
C25   C26   S    
C28   C44   S    
Cu1   O5    S    
C29   C30   A    
C2    H30   S    
C11   C16   S    
Cu1   Cu2   S    
C21   O2    S    
C24   H12   S    
C23   C34   S    
C25   O3    S    
C17   C18   A    
C3    O11   S    
C21   N2    A    
C39   H24   S    
C26   C36   S    
C40   C41   A    
C12   H23   S    
C22   C27   S    
C30   H14   S    
C34   H11   S    
Cu2   O4    S    
C6    C11   A    
C44   C45   T    
C1    O4    A    
C15   C17   A    
C12   C24   S    
Cu1   O9    S    
C24   C28   S    
C3    C5    A    
C26   H8    S    
C46   H29   S    
C6    C7    A    
C4    O6    A    
C1    O1    A    
C29   C35   A    
C32   C33   A    
Cu2   N1    S    
C19   N1    A    
C10   C29   S    
C30   C31   A    
C28   C42   S    
C18   N2    A    
C25   H7    S    
C2    C3    A    
C10   C11   A    
C27   C43   T    
H19   O2    S    
C20   C21   A    
Cu2   O10   S    
C22   O10   A    
C14   C15   A    
C13   C14   A    
C17   H6    S    
