data_mof_unit_28071.cif
_audit_creation_date              2012-12-11T14:06:41-0500
_audit_creation_method            fapswitch 2.2
_symmetry_space_group_name_H-M    P1
_symmetry_Int_Tables_number       1
_space_group_crystal_system       triclinic
_cell_length_a                    11.851026
_cell_length_b                    11.98207
_cell_length_c                    19.315667
_cell_angle_alpha                 90.607291
_cell_angle_beta                  89.76459
_cell_angle_gamma                 119.939953
_cell_volume                      2376.65316385

loop_
_atom_site_label
_atom_site_type_symbol
_atom_type_description
_atom_site_fract_x
_atom_site_fract_y
_atom_site_fract_z
_atom_type_partial_charge
C1    C     C_R   0.552751 0.475881 0.597282 0.533684
C2    C     C_R   0.402106 0.841717 0.132871 0.552635
C3    C     C_R   0.071411 0.525529 0.120899 0.585769
C4    C     C_R   0.438776 0.596628 0.133158 0.530243
C5    C     C_R   0.549424 0.476651 0.404516 0.559646
C6    C     C_R   0.522130 0.071608 0.404724 0.555500
C7    C     C_R   0.922188 0.445889 0.402657 0.550728
C8    C     C_1   0.033389 0.513379 0.859298 0.013534
C9    C     C_1   0.486033 0.519186 0.859266 0.010195
C10   C     C_1   0.481234 0.965613 0.859157 0.011444
C11   C     C_1   0.993067 0.494867 0.726831 -0.027019
C12   C     C_R   0.524215 0.077626 0.597527 0.536321
C13   C     C_1   0.504915 0.498686 0.726714 -0.027033
C14   C     C_1   0.501593 0.006898 0.726712 -0.026422
C15   C     C_1   0.012207 0.505525 0.798435 -0.028222
C16   C     C_1   0.493843 0.506282 0.798316 -0.029041
C17   C     C_1   0.494028 0.986928 0.798297 -0.028076
C18   C     C_1   0.969669 0.478851 0.666199 0.013377
C19   C     C_1   0.521220 0.491696 0.666094 0.014057
C20   C     C_1   0.508529 0.030763 0.666232 0.013092
C21   C     C_2   0.964647 0.470990 0.331734 -0.116682
C22   C     C_2   0.496805 0.503994 0.343355 -0.118361
C23   C     C_R   0.922615 0.446989 0.597344 0.536362
C24   C     C_2   0.492199 0.988894 0.344143 -0.128808
C25   C     C_2   0.995247 0.503085 0.183086 -0.079946
C26   C     C_2   0.445241 0.580663 0.207825 -0.126913
C27   C     C_2   0.415902 0.862449 0.207900 -0.099098
C28   C     C_2   0.925581 0.386961 0.211737 0.189139
C29   C     C_2   0.550779 0.654525 0.248520 0.157502
C30   C     C_2   0.338241 0.889116 0.248767 0.164406
C31   C     C_2   0.891181 0.379138 0.284897 -0.123856
C32   C     C_2   0.547268 0.625357 0.322156 -0.155810
C33   C     C_2   0.369074 0.918288 0.322501 -0.151494
C34   C     C_R   0.452225 0.924469 0.928984 0.580871
C35   C     C_R   0.075594 0.527089 0.929013 0.568374
C36   C     C_R   0.473258 0.548132 0.929119 0.571274
Cr1   Cr    Cr6+3 0.468420 0.238090 0.499960 1.064084
Cr2   Cr    Cr6+3 0.761910 0.230330 0.499960 1.041520
Cr3   Cr    Cr6+3 0.769670 0.531580 0.499960 1.056010
Cr4   Cr    Cr6+3 0.515700 0.760130 0.026360 1.150229
Cr5   Cr    Cr6+3 0.239870 0.755570 0.026360 1.123623
Cr6   Cr    Cr6+3 0.244430 0.484300 0.026360 1.113501
H1    H     H_    0.806343 0.290841 0.302018 0.163167
H2    H     H_    0.767259 0.093866 0.241083 0.338849
H3    H     H_    0.774780 0.911891 0.303197 0.320739
H4    H     H_    0.069734 0.838960 0.299785 0.348797
H5    H     H_    0.611653 0.703459 0.356616 0.169302
H6    H     H_    0.291126 0.907229 0.356585 0.174383
H7    H     H_    0.007213 0.587994 0.210228 0.120952
H8    H     H_    0.355493 0.507719 0.231468 0.080014
H9    H     H_    0.491110 0.849707 0.231725 0.082169
H10   H     H_    0.050411 0.561416 0.318447 0.068475
H11   H     H_    0.433196 0.422981 0.310266 0.139390
H12   H     H_    0.573495 0.003319 0.312064 0.111943
O1    O     O_R   0.434830 0.101190 0.575190 -0.507052
O2    O     O_R   0.664850 0.560590 0.424150 -0.490514
O3    O     O_R   0.484380 0.363570 0.430280 -0.486206
O4    O     O_R   0.636430 0.120810 0.430280 -0.507384
O5    O     O_R   0.879190 0.515620 0.430280 -0.484126
O6    O     O_3   0.666667 0.333333 0.499980 -0.285918
O7    O     O_R   0.548200 0.655360 0.951320 -0.495632
O8    O     O_R   0.344640 0.892840 0.951320 -0.494120
O9    O     O_R   0.107160 0.451800 0.951320 -0.486685
O10   O     O_R   0.505020 0.871000 0.955840 -0.488305
O11   O     O_R   0.129000 0.634020 0.955840 -0.498068
O12   O     O_R   0.898810 0.333640 0.575190 -0.501898
O13   O     O_R   0.365980 0.494980 0.955840 -0.489856
O14   O     O_R   0.543640 0.655270 0.102360 -0.407044
O15   O     O_R   0.344730 0.888370 0.102360 -0.398240
O16   O     O_R   0.111630 0.456360 0.102360 -0.459899
O17   O     O_R   0.500790 0.870920 0.095850 -0.429310
O18   O     O_R   0.129080 0.629870 0.095850 -0.501835
O19   O     O_R   0.370130 0.499210 0.095850 -0.462600
O20   O     O_2   0.841742 0.255832 0.091174 -0.216030
O21   O     O_2   0.975934 0.204336 0.165648 -0.210543
O22   O     O_3   0.735897 0.122719 0.201434 -0.483747
O23   O     O_R   0.666360 0.565170 0.575190 -0.506144
O24   O     O_2   0.767243 0.709270 0.177970 -0.171281
O25   O     O_2   0.698095 0.869775 0.172292 -0.230288
O26   O     O_3   0.806375 0.854687 0.285169 -0.476108
O27   O     O_2   0.277700 0.046905 0.182042 -0.166990
O28   O     O_2   0.121978 0.817489 0.169331 -0.260113
O29   O     O_3   0.127407 0.929253 0.285367 -0.461808
O30   O     O_3   0.333333 0.666667 0.026340 -0.339626
O31   O     O_R   0.480130 0.360720 0.570290 -0.499760
O32   O     O_R   0.639280 0.119410 0.570290 -0.498233
O33   O     O_R   0.880590 0.519870 0.570290 -0.498369
O34   O     O_R   0.439410 0.104260 0.424150 -0.484352
O35   O     O_R   0.895740 0.335150 0.424150 -0.505395
S1    S     S_3+6 0.871510 0.240719 0.164918 0.088446
S2    S     S_3+6 0.707253 0.774449 0.218297 0.068865
S3    S     S_3+6 0.214044 0.919821 0.218608 0.077649

loop_
_geom_bond_atom_site_label_1
_geom_bond_atom_site_label_2
_ccdc_geom_bond_type
C11   C18   T    
Cr4   O17   S    
C1    O23   A    
C6    O4    A    
C5    O2    A    
Cr3   O33   S    
C36   O13   A    
C6    O34   A    
C25   C28   D    
O29   S3    S    
C21   C31   D    
Cr2   O35   S    
C31   H1    S    
Cr2   O32   S    
Cr3   O23   S    
C23   O12   A    
Cr1   O31   S    
C9    C16   T    
C29   C32   S    
C26   H8    S    
C35   O11   A    
C10   C17   T    
C24   H12   S    
C7    O35   A    
C34   O8    A    
O28   S3    D    
H2    O22   S    
Cr4   O30   S    
Cr1   O34   S    
O21   S1    D    
Cr2   O4    S    
O27   S3    D    
C11   C15   S    
C5    C22   S    
Cr2   O12   S    
C9    C36   S    
C2    C27   S    
C2    O15   A    
O25   S2    D    
C6    C24   S    
C23   O33   A    
C27   C30   D    
C14   C17   S    
Cr5   O8    S    
C7    O5    A    
C27   H9    S    
C22   H11   S    
C1    O31   A    
C1    C19   S    
C13   C19   T    
C18   C23   S    
C12   O1    A    
C14   C20   T    
C3    C25   S    
C3    O16   A    
Cr6   O30   S    
C30   S3    S    
C4    O14   A    
Cr5   O11   S    
C7    C21   S    
Cr5   O30   S    
Cr4   O7    S    
C8    C35   S    
Cr6   O16   S    
Cr3   O2    S    
Cr3   O5    S    
C12   C20   S    
C34   O10   A    
C10   C34   S    
C4    O19   A    
C22   C32   D    
C28   S1    S    
Cr5   O18   S    
Cr2   O6    S    
C8    C15   T    
Cr6   O13   S    
C32   H5    S    
C36   O7    A    
C29   S2    S    
Cr5   O15   S    
Cr6   O19   S    
C30   C33   S    
C28   C31   S    
C4    C26   S    
C12   O32   A    
O24   S2    D    
C24   C33   D    
Cr4   O10   S    
C5    O3    A    
O20   S1    D    
O26   S2    S    
C3    O18   A    
Cr3   O6    S    
H3    O26   S    
C25   H7    S    
Cr1   O6    S    
H4    O29   S    
Cr1   O1    S    
C26   C29   D    
Cr4   O14   S    
C13   C16   S    
C33   H6    S    
C35   O9    A    
Cr6   O9    S    
C21   H10   S    
Cr1   O3    S    
C2    O17   A    
O22   S1    S    
