data_mof_unit_16163.cif
_audit_creation_date              2012-12-11T15:08:36-0500
_audit_creation_method            fapswitch 2.2
_symmetry_space_group_name_H-M    P1
_symmetry_Int_Tables_number       1
_space_group_crystal_system       triclinic
_cell_length_a                    19.434807
_cell_length_b                    11.412082
_cell_length_c                    18.693731
_cell_angle_alpha                 90.493196
_cell_angle_beta                  90.501855
_cell_angle_gamma                 89.83142
_cell_volume                      4145.78303409

loop_
_atom_site_label
_atom_site_type_symbol
_atom_type_description
_atom_site_fract_x
_atom_site_fract_y
_atom_site_fract_z
_atom_type_partial_charge
C1    C     C_R   0.271032 0.049944 0.851363 0.520005
C2    C     C_R   0.723879 0.037494 0.143169 0.533584
C3    C     C_R   0.771033 0.549942 0.851364 0.520007
C4    C     C_R   0.223879 0.537495 0.143170 0.533585
C5    C     C_3   0.528798 0.724371 0.969373 -0.125760
C6    C     C_3   0.473974 0.731709 0.027611 -0.128233
C7    C     C_3   0.028800 0.224373 0.969373 -0.125759
C8    C     C_3   0.973974 0.231706 0.027610 -0.128228
C9    C     C_3   0.312272 0.557830 0.049143 -0.262657
C10   C     C_3   0.684997 0.567444 0.949789 -0.261024
C11   C     C_3   0.812272 0.057824 0.049142 -0.262659
C12   C     C_3   0.184997 0.067458 0.949787 -0.261024
C13   C     C_3   0.323416 0.578247 0.968880 -0.264777
C14   C     C_3   0.678662 0.574880 0.031551 -0.242143
C15   C     C_3   0.823414 0.078244 0.968878 -0.264777
C16   C     C_3   0.178662 0.074880 0.031550 -0.242134
C17   C     C_3   0.188910 0.512776 0.015257 -0.230083
C18   C     C_3   0.810379 0.509580 0.971431 -0.203370
C19   C     C_3   0.688909 0.012780 0.015256 -0.230084
C20   C     C_3   0.310376 0.009576 0.971429 -0.203370
C21   C     C_3   0.213619 0.710407 0.058349 -0.074071
C22   C     C_3   0.777919 0.717911 0.947485 -0.114119
C23   C     C_3   0.713622 0.210408 0.058351 -0.074061
C24   C     C_3   0.277926 0.217913 0.947486 -0.114117
C25   C     C_3   0.235374 0.578654 0.068894 0.063172
C26   C     C_3   0.760219 0.587611 0.927362 0.075772
C27   C     C_3   0.735374 0.078653 0.068894 0.063178
C28   C     C_3   0.260221 0.087615 0.927361 0.075773
C29   C     C_3   0.260130 0.639671 0.936356 0.046467
C30   C     C_3   0.747487 0.612691 0.067354 0.044792
C31   C     C_3   0.760130 0.139678 0.936357 0.046464
C32   C     C_3   0.247488 0.112689 0.067353 0.044791
C33   C     C_3   0.198673 0.555074 0.938553 -0.211972
C34   C     C_3   0.798602 0.514451 0.053292 -0.261881
C35   C     C_3   0.698668 0.055090 0.938554 -0.211970
C36   C     C_3   0.298600 0.014447 0.053290 -0.261884
C37   C     C_3   0.243948 0.745929 0.986143 -0.216133
C38   C     C_3   0.779988 0.722837 0.030937 -0.206424
C39   C     C_3   0.743956 0.245935 0.986149 -0.216153
C40   C     C_3   0.279993 0.222834 0.030937 -0.206424
C41   C     C_3   0.494443 0.701869 0.457527 -0.233147
C42   C     C_3   0.492587 0.701188 0.537588 -0.228419
C43   C     C_3   0.994443 0.201869 0.457527 -0.233147
C44   C     C_3   0.992587 0.201188 0.537588 -0.228419
C45   C     C_R   0.469980 0.820745 0.854058 0.531263
C46   C     C_R   0.533718 0.820524 0.143618 0.536813
C47   C     C_R   0.969981 0.320745 0.854057 0.531260
C48   C     C_R   0.033717 0.320524 0.143619 0.536811
C49   C     C_3   0.568517 0.882660 0.474448 -0.224259
C50   C     C_3   0.437065 0.908461 0.526731 -0.212588
C51   C     C_3   0.068517 0.382660 0.474448 -0.224259
C52   C     C_3   0.937065 0.408461 0.526731 -0.212588
C53   C     C_3   0.445657 0.901192 0.444669 -0.256759
C54   C     C_3   0.558638 0.881174 0.556529 -0.262167
C55   C     C_3   0.945657 0.401192 0.444669 -0.256759
C56   C     C_3   0.058638 0.381174 0.556529 -0.262167
C57   C     C_3   0.509046 0.827792 0.430272 0.060883
C58   C     C_3   0.488329 0.827921 0.568798 0.065912
C59   C     C_3   0.009046 0.327791 0.430272 0.060883
C60   C     C_3   0.988329 0.327921 0.568798 0.065912
C61   C     C_3   0.183945 0.661576 0.456691 -0.233913
C62   C     C_3   0.822624 0.640398 0.539580 -0.226326
C63   C     C_3   0.683945 0.161576 0.456691 -0.233913
C64   C     C_3   0.322624 0.140398 0.539580 -0.226326
C65   C     C_3   0.185859 0.666408 0.536735 -0.227648
C66   C     C_3   0.820832 0.644934 0.459467 -0.236344
C67   C     C_3   0.685859 0.166408 0.536735 -0.227648
C68   C     C_3   0.320832 0.144934 0.459467 -0.236344
C69   C     C_3   0.240288 0.461780 0.471496 -0.220582
C70   C     C_3   0.744598 0.454898 0.525804 -0.212982
C71   C     C_3   0.740288 0.961780 0.471496 -0.220582
C72   C     C_3   0.244598 0.954898 0.525804 -0.212982
C73   C     C_3   0.309702 0.634927 0.443368 -0.259393
C74   C     C_3   0.697987 0.647189 0.557582 -0.263804
C75   C     C_3   0.809702 0.134927 0.443368 -0.259394
C76   C     C_3   0.197987 0.147189 0.557582 -0.263804
C77   C     C_3   0.240972 0.577287 0.428871 0.063900
C78   C     C_3   0.760361 0.569823 0.569244 0.070372
C79   C     C_3   0.740972 0.077287 0.428871 0.063900
C80   C     C_3   0.260361 0.069823 0.569244 0.070372
C81   C     C_3   0.252547 0.607977 0.567055 0.066359
C82   C     C_3   0.749350 0.604240 0.431453 0.062120
C83   C     C_3   0.752547 0.107977 0.567055 0.066359
C84   C     C_3   0.249350 0.104240 0.431453 0.062120
C85   C     C_3   0.244139 0.477438 0.553563 -0.265989
C86   C     C_3   0.743650 0.473471 0.444150 -0.255335
C87   C     C_3   0.744139 0.977438 0.553563 -0.265989
C88   C     C_3   0.243650 0.973472 0.444150 -0.255335
C89   C     C_R   0.271685 0.677438 0.860973 0.541128
C90   C     C_R   0.738732 0.640281 0.145491 0.532344
C91   C     C_R   0.771686 0.177443 0.860974 0.541129
C92   C     C_R   0.238732 0.140280 0.145491 0.532343
C93   C     C_3   0.318659 0.643406 0.525377 -0.214037
C94   C     C_3   0.692599 0.665202 0.475970 -0.226295
C95   C     C_3   0.818659 0.143406 0.525377 -0.214037
C96   C     C_3   0.192599 0.165202 0.475970 -0.226295
C97   C     C_R   0.273591 0.041420 0.645214 0.534192
C98   C     C_R   0.727793 0.046049 0.353016 0.536524
C99   C     C_R   0.773591 0.541420 0.645214 0.534192
C100  C     C_R   0.227793 0.546049 0.353016 0.536524
C101  C     C_R   0.467798 0.822511 0.645156 0.537005
C102  C     C_R   0.530577 0.823024 0.353924 0.533369
C103  C     C_R   0.967798 0.322511 0.645156 0.537005
C104  C     C_R   0.030577 0.323024 0.353924 0.533369
C105  C     C_R   0.260866 0.640697 0.643420 0.544214
C106  C     C_R   0.739831 0.639331 0.355697 0.537261
C107  C     C_R   0.760866 0.140697 0.643420 0.544215
C108  C     C_R   0.239831 0.139331 0.355697 0.537261
C109  C     C_3   0.479359 0.924782 0.026199 -0.122943
C110  C     C_3   0.535058 0.917136 0.967800 -0.131162
C111  C     C_3   0.979355 0.424780 0.026199 -0.122935
C112  C     C_3   0.035056 0.417139 0.967802 -0.131150
C113  C     C_3   0.437600 0.829750 0.986120 -0.122963
C114  C     C_3   0.571533 0.817655 0.009641 -0.129485
C115  C     C_3   0.937599 0.329746 0.986119 -0.122962
C116  C     C_3   0.071532 0.317659 0.009643 -0.129483
C117  C     C_3   0.493284 0.823850 0.929019 0.061531
C118  C     C_3   0.515425 0.825794 0.067030 0.061635
C119  C     C_3   0.993285 0.323850 0.929019 0.061523
C120  C     C_3   0.015423 0.325793 0.067030 0.061632
Cr1   Cr    Cr6+3 0.229620 0.836040 0.749110 0.983902
Cr2   Cr    Cr6+3 0.770380 0.836040 0.250890 0.990990
Cr3   Cr    Cr6+3 0.729620 0.336040 0.749110 0.983898
Cr4   Cr    Cr6+3 0.270380 0.336040 0.250890 0.990989
Cr5   Cr    Cr6+3 0.387630 0.990680 0.750730 0.978873
Cr6   Cr    Cr6+3 0.612370 0.990680 0.249270 0.986943
Cr7   Cr    Cr6+3 0.887630 0.490680 0.750730 0.978873
Cr8   Cr    Cr6+3 0.112370 0.490680 0.249270 0.986944
Cr9   Cr    Cr6+3 0.386020 0.676590 0.749210 0.970129
Cr10  Cr    Cr6+3 0.613980 0.676590 0.250790 0.992197
Cr11  Cr    Cr6+3 0.886020 0.176590 0.749210 0.970126
Cr12  Cr    Cr6+3 0.113980 0.176590 0.250790 0.992194
H1    H     H_    0.386650 0.821114 0.964980 0.087416
H2    H     H_    0.625730 0.805748 0.022817 0.090662
H3    H     H_    0.886653 0.321103 0.964970 0.087420
H4    H     H_    0.125728 0.305750 0.022821 0.090664
H5    H     H_    0.241303 0.758199 0.102075 0.100641
H6    H     H_    0.735379 0.775868 0.929124 0.114683
H7    H     H_    0.741303 0.258199 0.102080 0.100639
H8    H     H_    0.235388 0.275875 0.929125 0.114682
H9    H     H_    0.293313 0.779659 0.003840 0.086315
H10   H     H_    0.758108 0.800923 0.054514 0.117981
H11   H     H_    0.793322 0.279657 0.003848 0.086325
H12   H     H_    0.258118 0.300925 0.054514 0.117985
H13   H     H_    0.215766 0.815625 0.958758 0.128019
H14   H     H_    0.834761 0.728774 0.048903 0.129989
H15   H     H_    0.715779 0.315642 0.958770 0.128006
H16   H     H_    0.334766 0.228765 0.048904 0.129990
H17   H     H_    0.634801 0.020742 0.031941 0.140088
H18   H     H_    0.364535 0.034061 0.961653 0.135609
H19   H     H_    0.134801 0.520744 0.031938 0.140080
H20   H     H_    0.864537 0.534071 0.961655 0.135608
H21   H     H_    0.151563 0.599667 0.919428 0.142273
H22   H     H_    0.847801 0.531585 0.082114 0.117105
H23   H     H_    0.651558 0.099694 0.919439 0.142278
H24   H     H_    0.347800 0.031577 0.082112 0.117107
H25   H     H_    0.532581 0.634851 0.441305 0.136816
H26   H     H_    0.451542 0.643920 0.554422 0.136673
H27   H     H_    0.032581 0.134851 0.441305 0.136817
H28   H     H_    0.951542 0.143920 0.554422 0.136673
H29   H     H_    0.445306 0.671313 0.434706 0.117408
H30   H     H_    0.539508 0.656976 0.558527 0.112822
H31   H     H_    0.945306 0.171313 0.434707 0.117408
H32   H     H_    0.039508 0.156976 0.558527 0.112822
H33   H     H_    0.609607 0.825473 0.461870 0.111352
H34   H     H_    0.383921 0.896098 0.542626 0.112657
H35   H     H_    0.109607 0.325474 0.461870 0.111352
H36   H     H_    0.883922 0.396098 0.542626 0.112657
H37   H     H_    0.599208 0.828649 0.583378 0.104411
H38   H     H_    0.399676 0.862097 0.418556 0.102200
H39   H     H_    0.099208 0.328649 0.583378 0.104411
H40   H     H_    0.899675 0.362097 0.418556 0.102200
H41   H     H_    0.460458 0.007261 0.050879 0.098672
H42   H     H_    0.557330 0.990317 0.937686 0.092093
H43   H     H_    0.960453 0.507258 0.050879 0.098668
H44   H     H_    0.057325 0.490327 0.937693 0.092093
H45   H     H_    0.453932 0.989652 0.422055 0.115442
H46   H     H_    0.561647 0.971319 0.579269 0.111185
H47   H     H_    0.953932 0.489652 0.422055 0.115442
H48   H     H_    0.061647 0.471319 0.579269 0.111185
H49   H     H_    0.451493 0.998648 0.542072 0.121290
H50   H     H_    0.578403 0.972974 0.456702 0.128315
H51   H     H_    0.951494 0.498648 0.542072 0.121289
H52   H     H_    0.078403 0.472974 0.456702 0.128315
H53   H     H_    0.130964 0.636329 0.440908 0.136984
H54   H     H_    0.872647 0.608586 0.556771 0.137379
H55   H     H_    0.630964 0.136329 0.440908 0.136984
H56   H     H_    0.372647 0.108586 0.556771 0.137379
H57   H     H_    0.191668 0.749663 0.434155 0.115178
H58   H     H_    0.821317 0.731323 0.561542 0.111753
H59   H     H_    0.691668 0.249663 0.434155 0.115178
H60   H     H_    0.321317 0.231323 0.561542 0.111753
H61   H     H_    0.178897 0.756881 0.553715 0.136822
H62   H     H_    0.834418 0.735577 0.444527 0.134456
H63   H     H_    0.678897 0.256881 0.553715 0.136822
H64   H     H_    0.334418 0.235577 0.444527 0.134455
H65   H     H_    0.139868 0.621174 0.558109 0.113405
H66   H     H_    0.861116 0.588817 0.436256 0.117409
H67   H     H_    0.639868 0.121174 0.558109 0.113405
H68   H     H_    0.361116 0.088817 0.436256 0.117409
H69   H     H_    0.691583 0.927086 0.457034 0.111677
H70   H     H_    0.277301 0.881462 0.541128 0.110492
H71   H     H_    0.191583 0.427086 0.457034 0.111677
H72   H     H_    0.777301 0.381462 0.541128 0.110492
H73   H     H_    0.697098 0.944226 0.579496 0.105892
H74   H     H_    0.286497 0.925532 0.418234 0.101678
H75   H     H_    0.197099 0.444226 0.579496 0.105892
H76   H     H_    0.786497 0.425532 0.418234 0.101677
H77   H     H_    0.350572 0.579030 0.419592 0.114865
H78   H     H_    0.650795 0.605259 0.578363 0.111032
H79   H     H_    0.850572 0.079030 0.419592 0.114865
H80   H     H_    0.150795 0.105259 0.578363 0.111032
H81   H     H_    0.311852 0.722738 0.418619 0.102270
H82   H     H_    0.704203 0.732007 0.586515 0.101468
H83   H     H_    0.811852 0.222738 0.418619 0.102270
H84   H     H_    0.204203 0.232007 0.586515 0.101468
H85   H     H_    0.543757 0.639850 0.944512 0.112230
H86   H     H_    0.452080 0.654558 0.054434 0.109852
H87   H     H_    0.043760 0.139853 0.944512 0.112240
H88   H     H_    0.952081 0.154553 0.054431 0.109845
H89   H     H_    0.338786 0.728433 0.542267 0.113220
H90   H     H_    0.703190 0.755012 0.467085 0.112071
H91   H     H_    0.838786 0.228433 0.542267 0.113220
H92   H     H_    0.203190 0.255013 0.467085 0.112071
H93   H     H_    0.357488 0.576555 0.539586 0.120436
H94   H     H_    0.641315 0.638384 0.456496 0.130965
H95   H     H_    0.857488 0.076555 0.539586 0.120436
H96   H     H_    0.141315 0.138384 0.456496 0.130965
H97   H     H_    0.282300 0.403157 0.453751 0.130167
H98   H     H_    0.691522 0.430461 0.540011 0.119204
H99   H     H_    0.782300 0.903157 0.453751 0.130168
H100  H     H_    0.191522 0.930461 0.540011 0.119204
H101  H     H_    0.288351 0.427534 0.576114 0.107025
H102  H     H_    0.694504 0.441294 0.420441 0.116022
H103  H     H_    0.788351 0.927534 0.576114 0.107025
H104  H     H_    0.194504 0.941294 0.420441 0.116022
H105  H     H_    0.329724 0.467629 0.062060 0.132017
H106  H     H_    0.664523 0.482554 0.930496 0.131126
H107  H     H_    0.829721 0.967621 0.062057 0.132018
H108  H     H_    0.164522 0.982576 0.930487 0.131092
H109  H     H_    0.344042 0.619480 0.081433 0.112527
H110  H     H_    0.652915 0.635485 0.923979 0.103154
H111  H     H_    0.844044 0.119470 0.081433 0.112529
H112  H     H_    0.152919 0.135508 0.923981 0.103152
H113  H     H_    0.371138 0.627133 0.959366 0.130114
H114  H     H_    0.634988 0.629008 0.048340 0.143143
H115  H     H_    0.871139 0.127123 0.959364 0.130114
H116  H     H_    0.134988 0.129008 0.048340 0.143152
H117  H     H_    0.330076 0.495248 0.941740 0.143748
H118  H     H_    0.665128 0.487339 0.050909 0.126664
H119  H     H_    0.830069 0.995247 0.941736 0.143752
H120  H     H_    0.165125 0.987334 0.050904 0.126669
H121  H     H_    0.702418 0.923040 0.013174 0.092429
H122  H     H_    0.304917 0.924414 0.947769 0.101957
H123  H     H_    0.202417 0.423035 0.013182 0.092431
H124  H     H_    0.804925 0.424416 0.947772 0.101953
H125  H     H_    0.706445 0.979468 0.901701 0.101226
H126  H     H_    0.278846 0.931770 0.074440 0.105287
H127  H     H_    0.206457 0.479448 0.901705 0.101218
H128  H     H_    0.778849 0.431774 0.074442 0.105288
O1    O     O_R   0.214130 0.708570 0.829890 -0.531726
O2    O     O_R   0.785870 0.708570 0.170110 -0.534463
O3    O     O_R   0.714130 0.208570 0.829890 -0.531736
O4    O     O_R   0.285870 0.208570 0.170110 -0.534462
O5    O     O_R   0.446360 0.919990 0.675230 -0.510690
O6    O     O_R   0.553640 0.919990 0.324770 -0.511273
O7    O     O_R   0.946360 0.419990 0.675230 -0.510690
O8    O     O_R   0.053640 0.419990 0.324770 -0.511273
O9    O     O_R   0.457170 0.717300 0.668380 -0.536039
O10   O     O_R   0.542830 0.717300 0.331620 -0.534092
O11   O     O_R   0.957170 0.217300 0.668380 -0.536039
O12   O     O_R   0.042830 0.217300 0.331620 -0.534092
O13   O     O_R   0.320870 0.624890 0.673130 -0.514038
O14   O     O_R   0.679130 0.624890 0.326870 -0.512099
O15   O     O_R   0.820870 0.124890 0.673130 -0.514040
O16   O     O_R   0.179130 0.124890 0.326870 -0.512099
O17   O     O_3   0.334430 0.834430 0.749680 -0.277619
O18   O     O_3   0.665570 0.834430 0.250320 -0.270470
O19   O     O_3   0.834430 0.334430 0.749680 -0.277620
O20   O     O_3   0.165570 0.334430 0.250320 -0.270468
O21   O     O_R   0.236050 0.959150 0.825270 -0.525063
O22   O     O_R   0.763950 0.959150 0.174730 -0.514658
O23   O     O_R   0.736050 0.459150 0.825270 -0.525064
O24   O     O_R   0.263950 0.459150 0.174730 -0.514658
O25   O     O_R   0.332100 0.076650 0.832310 -0.536371
O26   O     O_R   0.667900 0.076650 0.167690 -0.547317
O27   O     O_R   0.832100 0.576650 0.832310 -0.536369
O28   O     O_R   0.167900 0.576650 0.167690 -0.547318
O29   O     O_R   0.446500 0.918620 0.826240 -0.507394
O30   O     O_R   0.553500 0.918620 0.173760 -0.512654
O31   O     O_R   0.946500 0.418620 0.826240 -0.507394
O32   O     O_R   0.053500 0.418620 0.173760 -0.512654
O33   O     O_R   0.457310 0.715830 0.831280 -0.535586
O34   O     O_R   0.542690 0.715830 0.168720 -0.527338
O35   O     O_R   0.957310 0.215830 0.831280 -0.535586
O36   O     O_R   0.042690 0.215830 0.168720 -0.527341
O37   O     O_R   0.321000 0.623520 0.824130 -0.514659
O38   O     O_R   0.679000 0.623520 0.175870 -0.510406
O39   O     O_R   0.821000 0.123520 0.824130 -0.514658
O40   O     O_R   0.179000 0.123520 0.175870 -0.510406
O41   O     O_R   0.213990 0.710040 0.667000 -0.531965
O42   O     O_R   0.786010 0.710040 0.333000 -0.534714
O43   O     O_R   0.713990 0.210040 0.667000 -0.531964
O44   O     O_R   0.286010 0.210040 0.333000 -0.534714
O45   O     O_R   0.235920 0.960520 0.674260 -0.513717
O46   O     O_R   0.764080 0.960520 0.325740 -0.512465
O47   O     O_R   0.735920 0.460520 0.674260 -0.513716
O48   O     O_R   0.264080 0.460520 0.325740 -0.512465
O49   O     O_R   0.331960 0.078120 0.669410 -0.541881
O50   O     O_R   0.668040 0.078120 0.330590 -0.534221
O51   O     O_R   0.831960 0.578120 0.669410 -0.541880
O52   O     O_R   0.168040 0.578120 0.330590 -0.534220
C121  C     C_3   0.134736 0.748473 0.067710 -0.235613
C122  C     C_3   0.086730 0.766137 0.001952 -0.310924
C123  C     C_3   0.022986 0.837536 0.022057 -0.474068
H129  H     H_    0.992874 0.791527 0.063479 0.147656
H130  H     H_    0.037897 0.925716 0.042378 0.154735
H131  H     H_    0.990015 0.849286 0.973909 0.133993
H132  H     H_    0.110446 0.811238 0.956757 0.164167
H133  H     H_    0.068210 0.680032 0.982392 0.147849
H134  H     H_    0.104744 0.688274 0.100493 0.192733
H135  H     H_    0.134571 0.829417 0.100792 0.128498
C124  C     C_3   0.846551 0.767521 0.916356 -0.248976
C125  C     C_3   0.837299 0.828731 0.843147 -0.281249
C126  C     C_3   0.905415 0.878502 0.817156 -0.409518
H136  H     H_    0.926042 0.943668 0.856209 0.154829
H137  H     H_    0.943650 0.806921 0.809952 0.135145
H138  H     H_    0.897326 0.922508 0.764982 0.157658
H139  H     H_    0.816597 0.769643 0.801145 0.193427
H140  H     H_    0.798980 0.900002 0.846617 0.155996
H141  H     H_    0.869619 0.830003 0.954915 0.104691
H142  H     H_    0.887697 0.700616 0.912983 0.177983
C127  C     C_3   0.634739 0.248477 0.067702 -0.235592
C128  C     C_3   0.586732 0.266087 0.001938 -0.310925
C129  C     C_3   0.523030 0.337630 0.021997 -0.474060
H143  H     H_    0.492916 0.291788 0.063483 0.147678
H144  H     H_    0.537993 0.425844 0.042216 0.154712
H145  H     H_    0.490044 0.349289 0.973852 0.133994
H146  H     H_    0.610465 0.311038 0.956696 0.164213
H147  H     H_    0.568162 0.179970 0.982451 0.147813
H148  H     H_    0.604748 0.188308 0.100508 0.192700
H149  H     H_    0.634573 0.329438 0.100766 0.128489
C130  C     C_3   0.346560 0.267517 0.916359 -0.248977
C131  C     C_3   0.337313 0.328731 0.843150 -0.281254
C132  C     C_3   0.405430 0.378507 0.817166 -0.409530
H150  H     H_    0.426049 0.443680 0.856219 0.154832
H151  H     H_    0.443669 0.306931 0.809970 0.135142
H152  H     H_    0.397345 0.422508 0.764990 0.157654
H153  H     H_    0.316616 0.269645 0.801145 0.193434
H154  H     H_    0.298992 0.400000 0.846619 0.155999
H155  H     H_    0.369628 0.329999 0.954920 0.104696
H156  H     H_    0.387704 0.200608 0.912986 0.177979

loop_
_geom_bond_atom_site_label_1
_geom_bond_atom_site_label_2
_ccdc_geom_bond_type
C82   C94   S    
C55   C59   S    
C35   H125  S    
C83   C87   S    
C73   C93   S    
C47   O31   A    
C42   C58   S    
C29   C89   S    
C16   H120  S    
C89   O37   A    
C48   C120  S    
C127  C128  S    
C24   H8    S    
C57   C102  S    
Cr6   O18   S    
Cr7   O7    S    
C85   H101  S    
C59   C104  S    
Cr1   O17   S    
C5    C6    S    
Cr10  O10   S    
C109  H41   S    
Cr4   O4    S    
Cr12  O16   S    
C29   C33   S    
C87   H103  S    
C30   C38   S    
C77   C100  S    
C9    C13   S    
C87   H73   S    
C11   C15   S    
C128  H146  S    
C5    H85   S    
C12   C16   S    
C125  C126  S    
C98   O50   A    
C99   O47   A    
C19   H17   S    
C103  O7    A    
C60   C103  S    
C107  O15   A    
Cr4   O24   S    
C83   C107  S    
C113  H1    S    
C74   H82   S    
C61   H57   S    
C54   H37   S    
C17   H19   S    
C18   H20   S    
C64   H60   S    
C109  C118  S    
C16   H116  S    
C70   H72   S    
Cr5   O25   S    
C50   C53   S    
C75   C95   S    
C124  C125  S    
C7    C119  S    
Cr8   O28   S    
C62   H58   S    
C129  H144  S    
C62   C66   S    
Cr2   O2    S    
C20   C28   S    
C18   H124  S    
C122  C123  S    
Cr12  O36   S    
C43   C44   S    
C66   C82   S    
Cr9   O33   S    
C130  H156  S    
C58   C101  S    
C105  O41   A    
C132  H152  S    
C92   O4    A    
C107  O43   A    
C53   H38   S    
C116  H4    S    
C108  O44   A    
C56   H39   S    
C89   O1    A    
Cr5   O49   S    
C55   H40   S    
C91   O3    A    
C131  H153  S    
Cr1   O45   S    
Cr5   O5    S    
Cr2   O42   S    
C3    C26   S    
C84   C88   S    
C31   C91   S    
C53   H45   S    
Cr12  O12   S    
C13   H117  S    
Cr10  O34   S    
C17   C25   S    
C19   C35   S    
C76   C96   S    
C1    O21   A    
C32   C92   S    
C75   H83   S    
Cr3   O19   S    
C95   H95   S    
C129  H143  S    
C61   C65   S    
C12   H108  S    
C78   C99   S    
C45   O29   A    
C129  H145  S    
C75   C79   S    
Cr5   O29   S    
C22   C38   S    
C67   C83   S    
C80   C97   S    
C11   H111  S    
C69   C77   S    
C111  C112  S    
C9    H109  S    
C71   C79   S    
C4    C25   S    
Cr4   O20   S    
C7    C8    S    
Cr10  O38   S    
C8    H88   S    
C96   H96   S    
C73   H77   S    
C35   H23   S    
C43   H27   S    
C64   C68   S    
C100  O52   A    
C33   H21   S    
C49   C57   S    
Cr11  O11   S    
Cr9   O37   S    
C126  H137  S    
C38   H14   S    
C52   C60   S    
C19   H121  S    
C61   C77   S    
C12   H112  S    
C11   C27   S    
C93   H93   S    
C36   H126  S    
C47   O35   A    
C110  C114  S    
C48   O36   A    
C43   C59   S    
C62   H54   S    
C76   H80   S    
C10   H106  S    
Cr6   O30   S    
C88   H74   S    
Cr1   O21   S    
Cr2   O18   S    
C110  H42   S    
Cr12  O20   S    
C81   C105  S    
C30   C34   S    
C10   C14   S    
C128  C129  S    
C125  H139  S    
C101  O9    A    
C95   H91   S    
C116  C120  S    
C103  O11   A    
C7    C116  S    
C69   H97   S    
C33   H127  S    
C61   H53   S    
C114  H2    S    
C34   H128  S    
C64   H56   S    
C66   H66   S    
C113  C117  S    
C112  H44   S    
C127  H149  S    
C63   H55   S    
Cr6   O26   S    
C9    H105  S    
Cr4   O48   S    
Cr10  O14   S    
C112  C116  S    
C69   C85   S    
C85   H75   S    
C72   H70   S    
C56   H48   S    
C45   C117  S    
C122  H132  S    
C21   C25   S    
C123  H131  S    
C71   H99   S    
Cr12  O40   S    
C55   H47   S    
C62   C78   S    
C76   C80   S    
C42   H30   S    
C15   C31   S    
C16   C32   S    
C97   O45   A    
C105  O13   A    
C106  O42   A    
C72   C80   S    
C115  H3    S    
C4    O24   A    
C20   H18   S    
C82   C106  S    
C90   O2    A    
Cr6   O50   S    
C128  H147  S    
Cr8   O32   S    
C51   C59   S    
C131  C132  S    
C94   H90   S    
Cr6   O6    S    
C124  H142  S    
C46   O34   A    
Cr7   O19   S    
Cr8   O20   S    
C81   C85   S    
C13   H113  S    
C21   C121  S    
C41   H29   S    
C41   C42   S    
C74   C94   S    
Cr9   O13   S    
C18   C26   S    
C121  H135  S    
C30   C90   S    
Cr11  O39   S    
C1    O25   A    
C9    C25   S    
C2    O22   A    
C3    O27   A    
C75   H79   S    
C86   H102  S    
C37   H9    S    
C12   C28   S    
C13   C29   S    
C67   H67   S    
C98   O46   A    
C92   O40   A    
C46   C118  S    
C73   C77   S    
C66   H62   S    
C6    H86   S    
C51   H35   S    
C130  H155  S    
C50   H34   S    
C1    C28   S    
C2    C27   S    
C132  H151  S    
C72   H100  S    
Cr11  O19   S    
C52   C55   S    
C123  H129  S    
C64   C80   S    
C73   H81   S    
C42   H26   S    
C17   C33   S    
C110  C117  S    
C65   H61   S    
C34   H22   S    
C24   C130  S    
C131  H154  S    
C40   H16   S    
C68   C84   S    
C24   C28   S    
C51   H52   S    
C86   H76   S    
C53   C57   S    
C82   C86   S    
C56   C60   S    
C115  C119  S    
C50   C58   S    
C104  O12   A    
C49   H33   S    
C48   O32   A    
Cr7   O27   S    
C76   H84   S    
C65   C81   S    
C91   O39   A    
Cr8   O8    S    
C68   H64   S    
C20   H122  S    
Cr2   O22   S    
C41   H25   S    
C15   H115  S    
C44   H28   S    
C31   C35   S    
C32   C36   S    
C36   H24   S    
C101  O5    A    
C102  O10   A    
C108  O16   A    
C112  C119  S    
C14   H118  S    
C22   H6    S    
C41   C57   S    
C109  C110  S    
C121  C122  S    
Cr5   O17   S    
C44   C60   S    
C63   H59   S    
C84   C108  S    
C126  H136  S    
C94   H94   S    
C20   C36   S    
C54   H46   S    
C21   C37   S    
C22   C26   S    
C29   C37   S    
C44   H32   S    
C11   H107  S    
C43   H31   S    
C130  C131  S    
C97   O49   A    
C5    C114  S    
C70   C78   S    
C79   C98   S    
C99   O51   A    
C10   H110  S    
C52   H51   S    
C63   C79   S    
C23   C127  S    
C4    O28   A    
C74   H78   S    
C111  H43   S    
C23   H7    S    
C46   O30   A    
C125  H140  S    
C49   C54   S    
Cr3   O47   S    
C51   C56   S    
C84   C96   S    
C8    C115  S    
Cr1   O1    S    
Cr3   O3    S    
C96   H92   S    
Cr9   O17   S    
C23   C27   S    
C19   C27   S    
C74   C78   S    
C109  C113  S    
C2    O26   A    
C7    H87   S    
C10   C26   S    
C47   C119  S    
C127  H148  S    
C38   H10   S    
C14   C30   S    
C67   H63   S    
C72   C88   S    
C122  H133  S    
C88   H104  S    
C63   C67   S    
C22   C124  S    
C123  H130  S    
Cr7   O31   S    
Cr1   O41   S    
C21   H5    S    
C5    C117  S    
C111  C120  S    
Cr10  O18   S    
C126  H138  S    
Cr3   O43   S    
C70   H98   S    
C6    C113  S    
Cr11  O15   S    
Cr4   O44   S    
C81   C93   S    
C83   C95   S    
Cr11  O35   S    
C18   C34   S    
C114  C118  S    
C65   H65   S    
C39   H11   S    
C69   H71   S    
C40   H12   S    
C71   C87   S    
C50   H49   S    
C124  H141  S    
C70   C86   S    
C8    C120  S    
Cr2   O46   S    
C54   C58   S    
C71   H69   S    
C17   H123  S    
C45   O33   A    
C104  O8    A    
C121  H134  S    
C111  C115  S    
Cr7   O51   S    
Cr8   O52   S    
C68   H68   S    
Cr3   O23   S    
C52   H36   S    
C106  O14   A    
C90   O38   A    
C15   H119  S    
C23   C39   S    
C3    O23   A    
C24   C40   S    
C31   C39   S    
C32   C40   S    
Cr9   O9    S    
C49   H50   S    
C100  O48   A    
C102  O6    A    
C39   H15   S    
C93   H89   S    
C37   H13   S    
C132  H150  S    
C6    C118  S    
C14   H114  S    
