data_mof_unit_16070.cif
_audit_creation_date              2012-12-11T14:15:28-0500
_audit_creation_method            fapswitch 2.2
_symmetry_space_group_name_H-M    P1
_symmetry_Int_Tables_number       1
_space_group_crystal_system       triclinic
_cell_length_a                    11.157686
_cell_length_b                    12.581297
_cell_length_c                    23.572773
_cell_angle_alpha                 90.395895
_cell_angle_beta                  96.313168
_cell_angle_gamma                 68.823353
_cell_volume                      3065.00749269

loop_
_atom_site_label
_atom_site_type_symbol
_atom_type_description
_atom_site_fract_x
_atom_site_fract_y
_atom_site_fract_z
_atom_type_partial_charge
C1    C     C_R   0.106289 0.593234 0.420929 0.558600
C2    C     C_R   0.566340 0.612383 0.331544 0.054714
C3    C     C_R   0.677870 0.745156 0.322678 0.215373
C4    C     C_R   0.613305 0.777502 0.267284 -0.002743
C5    C     C_R   0.549789 0.708686 0.240100 -0.009703
C6    C     C_R   0.529370 0.713136 0.179973 0.059915
C7    C     C_R   0.585547 0.884260 0.178121 0.041619
C8    C     C_R   0.616597 0.873507 0.238021 0.239253
C9    C     C_1   0.244653 0.151900 0.125417 -0.010262
C10   C     C_2   0.228378 0.192521 0.235024 0.100364
C11   C     C_2   0.133592 0.176354 0.261293 0.110425
C12   C     C_R   0.744593 0.607194 0.405644 0.587957
C13   C     C_1   0.123625 0.201153 0.320759 0.024879
C14   C     C_1   0.234686 0.174459 0.174790 0.016167
C15   C     C_1   0.114451 0.231171 0.369189 -0.000640
C16   C     C_1   0.160325 0.753065 0.122493 -0.017570
C17   C     C_2   0.119227 0.720753 0.228647 0.314419
C18   C     C_2   0.142939 0.616428 0.251269 0.299426
C19   C     C_1   0.135583 0.603604 0.311826 -0.023183
C20   C     C_1   0.139741 0.734626 0.169862 0.021874
C21   C     C_1   0.126348 0.597085 0.362046 -0.011484
C22   C     C_1   0.545352 0.787107 0.852323 0.042554
C23   C     C_R   0.101427 0.281049 0.423946 0.526368
C24   C     C_2   0.594171 0.770637 0.744264 0.247392
C25   C     C_2   0.584574 0.683422 0.713726 -0.050088
C26   C     C_1   0.632548 0.662116 0.658735 0.040969
C27   C     C_1   0.566996 0.778977 0.803190 -0.041742
C28   C     C_1   0.680742 0.639519 0.614752 0.031444
C29   C     C_R   0.257658 0.078321 0.838242 -0.011182
C30   C     C_R   0.114503 0.194960 0.631239 -0.035869
C31   C     C_R   0.018000 0.137435 0.706831 0.276382
C32   C     C_R   0.005596 0.184381 0.652110 0.095058
C33   C     C_R   0.237458 0.139857 0.661106 0.241015
C34   C     C_R   0.147810 0.616695 0.591775 0.601866
C35   C     C_R   0.246497 0.114892 0.719682 0.021618
C36   C     C_R   0.134323 0.116673 0.743652 -0.044036
C37   C     C_R   0.138433 0.104686 0.803368 0.019074
C38   C     C_R   0.369998 0.072109 0.813154 0.163427
C39   C     C_R   0.363334 0.095250 0.754618 0.294515
C40   C     C_R   0.120685 0.734944 0.857011 -0.012963
C41   C     C_R   0.182658 0.636052 0.652129 0.022625
C42   C     C_R   0.299257 0.554289 0.744462 0.247169
C43   C     C_R   0.290904 0.556353 0.684094 0.165543
C44   C     C_R   0.091581 0.723389 0.679792 0.193240
C45   C     C_R   0.747785 0.602814 0.565474 0.542986
C46   C     C_R   0.094555 0.719467 0.739263 -0.037766
C47   C     C_R   0.201861 0.637081 0.772111 -0.009592
C48   C     C_R   0.210514 0.641891 0.832036 0.209120
C49   C     C_R   0.001735 0.796845 0.826275 0.177545
C50   C     C_R   0.990289 0.794694 0.766424 0.237726
C51   C     C_R   0.266265 0.109821 0.069481 0.546144
C52   C     C_R   0.533052 0.799387 0.085476 0.606836
C53   C     C_R   0.187577 0.787014 0.068958 0.537613
C54   C     C_R   0.270917 0.058083 0.900889 0.564515
C55   C     C_R   0.515469 0.797281 0.910193 0.560619
C56   C     C_R   0.100521 0.273908 0.583248 0.549217
C57   C     C_R   0.162507 0.783440 0.908761 0.558181
C58   C     C_R   0.552455 0.798314 0.148702 0.023015
C59   C     C_R   0.658981 0.658198 0.353413 0.036110
C60   C     C_R   0.515663 0.633034 0.273582 0.237263
Cr1   Cr    Cr6+3 0.189770 0.415650 0.511620 1.093238
Cr2   Cr    Cr6+3 0.930400 0.667320 0.496770 1.102466
Cr3   Cr    Cr6+3 0.879870 0.417010 0.491650 1.067149
Cr4   Cr    Cr6+3 0.149500 0.973980 0.985330 1.040128
Cr5   Cr    Cr6+3 0.457000 0.976510 0.994660 1.087165
Cr6   Cr    Cr6+3 0.411170 0.724270 0.995270 1.060906
H1    H     H_    0.552199 0.620976 0.732157 0.105726
O1    O     O_R   0.196340 0.303200 0.448500 -0.517606
O2    O     O_R   0.811960 0.658090 0.547150 -0.497806
O3    O     O_R   0.757930 0.506140 0.547110 -0.493049
O4    O     O_R   0.988670 0.321620 0.556040 -0.465297
O5    O     O_3   0.000020 0.499990 0.500010 -0.313234
O6    O     O_R   0.113660 0.883270 0.047820 -0.497924
O7    O     O_R   0.186930 0.068530 0.043990 -0.493623
O8    O     O_R   0.377770 0.089040 0.054220 -0.490407
O9    O     O_R   0.562800 0.872960 0.056970 -0.454387
O10   O     O_R   0.555390 0.700940 0.062700 -0.464150
O11   O     O_R   0.295020 0.731920 0.049950 -0.505600
O12   O     O_R   0.199310 0.519670 0.454880 -0.494544
O13   O     O_R   0.094290 0.884230 0.921550 -0.464771
O14   O     O_R   0.168980 0.069410 0.926940 -0.516810
O15   O     O_R   0.358400 0.089990 0.927950 -0.456543
O16   O     O_R   0.544850 0.873850 0.939920 -0.451890
O17   O     O_R   0.536020 0.701900 0.936430 -0.474067
O18   O     O_R   0.277070 0.732810 0.932890 -0.514154
O19   O     O_3   0.339220 0.891590 0.991750 -0.340310
O20   O     O_R   0.045660 0.691380 0.441680 -0.455320
O21   O     O_R   0.811930 0.659460 0.430950 -0.462609
O22   O     O_R   0.757900 0.507620 0.421760 -0.489269
O23   O     O_R   0.988630 0.322990 0.439840 -0.492762
O24   O     O_R   0.196380 0.301720 0.573850 -0.470656
O25   O     O_R   0.199350 0.518300 0.571080 -0.432135
O26   O     O_R   0.045700 0.689900 0.567030 -0.490812
N1    N     N_3   0.500462 0.623865 0.149876 -0.552808
H2    H     H_    0.565725 0.544238 0.165872 0.267666
H3    H     H_    0.405712 0.631026 0.153131 0.293973
O27   O     O_3   0.082225 0.814482 0.262721 -0.698589
H4    H     H_    0.070169 0.883332 0.239135 0.326668
O28   O     O_3   0.634515 0.849424 0.719971 -0.606616
H5    H     H_    0.638870 0.904552 0.749514 0.353322
N2    N     N_3   0.019037 0.131919 0.827908 -0.576550
H6    H     H_    0.017585 0.059601 0.848828 0.280814
H7    H     H_    0.008089 0.199023 0.855712 0.269032
O29   O     O_3   0.487672 0.042782 0.846179 -0.699503
H8    H     H_    0.506287 0.114028 0.850296 0.339990
O30   O     O_3   0.914003 0.115858 0.723081 -0.644629
H9    H     H_    0.949917 0.043969 0.746377 0.360358
O31   O     O_3   0.467720 0.104155 0.730829 -0.593593
H10   H     H_    0.538715 0.100995 0.760542 0.333813
N3    N     N_3   0.882574 0.219690 0.617660 -0.551310
H11   H     H_    0.814424 0.280549 0.639653 0.266930
H12   H     H_    0.854735 0.149007 0.612098 0.283724
O32   O     O_3   0.348347 0.114663 0.634412 -0.565997
H13   H     H_    0.327441 0.101358 0.593617 0.331166
O33   O     O_3   0.309757 0.559540 0.865341 -0.592412
H14   H     H_    0.278254 0.550691 0.902112 0.330358
N4    N     N_3   0.592260 0.979113 0.146898 -0.582899
H15   H     H_    0.527288 0.054879 0.160906 0.243954
H16   H     H_    0.686444 0.979106 0.153918 0.238320
O34   O     O_3   0.901230 0.862348 0.855576 -0.671862
H17   H     H_    0.819275 0.860547 0.835408 0.336011
O35   O     O_3   0.399234 0.470499 0.776745 -0.622825
H18   H     H_    0.424515 0.399335 0.755203 0.344657
O36   O     O_3   0.880498 0.866663 0.733994 -0.642754
H19   H     H_    0.834916 0.932859 0.756378 0.342865
O37   O     O_3   0.387307 0.482558 0.655293 -0.665132
H20   H     H_    0.471207 0.462798 0.679536 0.333603
O38   O     O_3   0.001148 0.814638 0.648333 -0.601704
H21   H     H_    0.922055 0.795425 0.641086 0.384854
O39   O     O_3   0.429898 0.584522 0.249423 -0.709793
H22   H     H_    0.428808 0.522043 0.274194 0.339461
O40   O     O_3   0.646855 0.955633 0.269658 -0.658762
H23   H     H_    0.646459 0.018678 0.244916 0.334812
N5    N     N_3   0.526086 0.544498 0.368573 -0.592433
H24   H     H_    0.425352 0.579007 0.367457 0.248520
H25   H     H_    0.554908 0.460823 0.354666 0.240514
O41   O     O_3   0.769265 0.789039 0.345144 -0.612213
H26   H     H_    0.821646 0.792847 0.314367 0.363320
N6    N     N_3   0.033420 0.145688 0.230173 -0.604374
H27   H     H_    0.982058 0.210484 0.199553 0.237358
H28   H     H_    0.076483 0.070649 0.208863 0.225086
N7    N     N_3   0.333035 0.216234 0.266719 -0.611254
H29   H     H_    0.386481 0.145383 0.293646 0.264760
H30   H     H_    0.295679 0.285981 0.292321 0.217643
O42   O     O_3   0.176628 0.522837 0.217136 -0.698608
H31   H     H_    0.184598 0.455248 0.240677 0.322716

loop_
_geom_bond_atom_site_label_1
_geom_bond_atom_site_label_2
_ccdc_geom_bond_type
C1    O20   A    
C37   N2    S    
C1    C21   S    
N2    H6    S    
C24   O28   S    
Cr4   O13   S    
C7    N4    S    
C35   C36   A    
C9    C51   S    
C51   O7    A    
C4    C8    A    
C18   O42   S    
O38   H21   S    
Cr6   O18   S    
O42   H31   S    
Cr5   O19   S    
C2    N5    S    
Cr5   O9    S    
C32   N3    S    
C36   C37   A    
C19   C21   T    
C51   O8    A    
N4    H16   S    
C5    C6    A    
C2    C60   A    
Cr5   O16   S    
C49   O34   S    
O30   H9    S    
C40   C49   A    
C11   C13   S    
C17   C20   S    
O31   H10   S    
C18   C19   S    
C10   N7    S    
C6    C58   A    
N3    H11   S    
C38   O29   S    
C16   C53   S    
C12   C59   S    
C56   O24   A    
C31   C32   A    
O40   H23   S    
C6    N1    S    
C25   H1    S    
C29   C38   A    
C8    O40   S    
Cr4   O6    S    
C24   C27   S    
C3    O41   S    
C7    C58   A    
C30   C33   A    
Cr1   O25   S    
C15   C23   S    
N2    H7    S    
C41   C43   A    
C57   O13   A    
C34   C41   S    
C43   O37   S    
Cr4   O19   S    
O29   H8    S    
C44   C46   A    
O27   H4    S    
C34   O25   A    
C39   O31   S    
Cr6   O11   S    
C28   C45   S    
C12   O21   A    
C45   O2    A    
C12   O22   A    
C7    C8    A    
C50   O36   S    
C24   C25   D    
C10   C14   S    
C60   O39   S    
C2    C59   A    
N5    H25   S    
C25   C26   S    
C30   C56   S    
Cr2   O2    S    
C23   O1    A    
C35   C39   A    
C9    C14   T    
C47   C48   A    
Cr3   O3    S    
C16   C20   T    
C56   O4    A    
C41   C44   A    
Cr3   O22   S    
C17   C18   D    
C23   O23   A    
Cr2   O5    S    
N1    H3    S    
N5    H24   S    
C52   C58   S    
C48   O33   S    
Cr1   O5    S    
Cr3   O4    S    
C22   C27   T    
C13   C15   T    
C1    O12   A    
C31   O30   S    
N7    H30   S    
C42   C43   A    
C55   O16   A    
C3    C4    A    
C54   O15   A    
O34   H17   S    
C42   O35   S    
O32   H13   S    
O41   H26   S    
C40   C48   A    
Cr6   O10   S    
C46   C47   A    
C44   O38   S    
C40   C57   S    
C5    C60   A    
C45   O3    A    
C31   C36   A    
C33   O32   S    
C53   O6    A    
C4    C5    A    
C52   O9    A    
Cr6   O19   S    
N6    H27   S    
C22   C55   S    
Cr2   O20   S    
C46   C50   A    
C26   C28   T    
Cr5   O8    S    
O28   H5    S    
C53   O11   A    
O35   H18   S    
N4    H15   S    
C30   C32   A    
N6    H28   S    
Cr1   O1    S    
Cr5   O15   S    
C38   C39   A    
Cr2   O21   S    
Cr1   O12   S    
O37   H20   S    
Cr3   O23   S    
C33   C35   A    
C57   O18   A    
O39   H22   S    
C42   C47   A    
N1    H2    S    
C34   O26   A    
N3    H12   S    
Cr4   O14   S    
C10   C11   D    
Cr6   O17   S    
Cr1   O24   S    
Cr3   O5    S    
C49   C50   A    
C29   C54   S    
Cr2   O26   S    
C29   C37   A    
Cr4   O7    S    
N7    H29   S    
O33   H14   S    
C55   O17   A    
C17   O27   S    
C54   O14   A    
C52   O10   A    
C11   N6    S    
O36   H19   S    
C3    C59   A    
