data_mof_unit_5785.cif
_audit_creation_date              2012-10-26T19:35:39-0400
_audit_creation_method            fapswitch 2.2
_symmetry_space_group_name_H-M    P1
_symmetry_Int_Tables_number       1
_space_group_crystal_system       triclinic
_cell_length_a                    15.864635
_cell_length_b                    10.8664
_cell_length_c                    9.600833
_cell_angle_alpha                 92.164246
_cell_angle_beta                  90.051806
_cell_angle_gamma                 91.825663
_cell_volume                      1653.07786494

loop_
_atom_site_label
_atom_site_type_symbol
_atom_type_description
_atom_site_fract_x
_atom_site_fract_y
_atom_site_fract_z
_atom_type_partial_charge
C1    C     C_R   0.498450 0.263141 0.497364 0.557336
C2    C     C_R   0.500850 0.131141 0.490279 0.015538
C3    C     C_R   0.451227 0.060103 0.394789 -0.127584
C4    C     C_R   0.340059 0.499960 0.499868 0.566773
C5    C     C_R   0.448010 0.931013 0.400931 -0.034145
C6    C     C_R   0.496410 0.872044 0.502749 0.035441
C7    C     C_R   0.552109 0.946457 0.585621 -0.016320
C8    C     C_3   0.581316 0.957751 0.735957 0.004274
C9    C     C_3   0.581791 0.098944 0.723496 -0.127884
C10   C     C_R   0.570140 0.536499 0.074911 0.149144
C11   C     C_R   0.438604 0.437106 0.071958 0.070995
C12   C     C_3   0.083368 0.500342 0.497005 -0.018592
C13   C     C_R   0.438171 0.437884 0.922649 0.072735
C14   C     C_R   0.571308 0.532133 0.928559 0.121061
C15   C     C_3   0.625420 0.645549 0.923616 -0.155048
C16   C     C_R   0.499209 0.737804 0.502078 0.559304
C17   C     C_3   0.619571 0.655638 0.083911 -0.076023
C18   C     C_R   0.659915 0.500006 0.500093 0.565231
C19   C     C_3   0.969699 0.383322 0.476487 0.039095
C20   C     C_3   0.026067 0.455149 0.374686 0.022936
C21   C     C_1   0.250524 0.500091 0.499347 0.083770
C22   C     C_1   0.749400 0.499380 0.500233 0.080039
C23   C     C_3   0.972541 0.543805 0.623518 -0.122048
C24   C     C_3   0.026927 0.429272 0.598604 -0.062157
C25   C     C_2   0.053461 0.407055 0.234031 0.617622
C26   C     C_1   0.666072 0.907858 0.752147 0.210637
C27   C     C_1   0.664344 0.165703 0.727935 0.248747
C28   C     C_1   0.376897 0.360761 0.141647 0.265075
C29   C     C_1   0.375483 0.362709 0.846912 0.259212
C30   C     C_1   0.709193 0.616993 0.866774 0.300389
C31   C     C_2   0.701294 0.647947 0.163548 0.603043
C32   C     C_2   0.937763 0.252713 0.452827 0.631781
C33   C     C_2   0.060231 0.744912 0.543871 0.616099
C34   C     C_3   0.916314 0.497950 0.499487 -0.011875
C35   C     C_1   0.057467 0.353100 0.710015 0.270974
C36   C     C_1   0.390077 0.862727 0.308368 0.228897
C37   C     C_2   0.518560 0.917571 0.845082 0.540387
C38   C     C_3   0.029136 0.614184 0.519895 0.043200
C39   C     C_3   0.971589 0.570282 0.396276 -0.140761
C40   C     C_1   0.175071 0.500247 0.498288 0.075343
C41   C     C_1   0.824829 0.498814 0.500234 0.057309
C42   C     C_R   0.553866 0.072112 0.577884 -0.027699
Cu1   Cu    Cu3+1 0.500000 0.499980 0.640670 1.018689
Cu2   Cu    Cu3+1 0.500000 0.500020 0.359330 1.033967
H1    H     H_    0.533145 0.146574 0.787135 0.148898
H2    H     H_    0.159632 0.864649 0.563229 0.365617
H3    H     H_    0.490126 0.914791 0.049633 0.343768
H4    H     H_    0.593641 0.717513 0.868492 0.139652
H5    H     H_    0.580390 0.733230 0.121365 0.142466
H6    H     H_    0.948287 0.628924 0.313130 0.159726
H7    H     H_    0.950180 0.580321 0.726052 0.178977
H8    H     H_    0.411564 0.104988 0.321407 0.157007
H9    H     H_    0.149470 0.366103 0.104804 0.365307
H10   H     H_    0.804483 0.551301 0.204215 0.343430
H11   H     H_    0.837610 0.134354 0.433269 0.368445
N1    N     N_R   0.500530 0.500930 0.147930 -0.266159
N2    N     N_R   0.500530 0.500890 0.852020 -0.257820
N3    N     N_1   0.733388 0.871521 0.763517 -0.224605
N4    N     N_1   0.728915 0.218396 0.731440 -0.198575
N5    N     N_1   0.327292 0.298573 0.195841 -0.256083
N6    N     N_1   0.325126 0.301364 0.787865 -0.259066
N7    N     N_1   0.775129 0.594511 0.823099 -0.235172
N8    N     N_1   0.081582 0.293113 0.797819 -0.197613
N9    N     N_1   0.343707 0.808026 0.234288 -0.227049
O1    O     O_R   0.500000 0.319640 0.618810 -0.514654
O2    O     O_R   0.139188 0.399491 0.203149 -0.663813
O3    O     O_2   0.723924 0.733269 0.242909 -0.491957
O4    O     O_R   0.750480 0.543693 0.147705 -0.657069
O5    O     O_2   0.988018 0.170480 0.436672 -0.443408
O6    O     O_R   0.851106 0.225602 0.449404 -0.663458
O7    O     O_2   0.009427 0.826315 0.560828 -0.442406
O8    O     O_R   0.146736 0.773305 0.546499 -0.676289
O9    O     O_2   0.451701 0.865488 0.811727 -0.478444
O10   O     O_R   0.536842 0.944002 0.985711 -0.698680
O11   O     O_R   0.500010 0.319680 0.381230 -0.499277
O12   O     O_R   0.379070 0.499970 0.618770 -0.490500
O13   O     O_R   0.379080 0.500010 0.381190 -0.485621
O14   O     O_R   0.499990 0.680320 0.618770 -0.474881
O15   O     O_R   0.500000 0.680360 0.381190 -0.509723
O16   O     O_R   0.620920 0.499990 0.618810 -0.508896
O17   O     O_R   0.620930 0.500030 0.381230 -0.476887
O18   O     O_2   0.000312 0.375098 0.146650 -0.460097

loop_
_geom_bond_atom_site_label_1
_geom_bond_atom_site_label_2
_ccdc_geom_bond_type
C37   O10   S    
C9    H1    S    
C8    C26   S    
C19   C20   S    
C7    C8    S    
Cu1   O14   S    
C31   O3    D    
C9    C42   S    
C13   C29   S    
Cu2   O13   S    
C38   C39   S    
C22   C41   T    
C13   N2    A    
C20   C25   S    
C10   C17   S    
C5    C36   S    
C18   O17   A    
C1    C2    S    
C7    C42   A    
C33   O8    S    
C8    C9    S    
C1    O1    A    
C23   C24   S    
C10   N1    A    
H2    O8    S    
C34   C41   S    
C15   H4    S    
C19   C32   S    
C28   N5    T    
C31   O4    S    
C29   N6    T    
C24   C35   S    
C34   C39   S    
C1    O11   A    
Cu2   O17   S    
C10   C14   A    
C17   H5    S    
C20   C39   S    
C33   O7    D    
C32   O6    S    
Cu1   O16   S    
C12   C40   S    
Cu2   O11   S    
Cu1   Cu2   S    
Cu2   N1    S    
C23   H7    S    
Cu1   O1    S    
C23   C34   S    
C12   C20   S    
H9    O2    S    
C26   N3    T    
C6    C7    A    
C30   N7    T    
C25   O18   D    
C17   C31   S    
C8    C37   S    
C9    C27   S    
C15   C30   S    
Cu1   O12   S    
C15   C17   S    
C14   N2    A    
C37   O9    D    
C18   C22   S    
Cu2   O15   S    
C25   O2    S    
H3    O10   S    
C3    C5    A    
C19   C34   S    
C3    H8    S    
C32   O5    D    
C23   C38   S    
C12   C24   S    
C33   C38   S    
C16   O15   A    
C19   C24   S    
C4    O13   A    
C27   N4    T    
C4    C21   S    
C11   C13   A    
C5    C6    A    
C21   C40   T    
C11   C28   S    
C2    C42   A    
C2    C3    A    
C16   O14   A    
C12   C38   S    
C4    O12   A    
H11   O6    S    
Cu1   N2    S    
C6    C16   S    
C39   H6    S    
H10   O4    S    
C18   O16   A    
C14   C15   S    
C35   N8    T    
C36   N9    T    
C11   N1    A    
