data_mof_unit_47036.cif
_audit_creation_date              2012-12-10T17:37:47-0500
_audit_creation_method            fapswitch 2.2
_symmetry_space_group_name_H-M    P1
_symmetry_Int_Tables_number       1
_space_group_crystal_system       triclinic
_cell_length_a                    12.393635
_cell_length_b                    13.128965
_cell_length_c                    17.332579
_cell_angle_alpha                 106.030564
_cell_angle_beta                  74.879421
_cell_angle_gamma                 116.703359
_cell_volume                      2390.5990687

loop_
_atom_site_label
_atom_site_type_symbol
_atom_type_description
_atom_site_fract_x
_atom_site_fract_y
_atom_site_fract_z
_atom_type_partial_charge
C1    C     C_R   0.144674 0.714613 0.507318 0.765468
C2    C     C_R   0.914459 0.556956 0.796929 -0.204262
C3    C     C_R   0.960212 0.551846 0.162898 -0.141505
C4    C     C_R   0.952541 0.547371 0.243146 -0.193446
C5    C     C_R   0.105734 0.467439 0.202528 -0.195096
C6    C     C_R   0.112103 0.470330 0.121775 -0.172985
C7    C     C_R   0.037417 0.510029 0.101290 0.191981
C8    C     C_2   0.947301 0.499891 0.987219 -0.219723
C9    C     C_2   0.041451 0.505811 0.015202 -0.227297
C10   C     C_R   0.023922 0.503696 0.263424 -0.030001
C11   C     C_R   0.736073 0.963051 0.411949 -0.203215
C12   C     C_R   0.984984 0.499483 0.651597 0.767188
C13   C     C_R   0.774588 0.162022 0.475980 -0.046048
C14   C     C_R   0.186188 0.928225 0.549915 -0.011433
C15   C     C_R   0.265821 0.044286 0.553703 -0.189739
C16   C     C_R   0.389078 0.075624 0.524852 -0.192780
C17   C     C_R   0.436763 0.990770 0.489575 0.083162
C18   C     C_R   0.353815 0.873478 0.471514 0.041017
C19   C     C_R   0.564469 0.019508 0.471064 0.067218
C20   C     C_R   0.608958 0.933789 0.426955 0.102027
C21   C     C_R   0.525466 0.822115 0.397738 -0.057875
C22   C     C_R   0.400227 0.794444 0.417729 -0.232323
C23   C     C_R   0.856124 0.285702 0.489330 0.819437
C24   C     C_R   0.649145 0.131301 0.497594 -0.226334
C25   C     C_R   0.818070 0.076469 0.436195 -0.198140
C26   C     C_R   0.227611 0.839620 0.507595 -0.148804
C27   C     C_R   0.650535 0.685425 0.627026 0.380921
C28   C     C_R   0.255920 0.360574 0.382579 0.666738
C29   C     C_R   0.369850 0.356577 0.346463 -0.356214
C30   C     C_R   0.469566 0.418585 0.387084 -0.200503
C31   C     C_R   0.458149 0.480356 0.467024 0.020571
C32   C     C_R   0.348087 0.497658 0.495923 0.174004
C33   C     C_R   0.555600 0.534482 0.515432 -0.168789
C34   C     C_R   0.013770 0.498518 0.348169 0.803401
C35   C     C_R   0.548248 0.620440 0.585242 -0.054235
C36   C     C_R   0.439675 0.639306 0.613459 0.410480
C37   C     C_R   0.344275 0.580504 0.566521 -0.292313
C38   C     C_R   0.658350 0.504328 0.500130 0.103463
C39   C     C_R   0.746028 0.650088 0.609509 -0.034431
C40   C     C_R   0.973143 0.493880 0.736723 -0.085359
C41   C     C_R   0.018063 0.426260 0.759382 -0.053049
C42   C     C_R   0.008021 0.427238 0.841391 -0.190560
C43   C     C_R   0.953459 0.494108 0.900963 0.167892
C44   C     C_R   0.904075 0.556446 0.878514 -0.164011
Cu1   Cu    Cu3+1 0.900140 0.524980 0.518800 0.955049
Cu2   Cu    Cu3+1 0.099860 0.475020 0.481200 0.976117
H1    H     H_    0.173635 0.439524 0.075110 0.127479
H2    H     H_    0.915083 0.097634 0.422511 0.153947
H3    H     H_    0.772992 0.899333 0.379988 0.145604
H4    H     H_    0.619823 0.197021 0.535921 0.150325
H5    H     H_    0.444384 0.167512 0.530547 0.144373
H6    H     H_    0.233404 0.112059 0.583218 0.166600
H7    H     H_    0.340313 0.710991 0.388527 0.184316
H8    H     H_    0.818924 0.693178 0.645389 0.176205
H9    H     H_    0.891077 0.578879 0.289297 0.159877
H10   H     H_    0.556506 0.423075 0.351888 0.178391
H11   H     H_    0.384228 0.309399 0.285652 0.159257
H12   H     H_    0.269577 0.604380 0.583823 0.211043
H13   H     H_    0.163585 0.435744 0.217097 0.166206
H14   H     H_    0.122918 0.503708 0.973132 0.150280
H15   H     H_    0.860483 0.607269 0.924266 0.134597
H16   H     H_    0.906002 0.588771 0.149934 0.128970
H17   H     H_    0.878544 0.608655 0.781016 0.162909
H18   H     H_    0.865027 0.502182 0.027685 0.149027
H19   H     H_    0.041593 0.374794 0.858800 0.136348
N1    N     N_R   0.749710 0.562810 0.547300 -0.235426
N2    N     N_R   0.249640 0.437820 0.453210 -0.224964
O1    O     O_R   0.025490 0.682370 0.523640 -0.568241
O2    O     O_R   0.194150 0.640180 0.491890 -0.611031
O3    O     O_R   0.905900 0.523560 0.631310 -0.584345
O4    O     O_R   0.074570 0.481370 0.599560 -0.596441
O5    O     O_R   0.805850 0.359820 0.508110 -0.580701
O6    O     O_R   0.974510 0.317630 0.476360 -0.543372
O7    O     O_R   0.925430 0.518630 0.400440 -0.587930
O8    O     O_R   0.094100 0.476440 0.368690 -0.545863
C45   C     C_1   0.071425 0.352590 0.700564 0.253720
N3    N     N_1   0.114103 0.293547 0.653529 -0.297964
C46   C     C_1   0.565204 0.733539 0.346986 0.222219
N4    N     N_1   0.596965 0.662650 0.306396 -0.307130
C47   C     C_1   0.065708 0.906754 0.595795 0.247380
N5    N     N_1   0.970660 0.893368 0.634325 -0.325748
O9    O     O_3   0.433464 0.715174 0.687906 -0.579060
C48   C     C_3   0.318812 0.719665 0.722880 0.070463
H20   H     H_    0.316118 0.742832 0.789827 0.174122
H21   H     H_    0.239972 0.634532 0.713387 0.134436
C49   C     C_3   0.308291 0.816503 0.696347 -0.382985
H22   H     H_    0.381552 0.900941 0.717873 0.228335
H23   H     H_    0.322022 0.803236 0.629095 0.218303
C50   C     C_3   0.184272 0.822020 0.731257 -0.885344
H24   H     H_    0.110962 0.743975 0.703246 0.249212
H25   H     H_    0.184474 0.899957 0.717782 0.261894
H26   H     H_    0.164992 0.827892 0.798257 0.256318
O10   O     O_3   0.660272 0.784441 0.685027 -0.565675
C51   C     C_3   0.694550 0.877734 0.645035 0.120517
H27   H     H_    0.618542 0.865758 0.615854 0.158199
H28   H     H_    0.776219 0.885396 0.597018 0.137730
C52   C     C_3   0.724963 0.990677 0.707444 -0.302619
H29   H     H_    0.644110 0.984005 0.755735 0.228498
H30   H     H_    0.802255 0.004853 0.736097 0.235691
C53   C     C_3   0.760118 0.094339 0.668175 -0.922789
H31   H     H_    0.840824 0.102887 0.619574 0.270258
H32   H     H_    0.783559 0.175057 0.714790 0.259711
H33   H     H_    0.682227 0.083660 0.641845 0.257602
C54   C     C_1   0.662732 0.404091 0.440891 0.308209
N6    N     N_1   0.665512 0.323401 0.393111 -0.305779
O11   O     O_3   0.153391 0.301859 0.343636 -0.586025
C55   C     C_3   0.145016 0.193550 0.294062 0.008277
H34   H     H_    0.048641 0.130470 0.304901 0.164268
H35   H     H_    0.199541 0.155714 0.309396 0.129500
C56   C     C_3   0.175488 0.202788 0.204036 -0.358593
H36   H     H_    0.105537 0.222149 0.189066 0.225338
H37   H     H_    0.265946 0.274716 0.191315 0.212206
C57   C     C_3   0.176675 0.090004 0.149407 -0.895933
H38   H     H_    0.248245 0.070327 0.161712 0.257589
H39   H     H_    0.197019 0.098781 0.084686 0.256043
H40   H     H_    0.086096 0.017087 0.160031 0.256503

loop_
_geom_bond_atom_site_label_1
_geom_bond_atom_site_label_2
_ccdc_geom_bond_type
O10   C51   S    
C41   C42   A    
C19   C20   A    
C18   C26   A    
C16   H5    S    
C52   H29   S    
Cu1   Cu2   S    
C48   H20   S    
C28   C29   A    
C3    C7    A    
C5    C6    A    
C49   H23   S    
C39   H8    S    
O11   C55   S    
C11   C25   A    
C15   C16   A    
C1    O1    A    
C13   C23   S    
C36   O9    S    
C56   H36   S    
C54   N6    T    
Cu2   O2    S    
C38   C54   S    
C17   C19   A    
C38   N1    A    
C2    C44   A    
C8    C9    D    
C21   C46   S    
C42   H19   S    
C55   H34   S    
C8    C43   S    
C14   C47   S    
C50   H25   S    
C37   H12   S    
C34   O8    A    
C57   H40   S    
C21   C22   A    
Cu1   O5    S    
C55   H35   S    
C13   C25   A    
C23   O6    A    
C53   H32   S    
Cu2   O8    S    
C52   H30   S    
C22   H7    S    
C24   H4    S    
C11   C20   A    
C6    H1    S    
C5    H13   S    
C27   C39   A    
C28   N2    A    
C45   N3    T    
C28   O11   S    
C49   H22   S    
C16   C17   A    
C51   C52   S    
C27   C35   A    
C15   H6    S    
C30   H10   S    
C53   H33   S    
C1    O2    A    
C13   C24   A    
Cu1   O7    S    
C35   C36   A    
C12   C40   S    
C43   C44   A    
C29   C30   A    
C11   H3    S    
C31   C32   A    
C25   H2    S    
Cu1   O1    S    
C31   C33   A    
C17   C18   A    
C10   C34   S    
C32   C37   A    
C14   C26   A    
C50   H26   S    
C51   H28   S    
C56   C57   S    
Cu2   O4    S    
C34   O7    A    
C32   N2    A    
C40   C41   A    
C48   H21   S    
C12   O4    A    
C8    H18   S    
C4    H9    S    
C1    C26   S    
C39   N1    A    
C27   O10   S    
C42   C43   A    
C4    C10   A    
C3    C4    A    
C52   C53   S    
C2    H17   S    
C57   H38   S    
C3    H16   S    
C7    C9    S    
C12   O3    A    
C36   C37   A    
Cu1   O3    S    
C18   C22   A    
C23   O5    A    
C29   H11   S    
C47   N5    T    
C49   C50   S    
C6    C7    A    
C44   H15   S    
C33   C38   A    
C55   C56   S    
C9    H14   S    
C19   C24   A    
Cu2   N2    S    
C41   C45   S    
C46   N4    T    
C30   C31   A    
C53   H31   S    
C33   C35   A    
C51   H27   S    
C56   H37   S    
C2    C40   A    
C5    C10   A    
C48   C49   S    
C20   C21   A    
O9    C48   S    
Cu1   N1    S    
C14   C15   A    
C50   H24   S    
Cu2   O6    S    
C57   H39   S    
