data_mof_unit_66593.cif
_audit_creation_date              2013-03-05T15:52:21-0500
_audit_creation_method            fapswitch 2.2
_symmetry_space_group_name_H-M    P1
_symmetry_Int_Tables_number       1
_space_group_crystal_system       triclinic
_cell_length_a                    14.360261
_cell_length_b                    15.903335
_cell_length_c                    10.104835
_cell_angle_alpha                 91.009926
_cell_angle_beta                  90.841561
_cell_angle_gamma                 90.941014
_cell_volume                      2306.77363546

loop_
_atom_site_label
_atom_site_type_symbol
_atom_site_description
_atom_site_fract_x
_atom_site_fract_y
_atom_site_fract_z
_atom_type_partial_charge
O1    O     O_R   0.408390 0.908380 0.614690 -0.564998
O2    O     O_R   0.408390 0.091620 0.614690 -0.571450
O3    O     O_R   0.908390 0.408380 0.614690 -0.590674
O4    O     O_R   0.908390 0.591620 0.614690 -0.562563
O5    O     O_R   0.408370 0.908380 0.385360 -0.499640
O6    O     O_R   0.408370 0.091620 0.385360 -0.555420
O7    O     O_R   0.908370 0.408380 0.385360 -0.569989
O8    O     O_R   0.908370 0.591620 0.385360 -0.521066
C1    C     C_R   0.394479 0.870674 0.498821 0.926990
C2    C     C_R   0.387102 0.126100 0.502152 0.951716
C3    C     C_R   0.898989 0.369394 0.500397 0.880216
C4    C     C_R   0.880195 0.620611 0.501078 0.920702
Zn1   Zn    Zn3+2 0.500010 0.000000 0.653130 1.012794
Zn2   Zn    Zn3+2 0.000010 0.500000 0.653130 1.015994
Zn3   Zn    Zn3+2 0.499980 0.000000 0.346870 1.072680
Zn4   Zn    Zn3+2 0.999980 0.500000 0.346870 1.067116
O9    O     O_R   0.591620 0.091610 0.614640 -0.568138
O10   O     O_R   0.591620 0.908390 0.614640 -0.626486
O11   O     O_R   0.091620 0.591610 0.614640 -0.552287
O12   O     O_R   0.091620 0.408390 0.614640 -0.615027
O13   O     O_R   0.591610 0.091610 0.385310 -0.578024
O14   O     O_R   0.591610 0.908390 0.385310 -0.590175
O15   O     O_R   0.091610 0.591610 0.385310 -0.545516
O16   O     O_R   0.091610 0.408390 0.385310 -0.581388
C5    C     C_R   0.623877 0.118035 0.500539 0.954931
C6    C     C_R   0.624075 0.885152 0.499881 0.949110
C7    C     C_R   0.114940 0.624753 0.501867 0.946998
C8    C     C_R   0.126771 0.386864 0.499141 0.922077
C9    C     C_R   0.364196 0.245891 0.751305 -0.199079
C10   C     C_R   0.368367 0.766303 0.735339 -0.205390
C11   C     C_R   0.831656 0.722784 0.749219 -0.199184
C12   C     C_R   0.857909 0.270429 0.751877 -0.265301
H1    H     H_    0.397549 0.188662 0.777318 0.211920
H2    H     H_    0.441498 0.781659 0.726119 0.152528
H3    H     H_    0.839502 0.659581 0.780151 0.230127
H4    H     H_    0.930384 0.289794 0.759682 0.174040
C13   C     C_R   0.368206 0.312749 0.846033 0.476954
C14   C     C_R   0.326265 0.764376 0.860183 0.512238
C15   C     C_R   0.841646 0.785507 0.847926 0.481234
C16   C     C_R   0.808378 0.246571 0.864958 0.492009
C17   C     C_R   0.822229 0.868150 0.816262 -0.384429
C18   C     C_R   0.711386 0.235221 0.851118 -0.275911
C19   C     C_R   0.330176 0.389446 0.815081 -0.349190
C20   C     C_R   0.230350 0.746860 0.864551 -0.373549
H5    H     H_    0.833384 0.916487 0.891706 0.169090
H6    H     H_    0.668972 0.226362 0.936227 0.155528
H7    H     H_    0.341490 0.442709 0.881393 0.164822
H8    H     H_    0.194459 0.752778 0.957715 0.190882
C21   C     C_R   0.784253 0.887675 0.691149 0.526425
C22   C     C_R   0.669210 0.233790 0.725321 0.539411
C23   C     C_R   0.281770 0.399762 0.697214 0.523027
C24   C     C_R   0.178839 0.727856 0.748338 0.569728
C25   C     C_R   0.763081 0.820556 0.600325 -0.091780
C26   C     C_R   0.727354 0.224143 0.616253 -0.114287
C27   C     C_R   0.267476 0.330264 0.609635 -0.091811
C28   C     C_R   0.224649 0.722672 0.625347 -0.079498
C29   C     C_R   0.321366 0.257425 0.624943 -0.093867
C30   C     C_R   0.314607 0.756598 0.618920 -0.130825
C31   C     C_R   0.803922 0.742396 0.618534 -0.115228
C32   C     C_R   0.814764 0.261769 0.626758 -0.103956
C33   C     C_R   0.337371 0.207514 0.507362 -0.279555
C34   C     C_R   0.344367 0.789229 0.497882 -0.308992
C35   C     C_R   0.813454 0.688954 0.503954 -0.258479
C36   C     C_R   0.857009 0.284807 0.509631 -0.276755
C37   C     C_R   0.316400 0.245303 0.385674 0.380915
C38   C     C_R   0.302423 0.759654 0.380024 0.407030
C39   C     C_R   0.761406 0.705168 0.387123 0.393120
C40   C     C_R   0.849326 0.226864 0.404797 0.414117
C41   C     C_R   0.688059 0.760540 0.401202 0.365780
C42   C     C_R   0.772837 0.170332 0.401214 0.378038
C43   C     C_R   0.242177 0.300818 0.377253 0.410655
C44   C     C_R   0.212544 0.725986 0.384761 0.400786
C45   C     C_R   0.696358 0.824623 0.497433 -0.256462
C46   C     C_R   0.704494 0.176110 0.501502 -0.295175
C47   C     C_R   0.210726 0.336482 0.496042 -0.260593
C48   C     C_R   0.179334 0.696822 0.505850 -0.302523
C49   C     C_R   0.321410 0.004005 0.128091 0.423443
C50   C     C_R   0.831339 0.458833 0.134560 0.440852
C51   C     C_R   0.243984 0.035467 0.054385 0.315483
C52   C     C_R   0.760381 0.417370 0.058785 0.373891
C53   C     C_R   0.257386 0.060337 0.926816 -0.071687
C54   C     C_R   0.745453 0.451935 0.937526 -0.023360
C55   C     C_R   0.328509 0.022176 0.858155 0.497648
C56   C     C_R   0.823823 0.477634 0.863068 0.476598
C57   C     C_R   0.415399 0.006714 0.925204 -0.056344
C58   C     C_R   0.915760 0.483801 0.926441 -0.077283
C59   C     C_R   0.414053 0.003222 0.069183 -0.127520
C60   C     C_R   0.917299 0.480545 0.070470 -0.145328
N1    N     N_R   0.498810 0.000000 0.142780 -0.118719
N2    N     N_R   0.998810 0.500000 0.142780 -0.116406
C61   C     C_R   0.579476 0.995746 0.072004 0.572259
C62   C     C_R   0.078843 0.515618 0.074102 0.581718
H9    H     H_    0.644555 0.994363 0.878768 0.190741
H10   H     H_    0.140667 0.531000 0.878064 0.186755
C63   C     C_R   0.579132 0.997047 0.930252 -0.254609
C64   C     C_R   0.077850 0.516018 0.930895 -0.247078
N3    N     N_R   0.498740 0.000000 0.857170 -0.112382
N4    N     N_R   0.998740 0.500000 0.857170 -0.097073
O17   O     O_3   0.380736 0.242136 0.285554 -0.594952
C65   C     C_3   0.342935 0.194778 0.179521 -0.104268
H11   H     H_    0.306485 0.234617 0.108942 0.227204
H12   H     H_    0.292139 0.147645 0.213437 0.159156
H13   H     H_    0.400386 0.163680 0.127534 0.155517
O18   O     O_3   0.349542 0.764474 0.261838 -0.543180
C66   C     C_3   0.351768 0.683087 0.201724 -0.107621
H14   H     H_    0.296501 0.677172 0.124388 0.226824
H15   H     H_    0.344190 0.630129 0.272095 0.078651
H16   H     H_    0.419960 0.673963 0.154628 0.152176
O19   O     O_3   0.781442 0.661463 0.269627 -0.578918
C67   C     C_3   0.723952 0.677191 0.158966 -0.171990
H17   H     H_    0.723464 0.744449 0.136447 0.179578
H18   H     H_    0.652744 0.650766 0.170842 0.163363
H19   H     H_    0.753151 0.643945 0.071945 0.190557
O20   O     O_3   0.919040 0.219201 0.313261 -0.585984
C68   C     C_3   0.998104 0.184814 0.376439 -0.377314
H20   H     H_    0.034979 0.144967 0.303785 0.205691
H21   H     H_    0.982247 0.144001 0.462128 0.134137
H22   H     H_    0.045428 0.236057 0.412424 0.158549
C69   C     C_3   0.191509 0.120251 0.860055 -0.818933
H23   H     H_    0.188961 0.179811 0.918575 0.231756
H24   H     H_    0.214958 0.135788 0.759267 0.249656
H25   H     H_    0.120324 0.093095 0.849983 0.224878
C70   C     C_3   0.646588 0.479762 0.907244 -0.861308
H26   H     H_    0.647349 0.546001 0.874264 0.224413
H27   H     H_    0.611924 0.437820 0.832411 0.232583
H28   H     H_    0.601821 0.479569 0.995915 0.259670
O21   O     O_3   0.310259 0.998631 0.728773 -0.525476
C71   C     C_3   0.225111 0.952831 0.712898 -0.278875
H29   H     H_    0.166871 0.995178 0.689913 0.143511
H30   H     H_    0.208662 0.913524 0.799670 0.148584
H31   H     H_    0.229930 0.910703 0.625618 0.163399
O22   O     O_3   0.808552 0.514708 0.742926 -0.565201
C72   C     C_3   0.739570 0.475735 0.660023 -0.247738
H32   H     H_    0.675142 0.513147 0.658422 0.133011
H33   H     H_    0.726515 0.408925 0.683648 0.163753
H34   H     H_    0.764010 0.477049 0.557757 0.168986
O23   O     O_3   0.403748 0.305729 0.973032 -0.635499
C73   C     C_3   0.496207 0.279177 0.973769 -0.223873
H35   H     H_    0.540393 0.322269 0.916143 0.218439
H36   H     H_    0.501382 0.212559 0.940486 0.157826
H37   H     H_    0.522786 0.282437 0.077299 0.230150
O24   O     O_3   0.370523 0.792575 0.976719 -0.580434
C74   C     C_3   0.468500 0.785916 0.974081 -0.313675
H38   H     H_    0.500054 0.835307 0.912346 0.170529
H39   H     H_    0.490118 0.722136 0.940826 0.124999
H40   H     H_    0.496275 0.796705 0.075900 0.226122
O25   O     O_3   0.859940 0.766786 0.978953 -0.657250
C75   C     C_3   0.945760 0.725840 0.992807 -0.247456
H41   H     H_    0.004215 0.771039 0.978474 0.184896
H42   H     H_    0.952760 0.670236 0.926326 0.193303
H43   H     H_    0.950798 0.701772 0.094760 0.206223
O26   O     O_3   0.849341 0.240398 0.989886 -0.603437
C76   C     C_3   0.941547 0.210952 0.983507 -0.273306
H44   H     H_    0.990944 0.264149 0.967411 0.145109
H45   H     H_    0.949702 0.160614 0.906629 0.122960
H46   H     H_    0.960347 0.182748 0.079229 0.247323
O27   O     O_3   0.765573 0.969999 0.655568 -0.615758
C77   C     C_3   0.835710 0.026961 0.702550 -0.402237
H47   H     H_    0.906970 0.000480 0.696855 0.143171
H48   H     H_    0.820387 0.048653 0.804890 0.196194
H49   H     H_    0.835966 0.082868 0.639515 0.193950
O28   O     O_3   0.573675 0.242485 0.711574 -0.627525
C78   C     C_3   0.551379 0.301138 0.611628 -0.352045
H50   H     H_    0.520634 0.267360 0.524314 0.198021
H51   H     H_    0.610300 0.340668 0.577046 0.121217
H52   H     H_    0.499674 0.345861 0.650089 0.182415
O29   O     O_3   0.258991 0.480331 0.660634 -0.594790
C79   C     C_3   0.334194 0.513835 0.588678 -0.364165
H53   H     H_    0.350076 0.474170 0.500171 0.170707
H54   H     H_    0.397432 0.522347 0.652845 0.155449
H55   H     H_    0.315255 0.576375 0.551964 0.190678
O30   O     O_3   0.082722 0.728484 0.753069 -0.597137
C80   C     C_3   0.050866 0.805911 0.703649 -0.400973
H56   H     H_    0.092374 0.831802 0.621432 0.131270
H57   H     H_    0.047144 0.853299 0.785308 0.162581
H58   H     H_    0.980873 0.796267 0.659978 0.204987
O31   O     O_3   0.602470 0.742602 0.341672 -0.620986
C81   C     C_3   0.553031 0.688569 0.426553 -0.333993
H59   H     H_    0.533761 0.721960 0.519540 0.154323
H60   H     H_    0.592696 0.631181 0.450499 0.129086
H61   H     H_    0.488204 0.666778 0.376748 0.194833
O32   O     O_3   0.765802 0.111308 0.299640 -0.544014
C82   C     C_3   0.812954 0.037977 0.337413 -0.091634
H62   H     H_    0.762481 0.992182 0.378238 0.179422
H63   H     H_    0.870353 0.048291 0.411111 0.088482
H64   H     H_    0.845044 0.009802 0.248243 0.166254
O33   O     O_3   0.219179 0.336169 0.256667 -0.566488
C83   C     C_3   0.150138 0.286814 0.188409 -0.332897
H65   H     H_    0.079246 0.309025 0.209704 0.231690
H66   H     H_    0.153962 0.218578 0.208241 0.160480
H67   H     H_    0.159239 0.294731 0.080570 0.159406
O34   O     O_3   0.158865 0.722605 0.269652 -0.558803
C84   C     C_3   0.079143 0.772847 0.286379 -0.333603
H68   H     H_    0.087778 0.824334 0.362231 0.100844
H69   H     H_    0.018299 0.732951 0.312479 0.200303
H70   H     H_    0.063513 0.803896 0.191684 0.165189
O35   O     O_3   0.662658 0.987581 0.139100 -0.564881
C85   C     C_3   0.689654 0.903246 0.124905 -0.325894
H71   H     H_    0.704731 0.886597 0.020666 0.155754
H72   H     H_    0.634815 0.859700 0.160843 0.197332
H73   H     H_    0.753720 0.893038 0.184369 0.181807
O36   O     O_3   0.158635 0.535304 0.148389 -0.557731
C86   C     C_3   0.239001 0.500452 0.092598 -0.269583
H74   H     H_    0.267931 0.543228 0.017351 0.121362
H75   H     H_    0.225804 0.436470 0.049435 0.190837
H76   H     H_    0.292507 0.494222 0.171898 0.212133
O37   O     O_3   0.310164 0.992132 0.261686 -0.543374
C87   C     C_3   0.226515 0.949327 0.294436 -0.126693
H77   H     H_    0.203739 0.902494 0.217057 0.173311
H78   H     H_    0.171913 0.994743 0.321126 0.159364
H79   H     H_    0.236414 0.915304 0.387159 0.112583
O38   O     O_3   0.812503 0.495628 0.256772 -0.520899
C88   C     C_3   0.718756 0.493285 0.299540 -0.140053
H80   H     H_    0.702293 0.433577 0.348451 0.125982
H81   H     H_    0.667638 0.509023 0.220880 0.163738
H82   H     H_    0.710145 0.541200 0.378182 0.139689
O39   O     O_3   0.161486 0.057249 0.115344 -0.624181
C89   C     C_3   0.086824 0.004205 0.069445 -0.366919
H83   H     H_    0.107615 0.950461 0.004351 0.149827
H84   H     H_    0.034605 0.041997 0.016357 0.180814
H85   H     H_    0.050795 0.977491 0.155891 0.161489
O40   O     O_3   0.686281 0.372808 0.113112 -0.654415
C90   C     C_3   0.717501 0.306431 0.191740 -0.207775
H86   H     H_    0.791322 0.313484 0.222371 0.211059
H87   H     H_    0.707471 0.245447 0.139683 0.227757
H88   H     H_    0.673708 0.302629 0.280952 0.138189

loop_
_geom_bond_atom_site_label_1
_geom_bond_atom_site_label_2
_geom_bond_distance
_ccdc_geom_bond_type
C30   C34   1.406511 A    
C74   H40   1.107511 S    
C20   H8    1.083274 S    
C86   H74   1.109850 S    
Zn4   N2    2.062117 S    
O27   C77   1.414661 S    
C28   C48   1.414619 A    
C50   O38   1.389310 S    
C22   O28   1.386324 S    
C60   N2    1.398124 A    
C23   O29   1.382865 S    
C78   H50   1.107247 S    
O10   C6    1.305727 A    
C75   H43   1.107121 S    
C44   C48   1.403425 A    
C19   C23   1.383822 A    
C71   H29   1.106920 S    
C24   O30   1.381980 S    
C50   C52   1.413019 A    
O20   C68   1.416736 S    
C25   C31   1.397038 A    
C90   H88   1.108655 S    
C70   H26   1.110386 S    
C15   C17   1.389883 A    
C26   C32   1.383517 A    
C88   H80   1.102002 S    
O7    C3    1.334565 A    
C86   H75   1.112253 S    
C16   O26   1.390586 S    
O5    C1    1.319420 A    
C22   C26   1.400221 A    
Zn1   O10   2.015566 S    
C89   H85   1.109214 S    
C83   H67   1.108541 S    
C12   H4    1.081869 S    
C78   H51   1.110050 S    
C56   C58   1.459940 A    
C49   O37   1.377853 S    
C58   C60   1.457081 A    
C70   H27   1.106691 S    
C68   H20   1.107717 S    
C9    H1    1.070458 S    
C62   C64   1.447070 A    
C6    C45   1.427393 S    
C10   C14   1.407510 A    
Zn2   O12   2.015566 S    
C83   H66   1.109105 S    
C5    C46   1.468867 S    
C18   H6    1.071119 S    
C11   C31   1.415241 A    
O2    Zn1   2.018131 S    
O32   C82   1.413604 S    
C77   H49   1.102810 S    
C41   O31   1.383677 S    
O6    Zn3   2.015682 S    
C26   C46   1.408970 A    
C89   H84   1.107102 S    
C42   O32   1.380097 S    
Zn3   O14   2.018109 S    
C38   C44   1.391007 A    
O25   C75   1.409588 S    
C28   C30   1.394606 A    
C87   H77   1.112232 S    
C68   H21   1.115175 S    
C64   N4    1.367269 A    
C42   C46   1.423906 A    
C72   H34   1.096657 S    
C41   C45   1.398601 A    
C85   H71   1.106883 S    
O15   C7    1.318321 A    
O4    C4    1.305991 A    
O11   C7    1.309634 A    
C27   C47   1.403790 A    
C84   H70   1.106255 S    
C16   C18   1.406135 A    
O8    Zn4   2.015682 S    
C13   O23   1.381129 S    
C77   H48   1.110611 S    
C14   O24   1.393476 S    
C21   O27   1.393055 S    
O40   C90   1.407568 S    
C17   C21   1.411127 A    
O18   C66   1.421096 S    
C86   H76   1.108837 S    
C39   O19   1.401076 S    
Zn2   N4    2.062139 S    
C69   H24   1.108101 S    
C66   H16   1.105632 S    
C35   C39   1.417734 A    
O36   C86   1.409265 S    
C10   H2    1.080034 S    
C57   C59   1.457326 A    
O37   C87   1.417263 S    
C81   H59   1.111901 S    
C78   H52   1.106479 S    
O1    C1    1.317118 A    
C75   H41   1.108941 S    
C37   O17   1.380882 S    
C90   H86   1.103355 S    
C52   C54   1.367251 A    
C3    C36   1.470099 S    
C73   H35   1.105435 S    
C82   H64   1.108950 S    
C43   O33   1.388642 S    
O29   C79   1.413029 S    
C51   C53   1.370375 A    
C4    C35   1.461046 S    
C34   C38   1.397220 A    
O22   C72   1.415762 S    
C70   H28   1.110428 S    
O12   C8    1.320231 A    
C84   H69   1.109041 S    
O39   C89   1.420620 S    
C80   H56   1.110668 S    
C52   O40   1.393547 S    
C56   O22   1.375214 S    
C65   H13   1.103701 S    
C67   H17   1.097593 S    
C83   H65   1.105891 S    
C39   C41   1.391248 A    
C77   H47   1.114844 S    
C13   C19   1.383514 A    
C82   H62   1.108147 S    
C14   C20   1.402235 A    
C38   O18   1.383901 S    
Zn3   N1    2.062117 S    
C66   H15   1.116764 S    
N2    C62   1.372700 A    
O17   C65   1.396764 S    
O8    C4    1.320828 A    
C68   H22   1.105553 S    
C85   H73   1.107209 S    
C65   H12   1.099928 S    
C49   C51   1.431207 A    
C27   C29   1.413109 A    
O26   C76   1.413684 S    
C76   H46   1.105099 S    
H10   C64   1.080313 S    
O3    Zn2   1.976619 S    
C67   H19   1.109196 S    
C76   H45   1.114393 S    
C80   H57   1.110132 S    
C73   H36   1.109872 S    
C18   C22   1.399672 A    
C75   H42   1.107856 S    
C87   H78   1.107770 S    
O7    Zn4   1.994244 S    
C55   C57   1.437890 A    
C9    C29   1.425215 A    
O31   C81   1.414893 S    
Zn4   O15   1.976595 S    
C54   C56   1.421379 A    
C59   N1    1.419123 A    
C72   H32   1.108263 S    
C11   H3    1.065114 S    
C2    C33   1.489382 S    
N1    C61   1.372267 A    
C12   C32   1.403333 A    
C9    C13   1.417960 A    
C7    C48   1.460408 S    
O2    C2    1.305594 A    
C71   H31   1.101806 S    
C36   C40   1.393663 A    
C54   C70   1.522421 S    
C62   O36   1.388916 S    
O30   C80   1.417167 S    
C51   O39   1.389358 S    
O28   C78   1.423397 S    
C66   H14   1.107311 S    
C80   H58   1.099115 S    
C50   C60   1.442132 A    
C74   H39   1.113346 S    
O13   C5    1.306737 A    
C63   N3    1.363186 A    
C79   H53   1.113830 S    
Zn2   O11   1.994127 S    
C25   C45   1.406546 A    
O16   C8    1.302958 A    
C55   O21   1.373897 S    
C73   H37   1.108388 S    
C71   H30   1.111714 S    
C53   C55   1.385337 A    
C81   H60   1.112092 S    
C69   H23   1.109162 S    
C90   H87   1.101475 S    
C29   C33   1.440586 A    
C88   H82   1.100943 S    
O3    C3    1.305324 A    
O23   C73   1.399805 S    
C53   C69   1.513751 S    
C31   C35   1.433669 A    
C1    C34   1.471174 S    
Zn1   O9    1.994127 S    
C32   C36   1.390012 A    
O9    C5    1.321702 A    
O34   C84   1.417254 S    
C82   H63   1.110910 S    
C74   H38   1.106956 S    
C88   H81   1.108687 S    
O33   C83   1.417770 S    
O4    Zn2   2.018131 S    
C37   C43   1.397722 A    
O19   C67   1.408562 S    
C43   C47   1.402435 A    
C20   C24   1.404342 A    
C89   H83   1.116533 S    
H9    C63   1.081667 S    
C87   H79   1.098788 S    
C21   C25   1.421506 A    
C10   C30   1.402399 A    
C79   H54   1.113104 S    
C65   H11   1.095396 S    
C69   H25   1.105767 S    
C11   C15   1.402302 A    
C23   C27   1.414076 A    
C12   C16   1.409203 A    
C33   C37   1.408894 A    
Zn1   N3    2.062139 S    
O35   C85   1.407703 S    
C58   N4    1.413164 A    
C67   H18   1.108122 S    
O5    Zn3   1.994244 S    
C81   H61   1.099789 S    
C57   N3    1.393599 A    
O6    C2    1.334179 A    
C61   C63   1.432833 A    
C61   O35   1.373981 S    
C24   C28   1.416445 A    
Zn3   O13   1.976595 S    
O1    Zn1   1.976619 S    
O38   C88   1.420038 S    
C49   C59   1.465587 A    
Zn4   O16   2.018109 S    
C84   H68   1.115823 S    
O14   C6    1.303506 A    
C15   O25   1.384515 S    
C72   H33   1.106689 S    
C40   C42   1.407600 A    
C17   H5    1.081429 S    
O24   C74   1.413288 S    
C85   H72   1.109507 S    
C79   H55   1.104422 S    
C76   H44   1.110812 S    
C8    C47   1.458921 S    
C19   H7    1.079443 S    
C44   O34   1.385679 S    
O21   C71   1.418530 S    
C40   O20   1.378343 S    
