data_mof_unit_43408.cif
_audit_creation_date              2012-10-26T19:20:33-0400
_audit_creation_method            fapswitch 2.2
_symmetry_space_group_name_H-M    P1
_symmetry_Int_Tables_number       1
_space_group_crystal_system       triclinic
_cell_length_a                    10.711063
_cell_length_b                    11.034802
_cell_length_c                    9.832544
_cell_angle_alpha                 111.323431
_cell_angle_beta                  99.084636
_cell_angle_gamma                 90.771462
_cell_volume                      1065.83612354

loop_
_atom_site_label
_atom_site_type_symbol
_atom_type_description
_atom_site_fract_x
_atom_site_fract_y
_atom_site_fract_z
_atom_type_partial_charge
C1    C     C_R   0.488089 0.253961 0.440590 0.590513
C2    C     C_R   0.737689 0.480527 0.497654 0.585251
C3    C     C_R   0.164921 0.359084 0.690402 0.154196
C4    C     C_R   0.820391 0.284595 0.232670 0.161254
C5    C     C_R   0.143656 0.383717 0.833368 -0.162285
C6    C     C_R   0.853640 0.233901 0.092747 -0.177783
C7    C     C_R   0.035215 0.440868 0.875905 -0.127316
C8    C     C_R   0.977685 0.248702 0.075731 -0.157452
C9    C     C_R   0.936546 0.451501 0.768701 0.291266
C10   C     C_R   0.073830 0.303087 0.200781 0.286643
C11   C     C_R   0.961369 0.439544 0.624099 -0.022023
C12   C     C_R   0.509340 0.746115 0.559653 0.557212
C13   C     C_R   0.039121 0.373179 0.342062 -0.023550
C14   C     C_R   0.087733 0.414399 0.601365 -0.016772
C15   C     C_R   0.907990 0.370773 0.354423 -0.022538
C16   C     C_R   0.870780 0.435676 0.495079 -0.025808
C17   C     C_R   0.128257 0.424253 0.476895 -0.013255
C18   C     C_3   0.175714 0.141313 0.516038 -0.309560
C19   C     C_3   0.752773 0.124585 0.323792 -0.304584
C20   C     C_3   0.775921 0.359756 0.838711 -0.119336
C21   C     C_3   0.213035 0.146394 0.107638 -0.132871
C22   C     C_2   0.479377 0.114555 0.407552 -0.127407
C23   C     C_2   0.515670 0.885726 0.593597 -0.133818
C24   C     C_2   0.504011 0.069841 0.517068 -0.179513
C25   C     C_2   0.497001 0.930615 0.483892 -0.174085
C26   C     C_2   0.508022 0.514343 0.083351 -0.040975
C27   C     C_2   0.489628 0.490232 0.919297 -0.052506
C28   C     C_R   0.263081 0.473345 0.492224 0.602986
Cu1   Cu    Cu3+1 0.521920 0.521810 0.644910 0.974229
Cu2   Cu    Cu3+1 0.478080 0.478190 0.355090 0.975710
H1    H     H_    0.000481 0.203459 0.965925 0.108885
H2    H     H_    0.576076 0.592700 0.159065 0.148834
H3    H     H_    0.621800 0.625899 0.935943 0.223172
H4    H     H_    0.386633 0.367265 0.062403 0.212107
H5    H     H_    0.307462 0.235932 0.702586 0.226536
H6    H     H_    0.125167 0.160627 0.419485 0.158492
H7    H     H_    0.242033 0.065578 0.475125 0.149949
H8    H     H_    0.106178 0.102007 0.565363 0.127711
H9    H     H_    0.643960 0.183457 0.166866 0.248165
H10   H     H_    0.686948 0.035159 0.271423 0.122123
H11   H     H_    0.750394 0.166910 0.444386 0.157269
H12   H     H_    0.018796 0.457828 0.986972 0.139211
H13   H     H_    0.850003 0.094182 0.308863 0.135841
H14   H     H_    0.779639 0.391588 0.959841 0.131015
H15   H     H_    0.828300 0.270624 0.796560 0.080058
H16   H     H_    0.675776 0.330960 0.785882 0.165629
H17   H     H_    0.190087 0.123424 0.986374 0.096111
H18   H     H_    0.155532 0.080220 0.140647 0.103773
H19   H     H_    0.313502 0.126660 0.130871 0.143242
H20   H     H_    0.204236 0.348313 0.907042 0.111707
H21   H     H_    0.785610 0.171547 0.998395 0.097316
H22   H     H_    0.476009 0.864401 0.368491 0.154692
H23   H     H_    0.528721 0.136013 0.632107 0.135601
H24   H     H_    0.535836 0.952223 0.708855 0.089265
H25   H     H_    0.454938 0.047740 0.292847 0.078456
H26   H     H_    0.418839 0.415918 0.845763 0.149501
N1    N     N_2   0.445130 0.445420 0.137360 -0.341521
N2    N     N_2   0.554870 0.554580 0.862640 -0.335036
N3    N     N_2   0.244845 0.258929 0.626240 -0.494421
N4    N     N_2   0.715805 0.220027 0.257748 -0.478397
O1    O     O_R   0.511700 0.332340 0.577400 -0.509251
O2    O     O_3   0.199420 0.279609 0.187811 -0.541049
O3    O     O_R   0.488300 0.667660 0.422600 -0.502261
O4    O     O_R   0.474680 0.295500 0.332650 -0.476947
O5    O     O_R   0.525320 0.704500 0.667350 -0.495362
O6    O     O_R   0.338170 0.518410 0.622370 -0.488963
O7    O     O_R   0.661830 0.481590 0.377630 -0.488606
O8    O     O_R   0.301150 0.481570 0.377630 -0.434999
O9    O     O_R   0.698850 0.518430 0.622370 -0.426251
O10   O     O_3   0.818345 0.467302 0.807852 -0.537417

loop_
_geom_bond_atom_site_label_1
_geom_bond_atom_site_label_2
_ccdc_geom_bond_type
H4    N1    S    
C28   O6    A    
C1    O4    A    
C26   H2    S    
H3    N2    S    
Cu2   O4    S    
C19   N4    S    
C2    O9    A    
C2    C16   S    
C12   O5    A    
C20   H15   S    
C14   C17   A    
C13   C17   A    
C3    C5    A    
C21   H18   S    
C4    N4    S    
C4    C15   A    
C21   H19   S    
C18   H8    S    
C25   H22   S    
C19   H11   S    
C1    C22   S    
Cu1   O1    S    
Cu2   O8    S    
Cu2   O3    S    
Cu1   N2    S    
C9    C11   A    
C12   C23   S    
C20   O10   S    
C26   C27   S    
C10   O2    S    
C3    C14   A    
Cu1   O5    S    
H9    N4    S    
C8    C10   A    
C28   O8    A    
C18   H7    S    
C19   H13   S    
C10   C13   A    
Cu1   O9    S    
C13   C15   A    
C6    H21   S    
C26   N1    D    
C22   C24   D    
C5    H20   S    
C4    C6    A    
C19   H10   S    
Cu1   Cu2   S    
Cu1   O6    S    
Cu2   N1    S    
C7    C9    A    
C18   N3    S    
C23   C25   D    
C24   C25   S    
C23   H24   S    
H5    N3    S    
C2    O7    A    
C11   C16   A    
C7    H12   S    
C11   C14   A    
C5    C7    A    
C12   O3    A    
C27   H26   S    
C6    C8    A    
C22   H25   S    
C20   H14   S    
C24   H23   S    
C21   O2    S    
C8    H1    S    
C18   H6    S    
C9    O10   S    
C15   C16   A    
C20   H16   S    
Cu2   O7    S    
C17   C28   S    
C3    N3    S    
C21   H17   S    
C27   N2    D    
C1    O1    A    
