data_mof_unit_43093.cif
_audit_creation_date              2012-12-10T18:06:47-0500
_audit_creation_method            fapswitch 2.2
_symmetry_space_group_name_H-M    P1
_symmetry_Int_Tables_number       1
_space_group_crystal_system       triclinic
_cell_length_a                    12.738862
_cell_length_b                    13.082148
_cell_length_c                    15.379636
_cell_angle_alpha                 85.262201
_cell_angle_beta                  98.975055
_cell_angle_gamma                 97.541812
_cell_volume                      2504.70523255

loop_
_atom_site_label
_atom_site_type_symbol
_atom_type_description
_atom_site_fract_x
_atom_site_fract_y
_atom_site_fract_z
_atom_type_partial_charge
C1    C     C_R   0.442471 0.308614 0.507447 0.863954
C2    C     C_R   0.688263 0.544895 0.931647 0.176503
C3    C     C_R   0.581604 0.561188 0.896811 0.093793
C4    C     C_R   0.437074 0.515900 0.336070 0.840039
C5    C     C_R   0.755398 0.513619 0.877320 -0.210734
C6    C     C_R   0.715860 0.493763 0.789820 -0.191509
C7    C     C_R   0.542972 0.537773 0.810008 -0.266972
C8    C     C_R   0.629130 0.939568 0.356686 -0.226831
C9    C     C_R   0.580027 0.800583 0.462112 -0.107915
C10   C     C_R   0.338194 0.158995 0.574209 -0.320358
C11   C     C_R   0.319802 0.052471 0.594081 0.510365
C12   C     C_R   0.467048 0.583362 0.099364 0.095839
C13   C     C_R   0.375940 0.987014 0.556901 -0.198359
C14   C     C_R   0.446964 0.026247 0.496335 0.004225
C15   C     C_R   0.451417 0.131075 0.466669 0.087386
C16   C     C_R   0.554959 0.691447 0.486325 0.900365
C17   C     C_R   0.513366 0.964717 0.463763 0.115636
C18   C     C_R   0.567988 0.002819 0.391936 0.140743
C19   C     C_R   0.559161 0.102811 0.355303 -0.234968
C20   C     C_R   0.501905 0.166544 0.392436 -0.180907
C21   C     C_R   0.528308 0.866726 0.501985 -0.288667
C22   C     C_R   0.633242 0.837343 0.389560 0.167180
C23   C     C_R   0.364322 0.611214 0.064367 0.172897
C24   C     C_R   0.406496 0.198343 0.512953 -0.152081
C25   C     C_R   0.146796 0.626595 0.638430 -0.258156
C26   C     C_R   0.755760 0.381786 0.392056 0.026425
C27   C     C_R   0.849175 0.354399 0.370030 -0.246718
C28   C     C_R   0.565139 0.490808 0.663716 0.874424
C29   C     C_R   0.947325 0.396548 0.413288 -0.156155
C30   C     C_R   0.952765 0.467242 0.479162 -0.057354
C31   C     C_R   0.855418 0.492713 0.500640 0.187728
C32   C     C_R   0.051081 0.514399 0.523525 -0.015319
C33   C     C_R   0.051743 0.578751 0.593493 0.134021
C34   C     C_R   0.545628 0.583875 0.043765 0.067339
C35   C     C_R   0.957786 0.599278 0.616339 -0.377371
C36   C     C_R   0.860732 0.563329 0.568122 0.445946
C37   C     C_R   0.150130 0.502514 0.500670 -0.026116
C38   C     C_R   0.241361 0.612121 0.612170 0.018716
C39   C     C_R   0.407511 0.544063 0.242258 -0.051260
C40   C     C_R   0.608694 0.504460 0.756346 -0.058236
C41   C     C_R   0.286168 0.609838 0.119556 -0.201836
C42   C     C_R   0.307885 0.576925 0.208396 -0.187161
C43   C     C_R   0.485390 0.546912 0.187439 -0.238102
C44   C     C_R   0.513386 0.591309 0.951750 0.068546
C45   C     C_R   0.412818 0.625020 0.918258 -0.223347
C46   C     C_R   0.340292 0.636959 0.974378 -0.227421
C47   C     C_R   0.654193 0.573812 0.076779 -0.216724
C48   C     C_R   0.725044 0.556852 0.020810 -0.234356
H1    H     H_    0.263201 0.661166 0.946680 0.147175
H2    H     H_    0.459830 0.541386 0.784122 0.160679
H3    H     H_    0.960070 0.650154 0.669116 0.153768
H4    H     H_    0.147722 0.675519 0.692203 0.151081
H5    H     H_    0.159896 0.455734 0.448772 0.119740
H6    H     H_    0.679099 0.349343 0.358642 0.124648
H7    H     H_    0.017306 0.371405 0.394418 0.136668
H8    H     H_    0.845582 0.300370 0.319683 0.148359
H9    H     H_    0.768767 0.469710 0.748790 0.170775
H10   H     H_    0.807195 0.547565 0.048227 0.150132
H11   H     H_    0.207953 0.632638 0.093731 0.139194
H12   H     H_    0.837619 0.502628 0.902953 0.137763
H13   H     H_    0.246939 0.576945 0.250234 0.163626
H14   H     H_    0.559508 0.516863 0.213701 0.166106
H15   H     H_    0.389093 0.643988 0.848889 0.143724
H16   H     H_    0.686438 0.580109 0.145614 0.173331
H17   H     H_    0.218089 0.066716 0.672847 0.330535
H18   H     H_    0.790680 0.652085 0.632504 0.314083
H19   H     H_    0.598069 0.132426 0.298951 0.141712
H20   H     H_    0.669721 0.968150 0.301016 0.162212
H21   H     H_    0.496072 0.837881 0.561433 0.153168
H22   H     H_    0.302063 0.211131 0.608583 0.161519
H23   H     H_    0.360015 0.905496 0.574611 0.157943
H24   H     H_    0.496245 0.243488 0.361763 0.146104
H25   H     H_    0.316855 0.647277 0.645705 0.126269
I1    I     I_    0.712568 0.744544 0.319657 -0.374606
N1    N     N_R   0.239390 0.551900 0.544730 -0.107612
N2    N     N_R   0.759950 0.448600 0.455730 -0.104474
O1    O     O_R   0.374950 0.371210 0.521360 -0.610471
O2    O     O_3   0.773106 0.603230 0.584785 -0.711737
O3    O     O_R   0.542050 0.338030 0.492790 -0.614469
O4    O     O_R   0.368720 0.526070 0.390200 -0.617839
O5    O     O_R   0.535820 0.492890 0.361630 -0.622490
O6    O     O_R   0.457950 0.661970 0.507210 -0.621545
O7    O     O_R   0.625050 0.628790 0.478640 -0.510213
O8    O     O_R   0.464180 0.507110 0.638370 -0.630094
O9    O     O_R   0.631280 0.473930 0.609800 -0.555014
O10   O     O_3   0.251410 0.010397 0.652413 -0.769759
Zn1   Zn    Zn3+2 0.388420 0.522150 0.519080 0.938963
Zn2   Zn    Zn3+2 0.611580 0.477850 0.480920 0.993909

loop_
_geom_bond_atom_site_label_1
_geom_bond_atom_site_label_2
_ccdc_geom_bond_type
C28   O8    A    
C1    O1    A    
C41   C42   A    
C19   C20   A    
C14   C17   A    
O8    Zn1   S    
H17   O10   S    
C45   C46   A    
C46   H1    S    
C26   C27   A    
C9    C16   S    
C4    O4    A    
C12   C43   A    
C3    C7    A    
C5    C6    A    
C9    C22   A    
C27   C29   A    
C28   C40   S    
C11   O10   S    
O6    Zn1   S    
C18   C19   A    
C4    O5    A    
C35   C36   A    
C26   N2    A    
C7    C40   A    
C19   H19   S    
N2    Zn2   S    
C37   H5    S    
O7    Zn2   S    
C37   N1    A    
C23   C46   A    
C13   C14   A    
C6    H9    S    
C26   H6    S    
O3    Zn2   S    
C39   C42   A    
C38   N1    A    
C15   C20   A    
H18   O2    S    
C3    C44   A    
C34   C44   A    
C41   H11   S    
C47   H16   S    
C27   H8    S    
C39   C43   A    
C13   H23   S    
C2    C48   A    
C45   H15   S    
C16   O7    A    
C8    C18   A    
C21   H21   S    
C29   C30   A    
C25   C38   A    
C8    C22   A    
C47   C48   A    
C12   C23   A    
C4    C39   S    
C16   O6    A    
C17   C18   A    
C32   C37   A    
C42   H13   S    
C10   H22   S    
N1    Zn1   S    
C15   C24   A    
C8    H20   S    
C35   H3    S    
C1    O3    A    
C6    C40   A    
C2    C5    A    
C22   I1    S    
C12   C34   A    
C44   C45   A    
O9    Zn2   S    
C5    H12   S    
C31   C36   A    
C7    H2    S    
C48   H10   S    
O4    Zn1   S    
C29   H7    S    
C23   C41   A    
C10   C24   A    
C32   C33   A    
C2    C3    A    
C25   H4    S    
C36   O2    S    
C30   C32   A    
C11   C13   A    
C9    C21   A    
C31   N2    A    
C30   C31   A    
C33   C35   A    
C17   C21   A    
O5    Zn2   S    
C10   C11   A    
O1    Zn1   S    
C1    C24   S    
C28   O9    A    
C14   C15   A    
C20   H24   S    
C34   C47   A    
C43   H14   S    
C25   C33   A    
C38   H25   S    
