data_mof_unit_49912.cif
_audit_creation_date              2012-12-10T16:52:03-0500
_audit_creation_method            fapswitch 2.2
_symmetry_space_group_name_H-M    P1
_symmetry_Int_Tables_number       1
_space_group_crystal_system       triclinic
_cell_length_a                    7.775081
_cell_length_b                    8.559914
_cell_length_c                    14.861274
_cell_angle_alpha                 91.000556
_cell_angle_beta                  86.00974
_cell_angle_gamma                 93.628399
_cell_volume                      984.617445067

loop_
_atom_site_label
_atom_site_type_symbol
_atom_type_description
_atom_site_fract_x
_atom_site_fract_y
_atom_site_fract_z
_atom_type_partial_charge
C1    C     C_R   0.545727 0.794672 0.497651 0.956957
C2    C     C_R   0.565293 0.632920 0.812062 -0.244511
C3    C     C_R   0.492777 0.502157 0.232313 -0.050104
C4    C     C_R   0.507227 0.497845 0.767686 -0.050165
C5    C     C_R   0.552243 0.637366 0.186643 -0.246568
C6    C     C_R   0.447790 0.362631 0.813359 -0.246492
C7    C     C_R   0.555368 0.639257 0.093027 0.114645
C8    C     C_R   0.444695 0.360732 0.906970 0.114731
C9    C     C_R   0.498331 0.501133 0.046873 0.013947
C10   C     C_R   0.501725 0.498859 0.953125 0.013919
C11   C     C_R   0.438068 0.364969 0.094746 0.110771
C12   C     C_R   0.454272 0.205328 0.502349 0.956958
C13   C     C_R   0.561968 0.635026 0.905252 0.110760
C14   C     C_R   0.614251 0.775108 0.044831 0.085913
C15   C     C_R   0.385846 0.224873 0.955170 0.085841
C16   C     C_R   0.616751 0.771470 0.950763 -0.258563
C17   C     C_R   0.383297 0.228521 0.049234 -0.258465
C18   C     C_2   0.569819 0.958189 0.496278 -0.380928
C19   C     C_2   0.430181 0.041811 0.503721 -0.380920
C20   C     C_R   0.502356 0.499717 0.672712 0.880150
C21   C     C_R   0.497644 0.500283 0.327288 0.880145
C22   C     C_R   0.434717 0.367081 0.187936 -0.244517
H1    H     H_    0.390146 0.263530 0.226115 0.132903
H2    H     H_    0.986397 0.617433 0.567940 0.193118
H3    H     H_    0.790214 0.896850 0.116087 0.183686
H4    H     H_    0.691863 0.009082 0.046608 0.195114
H5    H     H_    0.209705 0.102923 0.884161 0.183744
H6    H     H_    0.308798 0.990789 0.953323 0.195191
H7    H     H_    0.609850 0.736472 0.773882 0.132911
H8    H     H_    0.595812 0.739726 0.224813 0.152837
H9    H     H_    0.404208 0.260272 0.775192 0.152916
H10   H     H_    0.661892 0.875109 0.912974 0.156814
H11   H     H_    0.338136 0.124884 0.087019 0.156835
H12   H     H_    0.701716 0.009199 0.489155 0.181346
H13   H     H_    0.298284 0.990800 0.510845 0.181347
H14   H     H_    0.013603 0.382567 0.432060 0.193115
N1    N     N_2   0.950330 0.457950 0.475660 -0.172890
N2    N     N_2   0.049670 0.542050 0.524340 -0.172888
N3    N     N_3   0.670654 0.915852 0.091419 -0.470045
N4    N     N_3   0.329483 0.084122 0.908581 -0.470174
O1    O     O_R   0.389250 0.738570 0.505970 -0.612510
O2    O     O_R   0.610750 0.261430 0.494030 -0.612511
O3    O     O_R   0.678390 0.711620 0.490370 -0.632879
O4    O     O_R   0.321610 0.288380 0.509630 -0.632877
O5    O     O_R   0.355420 0.513510 0.639950 -0.612672
O6    O     O_R   0.644580 0.486490 0.360050 -0.612678
O7    O     O_R   0.644560 0.486560 0.624350 -0.623488
O8    O     O_R   0.355440 0.513440 0.375650 -0.623496
Zn1   Zn    Zn3+2 0.306940 0.517990 0.510420 0.946866
Zn2   Zn    Zn3+2 0.693060 0.482010 0.489580 0.946863

loop_
_geom_bond_atom_site_label_1
_geom_bond_atom_site_label_2
_ccdc_geom_bond_type
O4    Zn1   S    
C2    C4    A    
C8    C10   A    
O3    Zn2   S    
C15   C17   A    
N1    N2    D    
C16   H10   S    
C9    C11   A    
C9    C10   A    
O6    Zn2   S    
C11   C22   A    
H2    N2    S    
C20   O5    A    
O5    Zn1   S    
H5    N4    S    
C21   O8    A    
C6    H9    S    
C12   O4    A    
N2    Zn1   S    
C19   H13   S    
H3    N3    S    
N1    Zn2   S    
C18   H12   S    
C1    C18   S    
C17   H11   S    
O2    Zn2   S    
C2    H7    S    
C6    C8    A    
C12   C19   S    
O1    Zn1   S    
O8    Zn1   S    
C5    H8    S    
O7    Zn2   S    
H4    N3    S    
C14   C16   A    
C15   N4    S    
C3    C21   S    
C20   O7    A    
H6    N4    S    
C4    C6    A    
C4    C20   S    
C18   C19   D    
C7    C9    A    
C21   O6    A    
C13   C16   A    
C1    O1    A    
C5    C7    A    
C2    C13   A    
C22   H1    S    
H14   N1    S    
C3    C22   A    
C12   O2    A    
C8    C15   A    
C14   N3    S    
C1    O3    A    
C7    C14   A    
C11   C17   A    
C3    C5    A    
C10   C13   A    
