data_mof_unit_17764.cif
_audit_creation_date              2012-12-10T20:27:59-0500
_audit_creation_method            fapswitch 2.2
_symmetry_space_group_name_H-M    P1
_symmetry_Int_Tables_number       1
_space_group_crystal_system       triclinic
_cell_length_a                    12.826216
_cell_length_b                    10.650698
_cell_length_c                    9.938481
_cell_angle_alpha                 90.695694
_cell_angle_beta                  98.855179
_cell_angle_gamma                 90.871668
_cell_volume                      1341.19542943

loop_
_atom_site_label
_atom_site_type_symbol
_atom_type_description
_atom_site_fract_x
_atom_site_fract_y
_atom_site_fract_z
_atom_type_partial_charge
C1    C     C_R   0.498440 0.260533 0.499301 1.002488
C2    C     C_R   0.422190 0.931802 0.403330 0.540676
C3    C     C_R   0.492668 0.871147 0.502498 -0.222632
C4    C     C_R   0.298173 0.500709 0.471566 0.952565
C5    C     C_R   0.551653 0.938606 0.609208 -0.259517
C6    C     C_3   0.667666 0.935283 0.660700 0.432984
C7    C     C_3   0.666610 0.077504 0.660165 1.103010
C8    C     C_R   0.424091 0.434534 0.054784 -0.179078
C9    C     C_R   0.569586 0.571934 0.087717 0.752019
C10   C     C_R   0.571582 0.570079 0.945287 0.010661
C11   C     C_R   0.424159 0.434880 0.912355 -0.074933
C12   C     C_R   0.028136 0.560680 0.544752 -0.022984
C13   C     C_3   0.404182 0.296523 0.899936 0.508042
C14   C     C_3   0.403334 0.295874 0.052688 1.102267
C15   C     C_R   0.499548 0.739440 0.500666 1.024206
C16   C     C_R   0.701709 0.502504 0.528568 0.980023
C17   C     C_R   0.814204 0.513439 0.548272 -0.202548
C18   C     C_R   0.184839 0.500720 0.452343 -0.110830
C19   C     C_R   0.020954 0.394678 0.368313 0.640811
C20   C     C_R   0.127785 0.410806 0.365874 -0.120498
C21   C     C_R   0.135861 0.580272 0.536294 0.048561
C22   C     C_R   0.972027 0.465689 0.459102 -0.058072
C23   C     C_R   0.866434 0.442893 0.463110 -0.171369
C24   C     C_R   0.866779 0.605475 0.635100 0.627656
C25   C     C_R   0.973777 0.629972 0.634963 0.028742
C26   C     C_R   0.551160 0.066958 0.608138 -0.074703
C27   C     C_R   0.492663 0.128463 0.500115 -0.296150
C28   C     C_R   0.421973 0.061808 0.402564 0.597846
F1    F     F_    0.723960 0.885334 0.564972 -0.577689
F2    F     F_    0.354852 0.121829 0.306830 -0.566669
F3    F     F_    0.356499 0.865770 0.306554 -0.602019
F4    F     F_    0.687650 0.131496 0.789025 -0.596878
F5    F     F_    0.724431 0.131200 0.568209 -0.624448
F6    F     F_    0.641971 0.642466 0.171032 -0.595168
F7    F     F_    0.487538 0.230895 0.861794 -0.559785
F8    F     F_    0.306498 0.264886 0.088466 -0.658531
F9    F     F_    0.485706 0.229383 0.123315 -0.556746
F10   F     F_    0.813124 0.677538 0.713705 -0.669804
F11   F     F_    0.965950 0.305949 0.285371 -0.625875
H1    H     H_    0.822808 0.372177 0.396538 0.253536
H2    H     H_    0.167840 0.238253 0.307176 0.280293
H3    H     H_    0.205423 0.663393 0.714858 0.229813
H4    H     H_    0.165102 0.765958 0.584067 0.233688
H5    H     H_    0.687006 0.894610 0.763683 0.121882
H6    H     H_    0.625865 0.691317 0.816605 0.245475
H7    H     H_    0.706272 0.568872 0.867042 0.271886
H8    H     H_    0.285787 0.169819 0.832018 0.231098
H9    H     H_    0.242873 0.317842 0.844505 0.178835
H10   H     H_    0.985885 0.810410 0.702708 0.267705
H11   H     H_    0.016543 0.701913 0.825177 0.237993
H12   H     H_    0.142566 0.342691 0.179938 0.273624
N1    N     N_R   0.499290 0.499140 0.142710 -0.161313
N2    N     N_R   0.499290 0.499180 0.857070 -0.108226
N3    N     N_3   0.656159 0.635790 0.898186 -0.342954
N4    N     N_3   0.303392 0.263961 0.815202 -0.426804
N5    N     N_3   0.024597 0.725801 0.725496 -0.452312
N6    N     N_3   0.179449 0.331486 0.280365 -0.316218
N7    N     N_3   0.198565 0.679060 0.610299 -0.423634
O1    O     O_R   0.500010 0.316790 0.614690 -0.553674
O2    O     O_R   0.500000 0.316760 0.385350 -0.537709
O3    O     O_R   0.346360 0.499990 0.595720 -0.622049
O4    O     O_R   0.346350 0.499960 0.366370 -0.586978
O5    O     O_R   0.500000 0.683240 0.614650 -0.660050
O6    O     O_R   0.499990 0.683210 0.385310 -0.541212
O7    O     O_R   0.653650 0.500040 0.633630 -0.613609
O8    O     O_R   0.653640 0.500010 0.404280 -0.574265
Zn1   Zn    Zn3+2 0.500010 0.500020 0.653130 1.033051
Zn2   Zn    Zn3+2 0.499990 0.499980 0.346870 1.136494

loop_
_geom_bond_atom_site_label_1
_geom_bond_atom_site_label_2
_ccdc_geom_bond_type
C13   N4    S    
H9    N4    S    
C24   F10   S    
C15   O6    A    
C6    C7    S    
H12   N6    S    
C12   C21   A    
C12   C22   A    
C18   C21   A    
C11   C13   S    
C9    C10   A    
O3    Zn1   S    
O8    Zn2   S    
C19   C20   A    
N1    Zn2   S    
C25   N5    S    
O4    Zn2   S    
C12   C25   A    
C4    C18   S    
H3    N7    S    
C28   F2    S    
C2    C3    A    
H2    N6    S    
C21   N7    S    
C7    F4    S    
C6    H5    S    
C13   C14   S    
C14   F9    S    
C7    F5    S    
H7    N3    S    
C26   C27   A    
C17   C23   A    
C9    N1    A    
C7    C26   S    
C8    C11   A    
N2    Zn1   S    
C19   F11   S    
H6    N3    S    
C13   F7    S    
C18   C20   A    
C1    O1    A    
C14   F8    S    
C5    C6    S    
C10   N3    S    
O5    Zn1   S    
C17   C24   A    
C16   O8    A    
C23   H1    S    
H10   N5    S    
O6    Zn2   S    
C4    O4    A    
C8    N1    A    
C6    F1    S    
C3    C15   S    
C24   C25   A    
O2    Zn2   S    
H8    N4    S    
C19   C22   A    
C1    O2    A    
C27   C28   A    
C1    C27   S    
C10   N2    A    
C15   O5    A    
C22   C23   A    
C16   C17   S    
C2    C28   A    
C16   O7    A    
C8    C14   S    
H4    N7    S    
O1    Zn1   S    
C20   N6    S    
O7    Zn1   S    
C4    O3    A    
H11   N5    S    
C5    C26   A    
C9    F6    S    
C2    F3    S    
C3    C5    A    
C11   N2    A    
