data_mof_unit_47631.cif
_audit_creation_date              2012-10-26T20:02:59-0400
_audit_creation_method            fapswitch 2.2
_symmetry_space_group_name_H-M    P1
_symmetry_Int_Tables_number       1
_space_group_crystal_system       triclinic
_cell_length_a                    10.726502
_cell_length_b                    12.318169
_cell_length_c                    13.218044
_cell_angle_alpha                 116.686071
_cell_angle_beta                  77.516925
_cell_angle_gamma                 101.566482
_cell_volume                      1512.83757476

loop_
_atom_site_label
_atom_site_type_symbol
_atom_type_description
_atom_site_fract_x
_atom_site_fract_y
_atom_site_fract_z
_atom_type_partial_charge
C1    C     C_R   0.512769 0.854793 0.286551 0.521160
C2    C     C_R   0.505549 0.566328 0.009360 0.032554
C3    C     C_R   0.464886 0.650369 0.122590 0.013799
C4    C     C_R   0.740095 0.998164 0.497205 0.540223
C5    C     C_R   0.460666 0.439912 0.975373 0.028846
C6    C     C_R   0.368028 0.401260 0.050883 0.044504
C7    C     C_R   0.318760 0.487383 0.156743 -0.130929
C8    C     C_R   0.364920 0.610171 0.191256 -0.117991
C9    C     C_R   0.505343 0.350335 0.868577 -0.135972
C10   C     C_R   0.365286 0.190398 0.909878 -0.137871
C11   C     C_R   0.524155 0.773040 0.163639 -0.005424
C12   C     C_3   0.121705 0.995090 0.495229 0.022255
C13   C     C_R   0.706358 0.348487 0.330349 -0.143511
C14   C     C_R   0.324871 0.758419 0.644280 0.068554
C15   C     C_R   0.286538 0.661101 0.675018 -0.158022
C16   C     C_R   0.481035 0.145087 0.713227 0.543148
C17   C     C_R   0.352243 0.558062 0.620618 -0.142006
C18   C     C_R   0.457739 0.550928 0.534014 -0.004788
C19   C     C_R   0.493259 0.653037 0.505200 0.185566
C20   C     C_R   0.529294 0.446965 0.475085 -0.011610
C21   C     C_R   0.634188 0.447775 0.389157 0.042922
C22   C     C_R   0.666789 0.547623 0.362216 -0.167593
C23   C     C_3   0.052497 0.056859 0.619501 -0.228073
C24   C     C_R   0.597970 0.647569 0.418723 -0.098090
C25   C     C_R   0.502154 0.341463 0.497231 0.039942
C26   C     C_R   0.674852 0.248072 0.356390 0.040087
C27   C     C_R   0.260253 0.997826 0.497048 0.533145
C28   C     C_3   0.963305 0.076481 0.436427 -0.242853
C29   C     C_3   0.106150 0.069757 0.430739 -0.257661
C30   C     C_3   0.907028 0.047099 0.618985 -0.224255
C31   C     C_3   0.913782 0.864057 0.426016 -0.232349
C32   C     C_3   0.878167 0.996548 0.494711 0.030193
C33   C     C_2   0.060939 0.773734 0.483834 0.582569
C34   C     C_3   0.055434 0.860558 0.432038 -0.032293
C35   C     C_R   0.323005 0.276825 0.018363 -0.133349
C36   C     C_R   0.454171 0.227852 0.833917 -0.003002
C37   C     C_R   0.606757 0.814938 0.087331 -0.134673
C38   C     C_R   0.635890 0.735676 0.973239 -0.139804
C39   C     C_R   0.588276 0.612432 0.934556 -0.119748
Cu1   Cu    Cu3+1 0.529690 0.098270 0.475420 0.913673
Cu2   Cu    Cu3+1 0.470310 0.901730 0.524580 0.935767
H1    H     H_    0.943588 0.173519 0.485709 0.140598
H2    H     H_    0.699123 0.769216 0.914950 0.127380
H3    H     H_    0.940971 0.044816 0.348365 0.116375
H4    H     H_    0.318801 0.673476 0.271328 0.195715
H5    H     H_    0.730177 0.171146 0.311333 0.113889
H6    H     H_    0.746940 0.548821 0.296548 0.111417
H7    H     H_    0.786742 0.348623 0.264634 0.094393
H8    H     H_    0.424171 0.332876 0.560924 0.117768
H9    H     H_    0.273244 0.837913 0.686959 0.139812
H10   H     H_    0.318505 0.485592 0.647960 0.097795
H11   H     H_    0.205586 0.665569 0.741316 0.109951
H12   H     H_    0.853847 0.985743 0.659329 0.161560
H13   H     H_    0.631142 0.718885 0.391550 0.177103
H14   H     H_    0.151004 0.026284 0.339748 0.119115
H15   H     H_    0.155255 0.164800 0.469160 0.139337
H16   H     H_    0.873806 0.139018 0.671353 0.107497
H17   H     H_    0.092001 0.155122 0.659208 0.104435
H18   H     H_    0.847568 0.801711 0.459330 0.153330
H19   H     H_    0.900170 0.830066 0.335106 0.080822
H20   H     H_    0.106529 0.821453 0.342730 0.091660
H21   H     H_    0.122655 0.619207 0.461773 0.334791
H22   H     H_    0.069738 0.015609 0.673939 0.160467
H23   H     H_    0.324372 0.095590 0.883715 0.120443
H24   H     H_    0.243935 0.459813 0.213162 0.133035
H25   H     H_    0.252158 0.246921 0.075575 0.103422
H26   H     H_    0.578846 0.373143 0.809170 0.117035
H27   H     H_    0.651829 0.908725 0.116481 0.125126
H28   H     H_    0.616063 0.556620 0.845103 0.108048
N1    N     N_R   0.574690 0.246280 0.438200 -0.232730
N2    N     N_R   0.426100 0.754320 0.561190 -0.232089
O1    O     O_R   0.537340 0.972510 0.318130 -0.503766
O2    O     O_R   0.125273 0.670316 0.418756 -0.730143
O3    O     O_R   0.487200 0.806530 0.359650 -0.525046
O4    O     O_R   0.707380 0.082980 0.479220 -0.507026
O5    O     O_R   0.657240 0.917000 0.520740 -0.524010
O6    O     O_R   0.512800 0.193470 0.640350 -0.507402
O7    O     O_R   0.462660 0.027490 0.681870 -0.507290
O8    O     O_R   0.342760 0.083000 0.479260 -0.514160
O9    O     O_R   0.292620 0.917020 0.520780 -0.483617
O10   O     O_2   0.006893 0.791876 0.580567 -0.552082

loop_
_geom_bond_atom_site_label_1
_geom_bond_atom_site_label_2
_ccdc_geom_bond_type
C23   H17   S    
C30   H16   S    
C12   C29   S    
C14   N2    A    
C19   N2    A    
C1    C11   S    
C17   H10   S    
Cu2   O9    S    
C7    C8    A    
C12   C23   S    
Cu1   N1    S    
C5    C6    A    
C1    O3    A    
C28   C29   S    
C18   C19   A    
C27   O8    A    
C38   C39   A    
C20   C25   A    
C24   H13   S    
C37   H27   S    
C6    C35   A    
C16   O6    A    
C31   H18   S    
C11   C37   A    
C8    H4    S    
C4    O4    A    
Cu2   O3    S    
C2    C39   A    
C9    C36   A    
H21   O2    S    
C10   C35   A    
C18   C20   A    
Cu2   N2    S    
C23   H22   S    
C22   H6    S    
C21   C22   A    
C17   C18   A    
C30   H12   S    
C31   C34   S    
C1    O1    A    
C12   C27   S    
C23   C30   S    
C28   C32   S    
C3    C8    A    
Cu2   O7    S    
C29   H14   S    
C35   H25   S    
C28   H3    S    
C34   H20   S    
C31   H19   S    
C9    H26   S    
C5    C9    A    
C37   C38   A    
C7    H24   S    
C31   C32   S    
C33   C34   S    
C39   H28   S    
Cu1   O8    S    
C13   C21   A    
C15   H11   S    
C4    C32   S    
C33   O2    S    
Cu1   Cu2   S    
C27   O9    A    
C26   N1    A    
C22   C24   A    
C13   C26   A    
C2    C5    A    
C12   C34   S    
C15   C17   A    
Cu1   O1    S    
Cu1   O6    S    
C10   H23   S    
C13   H7    S    
C6    C7    A    
C29   H15   S    
Cu1   O4    S    
C19   C24   A    
C38   H2    S    
C16   C36   S    
Cu2   O5    S    
C30   C32   S    
C14   H9    S    
C28   H1    S    
C2    C3    A    
C16   O7    A    
C25   H8    S    
C4    O5    A    
C3    C11   A    
C26   H5    S    
C20   C21   A    
C14   C15   A    
C10   C36   A    
C25   N1    A    
C33   O10   D    
