data_mof_unit_6863.cif
_audit_creation_date              2013-03-05T16:48:17-0500
_audit_creation_method            fapswitch 2.2
_symmetry_space_group_name_H-M    P1
_symmetry_Int_Tables_number       1
_space_group_crystal_system       triclinic
_cell_length_a                    23.445778
_cell_length_b                    8.925719
_cell_length_c                    8.098872
_cell_angle_alpha                 89.971869
_cell_angle_beta                  90.0
_cell_angle_gamma                 90.000012
_cell_volume                      1694.85419061

loop_
_atom_site_label
_atom_site_type_symbol
_atom_site_description
_atom_site_fract_x
_atom_site_fract_y
_atom_site_fract_z
_atom_type_partial_charge
O1    O     O_R   0.500000 0.285350 0.636850 -0.613110
O2    O     O_R   0.500000 0.714650 0.363150 -0.613110
O3    O     O_R   0.500000 0.714650 0.636850 -0.613453
O4    O     O_R   0.500000 0.285350 0.363150 -0.613453
H1    H     H_    0.948202 0.128265 0.416494 0.192466
H2    H     H_    0.051807 0.871732 0.583522 0.192457
H3    H     H_    0.948202 0.871734 0.583506 0.192466
H4    H     H_    0.051807 0.128268 0.416478 0.192457
C1    C     C_R   0.500000 0.217978 0.500026 0.945999
C2    C     C_R   0.500000 0.782022 0.499974 0.945999
O5    O     O_R   0.416160 0.500000 0.636910 -0.623281
O6    O     O_R   0.583840 0.500000 0.363090 -0.623278
O7    O     O_R   0.583840 0.500000 0.636910 -0.623278
O8    O     O_R   0.416160 0.500000 0.363090 -0.623281
C3    C     C_R   0.208172 0.500000 0.500000 0.319709
C4    C     C_R   0.791829 0.500000 0.500000 0.319398
C5    C     C_R   0.388974 0.500000 0.500000 0.872413
C6    C     C_R   0.611025 0.500000 0.500000 0.872415
Zn1   Zn    Zn3+2 0.500000 0.500000 0.682780 0.995973
Zn2   Zn    Zn3+2 0.500000 0.500000 0.317220 0.995973
H5    H     H_    0.214555 0.488425 0.234544 0.138342
H6    H     H_    0.785439 0.486771 0.234651 0.138516
H7    H     H_    0.214555 0.511575 0.765456 0.138342
H8    H     H_    0.785439 0.513228 0.765350 0.138516
C7    C     C_R   0.296831 0.493528 0.350023 -0.205870
C8    C     C_R   0.703166 0.492602 0.350086 -0.205984
C9    C     C_R   0.296831 0.506472 0.649977 -0.205870
C10   C     C_R   0.703166 0.507397 0.649914 -0.205984
C11   C     C_R   0.326780 0.500000 0.500000 -0.041421
C12   C     C_R   0.673218 0.500000 0.500000 -0.041411
C13   C     C_R   0.880615 0.631364 0.529455 0.505236
C14   C     C_R   0.119393 0.368642 0.470514 0.505274
C15   C     C_R   0.880615 0.368636 0.470545 0.505236
C16   C     C_R   0.119393 0.631358 0.529486 0.505274
N1    N     N_R   0.852453 0.500000 0.500000 -0.363326
N2    N     N_R   0.147552 0.500000 0.500000 -0.363378
C17   C     C_R   0.940161 0.365778 0.469821 -0.013034
C18   C     C_R   0.059847 0.634221 0.530191 -0.013064
C19   C     C_R   0.940161 0.634221 0.530179 -0.013034
C20   C     C_R   0.059848 0.365779 0.469809 -0.013064
C21   C     C_R   0.970047 0.500000 0.500000 -0.021092
C22   C     C_R   0.029961 0.500000 0.500000 -0.021090
C23   C     C_R   0.970320 0.232633 0.440022 -0.163033
C24   C     C_R   0.029688 0.767366 0.559988 -0.163044
C25   C     C_R   0.970320 0.767367 0.559978 -0.163034
C26   C     C_R   0.029688 0.232634 0.440012 -0.163044
C27   C     C_1   0.500000 0.065200 0.500037 -0.182459
C28   C     C_1   0.500000 0.934799 0.499963 -0.182459
C29   C     C_R   0.237630 0.493364 0.350270 -0.095741
C30   C     C_R   0.762367 0.492435 0.350334 -0.095615
C31   C     C_R   0.237630 0.506636 0.649729 -0.095741
C32   C     C_R   0.762367 0.507564 0.649666 -0.095615
N3    N     N_1   0.500000 0.500000 0.073640 -0.034934
N4    N     N_1   0.500000 0.500000 0.926360 -0.034934
O9    O     O_2   0.850937 0.758518 0.557014 -0.531621
O10   O     O_2   0.149075 0.241506 0.442888 -0.531554
O11   O     O_2   0.850937 0.241482 0.442986 -0.531621
O12   O     O_2   0.149075 0.758494 0.557112 -0.531554
H9    H     H_    0.319042 0.488405 0.232889 0.164342
H10   H     H_    0.680954 0.486727 0.233005 0.164362
H11   H     H_    0.319042 0.511595 0.767111 0.164342
H12   H     H_    0.680954 0.513273 0.766994 0.164362

loop_
_geom_bond_atom_site_label_1
_geom_bond_atom_site_label_2
_geom_bond_distance
_ccdc_geom_bond_type
H8    C32   1.083051 S    
C18   C24   1.403870 A    
C6    C12   1.458161 S    
C3    C31   1.396818 A    
C9    C11   1.404215 A    
C5    C11   1.458187 S    
C21   C22   1.404719 A    
H7    C31   1.083104 S    
C27   C28   1.163922 T    
C19   C25   1.403879 A    
H6    C30   1.083051 S    
O3    Zn1   1.951502 S    
O6    Zn2   2.000491 S    
H5    C29   1.083103 S    
C9    H11   1.083165 S    
H1    C23   1.083148 S    
C19   C21   1.409357 A    
O3    C2    1.260879 A    
H2    C24   1.083147 S    
N3    N4    1.192801 T    
C3    C29   1.396819 A    
C20   C26   1.403871 A    
C10   C32   1.388020 A    
O8    C5    1.278965 A    
O5    Zn1   2.000493 S    
O7    C6    1.278957 A    
C17   C21   1.409358 A    
H3    C25   1.083146 S    
Zn1   N4    1.972723 S    
C10   C12   1.404127 A    
C15   N1    1.366733 A    
C9    C31   1.388020 A    
C18   C22   1.409370 A    
C16   N2    1.366695 A    
C8    C30   1.388020 A    
C4    N1    1.421367 S    
C2    C28   1.363648 S    
C4    C30   1.396798 A    
C23   C26   1.391927 A    
C7    C29   1.388023 A    
C17   C23   1.403879 A    
O1    Zn1   1.951862 S    
C1    C27   1.363648 S    
O7    Zn1   2.000491 S    
O2    Zn2   1.951861 S    
O4    Zn2   1.951503 S    
C14   N2    1.366694 A    
C3    N2    1.421274 S    
C14   C20   1.396341 A    
O1    C1    1.261034 A    
C24   C25   1.391929 A    
O8    Zn2   2.000493 S    
Zn2   N3    1.972723 S    
O6    C6    1.278958 A    
C16   O12   1.349938 S    
C13   N1    1.366732 A    
C20   C22   1.409369 A    
O5    C5    1.278965 A    
C15   O11   1.349940 S    
C7    H9    1.083164 S    
H4    C26   1.083147 S    
C13   O9    1.349939 S    
O4    C1    1.260879 A    
C16   C18   1.396341 A    
C8    H10   1.083110 S    
C14   O10   1.349938 S    
O2    C2    1.261034 A    
C15   C17   1.396341 A    
C4    C32   1.396798 A    
C13   C19   1.396343 A    
C7    C11   1.404214 A    
C8    C12   1.404128 A    
C10   H12   1.083110 S    
