data_mof_unit_58249.cif
_audit_creation_date              2012-12-10T20:42:40-0500
_audit_creation_method            fapswitch 2.2
_symmetry_space_group_name_H-M    P1
_symmetry_Int_Tables_number       1
_space_group_crystal_system       triclinic
_cell_length_a                    8.907234
_cell_length_b                    10.677367
_cell_length_c                    9.895678
_cell_angle_alpha                 90.241597
_cell_angle_beta                  90.191739
_cell_angle_gamma                 90.347119
_cell_volume                      941.10544678

loop_
_atom_site_label
_atom_site_type_symbol
_atom_type_description
_atom_site_fract_x
_atom_site_fract_y
_atom_site_fract_z
_atom_type_partial_charge
C1    C     C_R   0.503986 0.260082 0.499910 0.866791
C2    C     C_R   0.562204 0.935028 0.381736 -0.219947
C3    C     C_R   0.526819 0.871556 0.501454 -0.108473
C4    C     C_R   0.518617 0.936819 0.623175 0.186965
C5    C     C_3   0.404052 0.929632 0.733064 -0.454453
C6    C     C_3   0.403905 0.071608 0.732831 -0.499700
C7    C     C_R   0.417372 0.413467 0.070327 0.197738
C8    C     C_R   0.592373 0.577121 0.073411 -0.164327
C9    C     C_R   0.593079 0.577337 0.930034 0.293071
C10   C     C_R   0.417318 0.413510 0.928069 0.149548
C11   C     C_3   0.251303 0.396037 0.921816 -0.479597
C12   C     C_R   0.218806 0.499909 0.499849 0.928019
C13   C     C_3   0.251334 0.395922 0.075324 -0.478804
C14   C     C_R   0.504313 0.739952 0.500226 0.888429
C15   C     C_R   0.781209 0.500104 0.500163 0.944738
C16   C     C_1   0.065430 0.499968 0.499822 -0.197784
C17   C     C_1   0.934591 0.500046 0.500242 -0.172564
C18   C     C_R   0.518373 0.064512 0.622903 0.138929
C19   C     C_R   0.526196 0.128698 0.500941 -0.107714
C20   C     C_R   0.561763 0.064576 0.381459 -0.221467
H1    H     H_    0.579474 0.113370 0.287023 0.176664
H2    H     H_    0.219245 0.304046 0.876965 0.200150
H3    H     H_    0.192677 0.477855 0.119849 0.227039
H4    H     H_    0.219355 0.303841 0.118972 0.201874
H5    H     H_    0.580266 0.885566 0.287416 0.178469
H6    H     H_    0.296020 0.887442 0.698453 0.203431
H7    H     H_    0.450709 0.889481 0.827658 0.232543
H8    H     H_    0.295769 0.112187 0.698152 0.202222
H9    H     H_    0.450680 0.113457 0.827156 0.212915
H10   H     H_    0.664624 0.641018 0.128940 0.174714
H11   H     H_    0.192688 0.478085 0.877870 0.233679
N1    N     N_R   0.499010 0.499140 0.142800 -0.123951
N2    N     N_R   0.499010 0.499180 0.857150 -0.128087
O1    O     O_R   0.500020 0.316790 0.614690 -0.617648
O2    O     O_R   0.500000 0.316760 0.385350 -0.623293
O3    O     O_R   0.285350 0.500020 0.614650 -0.617675
O4    O     O_R   0.285340 0.499980 0.385310 -0.616108
O5    O     O_R   0.500000 0.683240 0.614650 -0.580441
O6    O     O_R   0.499980 0.683210 0.385310 -0.629661
O7    O     O_R   0.714660 0.500020 0.614690 -0.572649
O8    O     O_R   0.714650 0.499980 0.385350 -0.624865
Zn1   Zn    Zn3+2 0.500010 0.500020 0.653130 0.985886
Zn2   Zn    Zn3+2 0.499990 0.499980 0.346870 0.947715
Br1   Br    Br    0.727069 0.691992 0.843645 -0.532319

loop_
_geom_bond_atom_site_label_1
_geom_bond_atom_site_label_2
_ccdc_geom_bond_type
O4    Zn2   S    
C7    C10   A    
C12   O3    A    
O2    Zn2   S    
C11   H2    S    
O3    Zn1   S    
C19   C20   A    
O1    Zn1   S    
C7    C13   S    
C8    H10   S    
O7    Zn1   S    
C2    C3    A    
C11   H11   S    
C9    N2    A    
C4    C5    S    
O8    Zn2   S    
C15   O8    A    
C2    H5    S    
C3    C14   S    
N2    Zn1   S    
N1    Zn2   S    
C1    O1    A    
O5    Zn1   S    
C10   N2    A    
C5    C6    S    
C6    C18   S    
C15   O7    A    
C1    C19   S    
C14   O5    A    
C10   C11   S    
C2    C20   A    
C5    H6    S    
C8    N1    A    
C11   C13   S    
C6    H9    S    
C20   H1    S    
C13   H3    S    
C18   C19   A    
C12   O4    A    
C15   C17   S    
C1    O2    A    
C16   C17   T    
C9    Br1   S    
O6    Zn2   S    
C7    N1    A    
C14   O6    A    
C5    H7    S    
C4    C18   A    
C6    H8    S    
C3    C4    A    
C12   C16   S    
C13   H4    S    
C8    C9    A    
