data_mof_unit_65524.cif
_audit_creation_date              2012-12-10T19:08:03-0500
_audit_creation_method            fapswitch 2.2
_symmetry_space_group_name_H-M    P1
_symmetry_Int_Tables_number       1
_space_group_crystal_system       triclinic
_cell_length_a                    13.040074
_cell_length_b                    13.628114
_cell_length_c                    23.385858
_cell_angle_alpha                 90.02756
_cell_angle_beta                  92.370169
_cell_angle_gamma                 85.74616
_cell_volume                      4140.93030632

loop_
_atom_site_label
_atom_site_type_symbol
_atom_type_description
_atom_site_fract_x
_atom_site_fract_y
_atom_site_fract_z
_atom_type_partial_charge
C1    C     C_R   0.481219 0.685079 0.499158 0.910147
C2    C     C_R   0.569063 0.430134 0.299867 0.355494
C3    C     C_R   0.421496 0.564711 0.759147 0.144962
C4    C     C_R   0.564018 0.424599 0.240005 0.133733
C5    C     C_R   0.489060 0.499221 0.791159 0.157883
C6    C     C_R   0.499998 0.494136 0.208658 0.166568
C7    C     C_1   0.534004 0.211966 0.500349 -0.124779
C8    C     C_1   0.466189 0.788025 0.498079 -0.143463
C9    C     C_2   0.545889 0.019569 0.499196 0.412979
C10   C     C_2   0.454333 0.980408 0.497101 0.409725
C11   C     C_1   0.456885 0.875330 0.497399 -0.089020
C12   C     C_R   0.518822 0.314915 0.500531 0.935483
C13   C     C_1   0.543346 0.124655 0.499931 -0.079333
C14   C     C_2   0.033433 0.471656 0.484545 -0.244315
C15   C     C_2   0.966581 0.528247 0.515397 -0.219310
C16   C     C_R   0.499194 0.498816 0.610658 0.942786
C17   C     C_R   0.501008 0.500452 0.389337 0.980101
C18   C     C_1   0.854674 0.520023 0.511441 0.158243
C19   C     C_1   0.145332 0.479913 0.488516 0.183639
C20   C     C_R   0.429107 0.440446 0.118469 0.559907
C21   C     C_R   0.557030 0.554136 0.881428 0.546332
C22   C     C_R   0.565315 0.548986 0.120832 0.546313
C23   C     C_R   0.559320 0.434166 0.764352 -0.156481
C24   C     C_R   0.422363 0.443893 0.878846 0.560146
C25   C     C_R   0.564567 0.551538 0.061162 -0.024864
C26   C     C_R   0.422246 0.442082 0.938569 -0.031323
C27   C     C_R   0.494168 0.496443 0.029943 -0.014213
C28   C     C_R   0.492180 0.497634 0.969839 -0.014394
C29   C     C_R   0.425772 0.440192 0.058685 -0.031175
C30   C     C_R   0.560319 0.554223 0.941151 -0.026030
C31   C     C_R   0.632122 0.607621 0.032178 -0.139085
C32   C     C_R   0.354500 0.386211 0.967582 -0.136334
C33   C     C_R   0.629934 0.609043 0.972644 -0.139096
C34   C     C_R   0.439003 0.566456 0.236178 -0.152911
C35   C     C_R   0.356139 0.385396 0.027161 -0.136841
C36   C     C_3   0.409498 0.717460 0.657734 0.131145
C37   C     C_3   0.333199 0.792765 0.628223 -0.779737
C38   C     C_3   0.730908 0.391573 0.337527 0.152735
C39   C     C_3   0.792225 0.326815 0.381697 -0.784988
C40   C     C_3   0.273557 0.989976 0.491379 0.112794
C41   C     C_3   0.179437 0.063012 0.488883 -0.769688
C42   C     C_3   0.726634 0.010116 0.501258 0.113049
C43   C     C_3   0.820785 0.937145 0.502127 -0.772678
C44   C     C_R   0.563323 0.433213 0.705189 0.101114
C45   C     C_R   0.439363 0.569641 0.295422 0.089841
C46   C     C_R   0.496718 0.499404 0.672576 -0.245516
C47   C     C_R   0.503458 0.500568 0.327416 -0.235227
C48   C     C_R   0.426572 0.566373 0.699574 0.367611
H1    H     H_    0.686773 0.650537 0.055351 0.198261
H2    H     H_    0.437892 0.750242 0.698555 0.162795
H3    H     H_    0.267436 0.810902 0.656014 0.273081
H4    H     H_    0.371572 0.861026 0.619687 0.204104
H5    H     H_    0.303835 0.762902 0.587010 0.250413
H6    H     H_    0.732007 0.469450 0.351980 0.148517
H7    H     H_    0.770014 0.384239 0.296262 0.168569
H8    H     H_    0.793785 0.248546 0.368280 0.262824
H9    H     H_    0.872402 0.348976 0.385827 0.194654
H10   H     H_    0.756652 0.334774 0.423937 0.263067
H11   H     H_    0.268748 0.942021 0.529546 0.145380
H12   H     H_    0.300081 0.343063 0.944395 0.198175
H13   H     H_    0.272289 0.944913 0.451645 0.166209
H14   H     H_    0.181382 0.111721 0.450935 0.262511
H15   H     H_    0.108384 0.022828 0.485639 0.200214
H16   H     H_    0.177980 0.108745 0.528209 0.262008
H17   H     H_    0.731700 0.057004 0.540141 0.160544
H18   H     H_    0.727541 0.056311 0.462026 0.153294
H19   H     H_    0.818444 0.889522 0.463606 0.262554
H20   H     H_    0.891797 0.977409 0.502353 0.200624
H21   H     H_    0.822696 0.890291 0.541063 0.261384
H22   H     H_    0.682977 0.652995 0.951440 0.198531
H23   H     H_    0.302932 0.341650 0.048380 0.197966
H24   H     H_    0.610383 0.383638 0.789864 0.182592
H25   H     H_    0.390978 0.620174 0.211142 0.181895
H26   H     H_    0.995799 0.582619 0.544557 0.176223
H27   H     H_    0.004288 0.417235 0.455428 0.160314
H28   H     H_    0.475447 0.702318 0.629496 0.117394
I1    I     I_    0.666922 0.325448 0.668406 -0.313817
I2    I     I_    0.345837 0.684219 0.333423 -0.322420
I3    I     I_    0.312889 0.661948 0.800408 -0.238570
I4    I     I_    0.648280 0.309146 0.196845 -0.250831
N1    N     N_R   0.498460 0.493891 0.147860 -0.337028
N2    N     N_R   0.488808 0.499612 0.851925 -0.336743
N3    N     N_1   0.234540 0.484780 0.490870 -0.080881
N4    N     N_1   0.765460 0.515220 0.509130 -0.090561
O1    O     O_R   0.402510 0.634760 0.496660 -0.609569
O2    O     O_2   0.621283 0.607868 0.852856 -0.540123
O3    O     O_2   0.632062 0.600951 0.151803 -0.542671
O4    O     O_2   0.356966 0.390652 0.847775 -0.525946
O5    O     O_3   0.359900 0.630734 0.667721 -0.572674
O6    O     O_3   0.629759 0.360846 0.331759 -0.591169
O7    O     O_3   0.363260 0.042126 0.495558 -0.623480
O8    O     O_3   0.636975 0.957860 0.500952 -0.624360
O9    O     O_R   0.597490 0.365240 0.503340 -0.616621
O10   O     O_R   0.572960 0.644530 0.502520 -0.599361
O11   O     O_R   0.427040 0.355470 0.497480 -0.598403
O12   O     O_R   0.414760 0.495140 0.580910 -0.574119
O13   O     O_R   0.585240 0.504860 0.419090 -0.619197
O14   O     O_R   0.585200 0.504910 0.586770 -0.601162
O15   O     O_R   0.414800 0.495090 0.413230 -0.592314
O16   O     O_2   0.364065 0.387828 0.147164 -0.526409
Zn1   Zn    Zn3+2 0.386190 0.493470 0.496090 1.033419
Zn2   Zn    Zn3+2 0.613810 0.506530 0.503910 0.998987

loop_
_geom_bond_atom_site_label_1
_geom_bond_atom_site_label_2
_ccdc_geom_bond_type
C36   O5    S    
C25   C31   A    
C15   C18   S    
C26   C32   A    
C27   C29   A    
C1    C8    S    
N4    Zn2   S    
C3    I3    S    
C36   H2    S    
C36   C37   S    
C24   C26   A    
C4    I4    S    
C38   C39   S    
C37   H3    S    
C39   H9    S    
C3    C48   A    
C2    O6    S    
C9    C13   S    
C24   N2    A    
C36   H28   S    
C38   H7    S    
C1    O10   A    
C22   C25   A    
C38   H6    S    
C42   H17   S    
C18   N4    T    
C31   C33   A    
C12   O11   A    
C45   I2    S    
C9    C10   D    
O13   Zn2   S    
C37   H5    S    
C35   H23   S    
C43   H21   S    
C40   H11   S    
C20   N1    A    
C41   H14   S    
C31   H1    S    
C19   N3    T    
C14   C19   S    
C9    O8    S    
C44   C46   A    
C20   C29   A    
C45   C47   A    
C1    O1    A    
C7    C12   S    
C46   C48   A    
C16   O12   A    
C32   C35   A    
C4    C6    A    
C16   C46   S    
C37   H4    S    
C43   H20   S    
O14   Zn2   S    
C39   H10   S    
C23   C44   A    
C6    C34   A    
C2    C4    A    
C22   N1    A    
C24   O4    S    
C39   H8    S    
C5    C23   A    
C34   C45   A    
C22   O3    S    
C17   O15   A    
C33   H22   S    
C40   C41   S    
O15   Zn1   S    
C10   O7    S    
C48   O5    S    
C12   O9    A    
C42   C43   S    
C32   H12   S    
O1    Zn1   S    
C42   H18   S    
C29   C35   A    
C21   O2    S    
C44   I1    S    
N3    Zn1   S    
C30   C33   A    
C23   H24   S    
C17   C47   S    
C3    C5    A    
O9    Zn2   S    
C2    C47   A    
C25   C27   A    
C21   C30   A    
C38   O6    S    
C26   C28   A    
C14   H27   S    
C28   C30   A    
C20   O16   S    
C5    N2    S    
C16   O14   A    
C8    C11   T    
C42   O8    S    
C40   O7    S    
C10   C11   S    
C40   H13   S    
C34   H25   S    
C7    C13   T    
C15   H26   S    
C21   N2    A    
O10   Zn2   S    
C43   H19   S    
C27   C28   A    
C6    N1    S    
C41   H15   S    
C14   C15   D    
C41   H16   S    
O12   Zn1   S    
C17   O13   A    
O11   Zn1   S    
