data_mof_unit_21147.cif
_audit_creation_date              2012-12-10T17:11:45-0500
_audit_creation_method            fapswitch 2.2
_symmetry_space_group_name_H-M    P1
_symmetry_Int_Tables_number       1
_space_group_crystal_system       triclinic
_cell_length_a                    19.223498
_cell_length_b                    10.68826
_cell_length_c                    10.099346
_cell_angle_alpha                 91.175372
_cell_angle_beta                  88.818565
_cell_angle_gamma                 90.499565
_cell_volume                      2074.12056741

loop_
_atom_site_label
_atom_site_type_symbol
_atom_type_description
_atom_site_fract_x
_atom_site_fract_y
_atom_site_fract_z
_atom_type_partial_charge
C1    C     C_R   0.499061 0.262965 0.498422 0.893281
C2    C     C_R   0.855290 0.476291 0.502925 -0.093001
C3    C     C_2   0.535869 0.933631 0.396807 0.389216
C4    C     C_R   0.366212 0.502081 0.501276 0.890934
C5    C     C_2   0.523154 0.867059 0.505533 -0.330089
C6    C     C_2   0.542517 0.069146 0.414613 0.274894
C7    C     C_2   0.495120 0.129823 0.491457 0.207650
C8    C     C_2   0.522043 0.591826 0.930867 0.314758
C9    C     C_2   0.500711 0.598999 0.075068 0.076189
C10   C     C_R   0.505343 0.736955 0.501063 0.942914
C11   C     C_R   0.634459 0.502161 0.498533 0.904910
C12   C     C_R   0.290975 0.497602 0.502921 -0.249007
C13   C     C_R   0.252574 0.599409 0.556868 0.017327
C14   C     C_R   0.179398 0.593710 0.552511 0.416830
C15   C     C_R   0.146442 0.490496 0.490591 -0.135323
C16   C     C_R   0.185565 0.395377 0.425294 0.062747
C17   C     C_R   0.257693 0.394709 0.439936 0.387447
C18   C     C_3   0.288991 0.714448 0.615773 -0.426665
C19   C     C_3   0.305702 0.809936 0.509103 -0.804961
C20   C     C_3   0.570819 0.691982 0.879819 -0.431455
C21   C     C_3   0.636901 0.700792 0.960710 -0.891383
C22   C     C_3   0.438384 0.428330 0.889518 -0.137390
C23   C     C_R   0.930798 0.480432 0.508251 0.275080
C24   C     C_3   0.373710 0.509847 0.912937 -0.903907
C25   C     C_3   0.152875 0.296387 0.334509 -0.319773
C26   C     C_3   0.172167 0.319626 0.189389 -0.794932
C27   C     C_3   0.844145 0.406189 0.746619 -0.395810
C28   C     C_3   0.833424 0.509542 0.851649 -0.810561
C29   C     C_3   0.722135 0.621853 0.278812 -0.347223
C30   C     C_3   0.698651 0.749358 0.333728 -0.826318
C31   C     C_R   0.070684 0.485719 0.494430 0.378189
C32   C     C_R   0.814434 0.443293 0.614883 0.145713
C33   C     C_R   0.742499 0.449548 0.606803 -0.245951
C34   C     C_R   0.710623 0.499357 0.496376 -0.163861
C35   C     C_R   0.751801 0.543083 0.388328 0.126211
C36   C     C_R   0.823593 0.520396 0.387404 0.399201
H1    H     H_    0.526043 0.911022 0.603486 0.143821
H2    H     H_    0.409282 0.130601 0.597422 0.325370
H3    H     H_    0.624232 0.733064 0.063311 0.279923
H4    H     H_    0.662583 0.608191 0.963066 0.269639
H5    H     H_    0.673606 0.769215 0.915457 0.257805
H6    H     H_    0.587208 0.671929 0.776350 0.263055
H7    H     H_    0.543928 0.783609 0.883999 0.195924
H8    H     H_    0.376669 0.594932 0.852221 0.263634
H9    H     H_    0.326128 0.455831 0.886827 0.252044
H10   H     H_    0.368608 0.538883 0.018761 0.245326
H11   H     H_    0.426824 0.361933 0.807378 0.212308
H12   H     H_    0.488677 0.689297 0.120140 0.133734
H13   H     H_    0.445770 0.366517 0.974043 0.209496
H14   H     H_    0.551380 0.355386 0.173962 0.401137
H15   H     H_    0.159707 0.768456 0.592711 0.343690
H16   H     H_    0.154222 0.413651 0.160779 0.249477
H17   H     H_    0.229205 0.313619 0.171595 0.296093
H18   H     H_    0.146477 0.248067 0.125364 0.241000
H19   H     H_    0.170404 0.201826 0.362285 0.239473
H20   H     H_    0.095491 0.294165 0.340809 0.200750
H21   H     H_    0.338912 0.285134 0.435318 0.326361
H22   H     H_    0.859308 0.597408 0.819267 0.270427
H23   H     H_    0.711095 0.417994 0.690285 0.191928
H24   H     H_    0.777167 0.527139 0.869659 0.251649
H25   H     H_    0.856432 0.480961 0.946251 0.266692
H26   H     H_    0.817971 0.318998 0.780421 0.208337
H27   H     H_    0.900301 0.385756 0.740925 0.233324
H28   H     H_    0.654222 0.739275 0.404416 0.254022
H29   H     H_    0.742252 0.797244 0.385191 0.259820
H30   H     H_    0.682403 0.809328 0.251770 0.259270
H31   H     H_    0.761253 0.640617 0.199249 0.255452
H32   H     H_    0.679502 0.572589 0.226777 0.234862
H33   H     H_    0.902751 0.489787 0.267888 0.339057
H34   H     H_    0.342251 0.769474 0.433459 0.265525
H35   H     H_    0.544024 0.944914 0.205564 0.334496
H36   H     H_    0.257560 0.839178 0.459809 0.252535
H37   H     H_    0.330555 0.893860 0.554932 0.286193
H38   H     H_    0.257279 0.758530 0.696771 0.222601
H39   H     H_    0.337909 0.690402 0.664164 0.231067
H40   H     H_    0.628111 0.072895 0.309126 0.337992
N1    N     N_R   0.033913 0.588513 0.464875 -0.102980
N2    N     N_R   0.965030 0.585985 0.472005 -0.124794
N3    N     N_R   0.967455 0.377339 0.537460 -0.191651
N4    N     N_R   0.036501 0.380754 0.533149 -0.195300
N5    N     N_2   0.500750 0.501330 0.852150 -0.078889
N6    N     N_2   0.500770 0.501360 0.147810 0.017830
O1    O     O_R   0.499990 0.319060 0.613040 -0.645968
O2    O     O_3   0.439197 0.068136 0.550359 -0.826984
O3    O     O_3   0.542166 0.409853 0.098777 -0.714284
O4    O     O_3   0.138289 0.685926 0.610692 -0.749731
O5    O     O_3   0.294120 0.292346 0.389698 -0.758088
O6    O     O_3   0.862049 0.545977 0.273632 -0.780880
O7    O     O_3   0.539915 0.878091 0.271993 -0.782078
O8    O     O_R   0.500010 0.319100 0.386900 -0.597440
O9    O     O_R   0.398130 0.499970 0.613110 -0.634495
O10   O     O_R   0.398150 0.500010 0.386970 -0.601081
O11   O     O_R   0.499990 0.680900 0.613100 -0.662682
O12   O     O_R   0.500010 0.680940 0.386960 -0.559209
O13   O     O_R   0.601850 0.499990 0.613030 -0.633213
O14   O     O_R   0.601870 0.500030 0.386890 -0.603952
O15   O     O_3   0.596168 0.134273 0.352492 -0.797347
Zn1   Zn    Zn3+2 0.499990 0.499970 0.650990 0.919080
Zn2   Zn    Zn3+2 0.500010 0.500030 0.349010 1.002947

loop_
_geom_bond_atom_site_label_1
_geom_bond_atom_site_label_2
_ccdc_geom_bond_type
C11   O14   A    
C18   H39   S    
C5    H1    S    
N6    Zn2   S    
C35   C36   A    
C25   H20   S    
C3    C6    S    
O13   Zn1   S    
C31   N4    A    
N1    N2    A    
C36   O6    S    
C8    C20   S    
C13   C18   S    
C24   H9    S    
C18   C19   S    
C30   H28   S    
N5    Zn1   S    
C10   O12   A    
C2    C36   A    
C15   C16   A    
O14   Zn2   S    
C2    C32   A    
C34   C35   A    
H14   O3    S    
C29   H31   S    
C8    C9    S    
O1    Zn1   S    
H35   O7    S    
C12   C17   A    
C4    C12   S    
C9    N6    D    
C4    O9    A    
C28   H25   S    
C7    O2    S    
C33   H23   S    
C1    C7    S    
C13   C14   A    
C19   H36   S    
C26   H18   S    
H15   O4    S    
C31   N1    A    
C28   H24   S    
C8    N5    D    
C6    O15   S    
C19   H37   S    
C14   O4    S    
C1    O8    A    
C16   C17   A    
C10   O11   A    
C25   C26   S    
H21   O5    S    
C22   N5    S    
C29   C30   S    
C27   H26   S    
C26   H16   S    
C29   H32   S    
C21   H3    S    
C33   C34   A    
C23   N2    A    
C12   C13   A    
C30   H30   S    
H33   O6    S    
C27   H27   S    
C22   H13   S    
C21   H5    S    
C24   H8    S    
C22   C24   S    
C26   H17   S    
O8    Zn2   S    
C2    C23   S    
C20   H7    S    
C11   O13   A    
C16   C25   S    
H2    O2    S    
C27   C32   S    
C17   O5    S    
C11   C34   S    
C25   H19   S    
C3    C5    D    
C20   H6    S    
C15   C31   S    
C6    C7    D    
C28   H22   S    
C1    O1    A    
N6    O3    S    
C29   C35   S    
C3    O7    S    
C24   H10   S    
C32   C33   A    
H40   O15   S    
C5    C10   S    
C21   H4    S    
O12   Zn2   S    
C22   H11   S    
O9    Zn1   S    
C30   H29   S    
N3    N4    A    
C20   C21   S    
C9    H12   S    
C18   H38   S    
C27   C28   S    
C14   C15   A    
C19   H34   S    
C23   N3    A    
O11   Zn1   S    
O10   Zn2   S    
C4    O10   A    
