data_mof_unit_28864.cif
_audit_creation_date              2012-10-26T18:58:01-0400
_audit_creation_method            fapswitch 2.2
_symmetry_space_group_name_H-M    P1
_symmetry_Int_Tables_number       1
_space_group_crystal_system       triclinic
_cell_length_a                    15.130588
_cell_length_b                    13.863031
_cell_length_c                    15.963621
_cell_angle_alpha                 90.438413
_cell_angle_beta                  90.134947
_cell_angle_gamma                 89.999497
_cell_volume                      3348.35494937

loop_
_atom_site_label
_atom_site_type_symbol
_atom_type_description
_atom_site_fract_x
_atom_site_fract_y
_atom_site_fract_z
_atom_type_partial_charge
C1    C     C_R   0.329901 0.500013 0.499992 0.552148
C2    C     C_R   0.435969 0.790084 0.457486 0.047473
C3    C     C_R   0.462712 0.208809 0.434946 0.045593
C4    C     C_R   0.564060 0.791008 0.542254 0.051188
C5    C     C_R   0.499700 0.054592 0.499965 0.026113
C6    C     C_R   0.499822 0.945232 0.499855 0.025564
C7    C     C_R   0.500242 0.499603 0.341243 0.543368
C8    C     C_R   0.500278 0.500395 0.658772 0.543758
C9    C     C_R   0.508328 0.589211 0.957989 0.237319
C10   C     C_R   0.509294 0.411151 0.042139 0.235155
C11   C     C_R   0.503481 0.587436 0.045606 0.227491
C12   C     C_R   0.669938 0.500012 0.500029 0.549865
C13   C     C_R   0.504325 0.412884 0.954508 0.225638
C14   C     C_R   0.505796 0.501709 0.912633 -0.058492
C15   C     C_R   0.505964 0.498580 0.087473 -0.058702
C16   C     C_1   0.503620 0.502350 0.822887 -0.001524
C17   C     C_1   0.503899 0.497762 0.177193 -0.002596
C18   C     C_1   0.502029 0.498467 0.252221 -0.026335
C19   C     C_1   0.501866 0.501545 0.747833 -0.025004
C20   C     C_R   0.095439 0.582712 0.472888 0.250166
C21   C     C_R   0.903802 0.426054 0.457664 0.252471
C22   C     C_R   0.903852 0.574525 0.542423 0.253841
C23   C     C_R   0.048380 0.500329 0.500237 0.031086
C24   C     C_R   0.095470 0.417851 0.527561 0.248712
C25   C     C_R   0.187330 0.582834 0.476400 -0.136692
C26   C     C_R   0.811961 0.424668 0.461586 -0.135660
C27   C     C_R   0.811987 0.575671 0.538496 -0.135916
C28   C     C_R   0.187334 0.417501 0.523852 -0.137906
C29   C     C_R   0.233490 0.500096 0.500053 -0.088984
C30   C     C_R   0.766042 0.500090 0.500063 -0.087514
C31   C     C_3   0.415564 0.697522 0.111785 0.025484
C32   C     C_3   0.417340 0.772078 0.182848 -0.254556
C33   C     C_3   0.324354 0.796185 0.213361 -0.497420
C34   C     C_R   0.951013 0.500332 0.500074 0.032865
C35   C     C_3   0.416451 0.300572 0.891519 0.025079
C36   C     C_3   0.416913 0.219734 0.825888 -0.255464
C37   C     C_3   0.323225 0.191615 0.799830 -0.487510
C38   C     C_3   0.592854 0.699385 0.887365 0.021234
C39   C     C_3   0.643476 0.760433 0.951857 -0.248181
C40   C     C_3   0.731739 0.794721 0.916850 -0.501964
C41   C     C_3   0.595105 0.301751 0.112629 0.020852
C42   C     C_3   0.645903 0.241525 0.047900 -0.249059
C43   C     C_3   0.734598 0.207868 0.082781 -0.500705
C44   C     C_3   0.024921 0.663770 0.366417 0.023269
C45   C     C_R   0.536869 0.108336 0.566675 -0.141735
C46   C     C_3   0.101912 0.680304 0.305659 -0.288407
C47   C     C_3   0.068882 0.694374 0.216218 -0.484965
C48   C     C_3   0.976983 0.374296 0.338796 0.022631
C49   C     C_3   0.901531 0.386861 0.275142 -0.289320
C50   C     C_3   0.937162 0.397634 0.186384 -0.487770
C51   C     C_3   0.976930 0.626769 0.661477 0.023113
C52   C     C_3   0.901369 0.615526 0.724867 -0.290409
C53   C     C_3   0.936862 0.605512 0.813905 -0.486982
C54   C     C_3   0.024786 0.337299 0.633949 0.022759
C55   C     C_3   0.101774 0.322253 0.695369 -0.287122
C56   C     C_R   0.434310 0.891541 0.457074 -0.140333
C57   C     C_3   0.068621 0.308752 0.784694 -0.486038
C58   C     C_R   0.462510 0.107313 0.433357 -0.139887
C59   C     C_R   0.565531 0.892471 0.542527 -0.138825
C60   C     C_R   0.537002 0.209779 0.565114 0.044162
Cu1   Cu    Cu3+1 0.500000 0.596430 0.500000 0.937882
Cu2   Cu    Cu3+1 0.500000 0.403570 0.500000 0.932097
H1    H     H_    0.222546 0.647478 0.458381 0.143139
H2    H     H_    0.385438 0.750366 0.423813 0.115929
H3    H     H_    0.433076 0.247545 0.383503 0.128388
H4    H     H_    0.614761 0.752015 0.575798 0.115008
H5    H     H_    0.376856 0.633862 0.133412 0.116573
H6    H     H_    0.381812 0.729040 0.056341 0.160632
H7    H     H_    0.456289 0.743172 0.236230 0.185649
H8    H     H_    0.449959 0.839034 0.160729 0.170037
H9    H     H_    0.283816 0.825263 0.161238 0.148896
H10   H     H_    0.328121 0.851316 0.264078 0.141310
H11   H     H_    0.292012 0.730659 0.238627 0.141790
H12   H     H_    0.776413 0.365792 0.431775 0.149950
H13   H     H_    0.377506 0.362132 0.865969 0.119243
H14   H     H_    0.383819 0.274162 0.949440 0.161237
H15   H     H_    0.453638 0.244061 0.769597 0.176899
H16   H     H_    0.451187 0.155564 0.851782 0.168730
H17   H     H_    0.285038 0.166827 0.854976 0.145633
H18   H     H_    0.325951 0.132088 0.752970 0.155824
H19   H     H_    0.288985 0.254113 0.771127 0.145656
H20   H     H_    0.584629 0.742158 0.829285 0.150336
H21   H     H_    0.632733 0.634656 0.869602 0.108460
H22   H     H_    0.603056 0.824202 0.969939 0.188570
H23   H     H_    0.776457 0.634500 0.568248 0.138216
H24   H     H_    0.656236 0.716939 0.008774 0.190247
H25   H     H_    0.773624 0.731994 0.899293 0.144426
H26   H     H_    0.767081 0.838107 0.965137 0.149543
H27   H     H_    0.720912 0.840356 0.860856 0.145982
H28   H     H_    0.587592 0.258630 0.170563 0.151127
H29   H     H_    0.634472 0.366844 0.130600 0.111298
H30   H     H_    0.605898 0.177481 0.029536 0.187875
H31   H     H_    0.658067 0.285445 0.991172 0.188985
H32   H     H_    0.776063 0.270888 0.100625 0.144826
H33   H     H_    0.770056 0.165099 0.034316 0.148046
H34   H     H_    0.222549 0.352792 0.541843 0.153000
H35   H     H_    0.724401 0.161805 0.138566 0.150790
H36   H     H_    0.976095 0.722775 0.358027 0.168293
H37   H     H_    0.989121 0.596052 0.350987 0.103913
H38   H     H_    0.139662 0.745358 0.325602 0.173615
H39   H     H_    0.147095 0.617151 0.306503 0.142271
H40   H     H_    0.030578 0.630379 0.195010 0.142155
H41   H     H_    0.126111 0.704014 0.173674 0.143501
H42   H     H_    0.026314 0.759492 0.212574 0.151108
H43   H     H_    0.019950 0.314324 0.316780 0.165816
H44   H     H_    0.019996 0.439012 0.341108 0.106557
H45   H     H_    0.564909 0.072805 0.620637 0.088049
H46   H     H_    0.857004 0.323149 0.277208 0.171813
H47   H     H_    0.862524 0.452336 0.291133 0.146745
H48   H     H_    0.983325 0.459729 0.183220 0.142149
H49   H     H_    0.881502 0.410448 0.142410 0.142045
H50   H     H_    0.972303 0.330924 0.166622 0.148318
H51   H     H_    0.020416 0.686486 0.683284 0.167349
H52   H     H_    0.019378 0.561586 0.659767 0.107181
H53   H     H_    0.857262 0.679551 0.722023 0.168563
H54   H     H_    0.861945 0.550182 0.709239 0.144900
H55   H     H_    0.982547 0.543051 0.817873 0.142476
H56   H     H_    0.381039 0.927116 0.424249 0.088696
H57   H     H_    0.881075 0.593745 0.857715 0.141304
H58   H     H_    0.972495 0.672134 0.833237 0.149144
H59   H     H_    0.976528 0.277802 0.642436 0.166891
H60   H     H_    0.988267 0.404713 0.648643 0.103574
H61   H     H_    0.140171 0.257419 0.676204 0.176385
H62   H     H_    0.146379 0.385886 0.694331 0.145157
H63   H     H_    0.029628 0.372513 0.805108 0.141862
H64   H     H_    0.125810 0.300234 0.827727 0.143461
H65   H     H_    0.026676 0.243188 0.788561 0.150314
H66   H     H_    0.434286 0.070930 0.379429 0.090086
H67   H     H_    0.618816 0.928790 0.575189 0.090930
H68   H     H_    0.566710 0.249207 0.616637 0.125185
N1    N     N_R   0.500000 0.258690 0.500000 -0.221680
N2    N     N_R   0.500000 0.741310 0.500000 -0.218006
O1    O     O_R   0.371460 0.581430 0.500010 -0.506423
O2    O     O_3   0.504627 0.327207 0.909509 -0.558469
O3    O     O_3   0.507218 0.677102 0.917301 -0.548059
O4    O     O_3   0.509102 0.323263 0.082842 -0.553080
O5    O     O_3   0.053273 0.667597 0.450855 -0.520692
O6    O     O_3   0.945428 0.348617 0.418955 -0.520584
O7    O     O_3   0.945544 0.652094 0.581038 -0.521276
O8    O     O_3   0.053346 0.333041 0.549709 -0.520620
O9    O     O_R   0.628540 0.418570 0.499990 -0.497195
O10   O     O_R   0.628540 0.581430 0.499990 -0.505876
O11   O     O_R   0.371460 0.418570 0.500010 -0.499047
O12   O     O_R   0.499980 0.581410 0.380310 -0.496098
O13   O     O_R   0.500020 0.418590 0.619690 -0.506992
O14   O     O_R   0.500020 0.581410 0.619690 -0.493142
O15   O     O_R   0.499980 0.418590 0.380310 -0.505802
O16   O     O_3   0.503466 0.673177 0.090562 -0.555412

loop_
_geom_bond_atom_site_label_1
_geom_bond_atom_site_label_2
_ccdc_geom_bond_type
C28   H34   S    
C21   C26   A    
C45   C60   A    
C58   H66   S    
C44   O5    S    
C38   H21   S    
C42   H31   S    
C13   O2    S    
C35   C36   S    
Cu2   O11   S    
Cu1   O14   S    
C53   H58   S    
Cu1   O1    S    
C4    N2    A    
C24   O8    S    
C31   H5    S    
C37   H17   S    
C35   H13   S    
C51   H51   S    
C5    C58   A    
C3    N1    A    
C40   H25   S    
C28   C29   A    
C10   O4    S    
C39   H22   S    
C36   H15   S    
C57   H63   S    
C38   C39   S    
C44   H37   S    
C53   H55   S    
C11   O16   S    
C20   C25   A    
C50   H48   S    
C43   H32   S    
C12   O9    A    
C35   O2    S    
C25   H1    S    
C27   H23   S    
C33   H10   S    
C46   C47   S    
C44   H36   S    
C48   H44   S    
C48   H43   S    
C2    H2    S    
Cu2   O13   S    
C2    N2    A    
C23   C24   A    
C40   H27   S    
Cu1   N2    S    
C23   C34   S    
C41   H28   S    
C54   H60   S    
C47   H40   S    
C13   C14   A    
C38   H20   S    
C27   C30   A    
C37   H19   S    
C3    H3    S    
C11   C15   A    
C21   O6    S    
C1    O1    A    
Cu2   N1    S    
C60   N1    A    
C1    C29   S    
C7    O12   A    
C37   H18   S    
C44   C46   S    
C49   H46   S    
C7    O15   A    
C52   H54   S    
C25   C29   A    
C31   H6    S    
C22   C34   A    
C46   H39   S    
C54   O8    S    
C35   H14   S    
C51   H52   S    
C47   H41   S    
C51   C52   S    
C8    C19   S    
C43   H35   S    
C60   H68   S    
C57   H64   S    
C32   H8    S    
C21   C34   A    
C5    C45   A    
C22   O7    S    
C20   O5    S    
C9    C14   A    
C41   C42   S    
C1    O11   A    
Cu1   O12   S    
C43   H33   S    
C31   C32   S    
C20   C23   A    
C7    C18   S    
C8    O13   A    
C50   H50   S    
C17   C18   T    
C38   O3    S    
C9    C11   A    
C31   O16   S    
C9    O3    S    
C33   H11   S    
C48   C49   S    
C41   H29   S    
C54   H59   S    
C26   C30   A    
Cu2   O15   S    
C55   C57   S    
C14   C16   S    
C42   C43   S    
Cu2   O9    S    
C55   H61   S    
C39   C40   S    
C52   C53   S    
C49   H47   S    
C52   H53   S    
C15   C17   S    
C46   H38   S    
C54   C55   S    
C36   C37   S    
C47   H42   S    
C12   C30   S    
C10   C15   A    
C56   H56   S    
C6    C59   A    
C8    O14   A    
C24   C28   A    
C6    C56   A    
C10   C13   A    
C57   H65   S    
C53   H57   S    
C32   H7    S    
C48   O6    S    
C22   C27   A    
C32   C33   S    
C40   H26   S    
C59   H67   S    
C36   H16   S    
C4    H4    S    
C5    C6    S    
C16   C19   T    
C4    C59   A    
C50   H49   S    
C26   H12   S    
C12   O10   A    
C42   H30   S    
Cu1   Cu2   S    
C33   H9    S    
C3    C58   A    
Cu1   O10   S    
C49   C50   S    
C55   H62   S    
C2    C56   A    
C39   H24   S    
C41   O4    S    
C45   H45   S    
C51   O7    S    
