data_mof_unit_9717.cif
_audit_creation_date              2012-12-11T15:47:04-0500
_audit_creation_method            fapswitch 2.2
_symmetry_space_group_name_H-M    P1
_symmetry_Int_Tables_number       1
_space_group_crystal_system       triclinic
_cell_length_a                    20.039793
_cell_length_b                    7.28199
_cell_length_c                    13.970906
_cell_angle_alpha                 90.08116
_cell_angle_beta                  103.15469
_cell_angle_gamma                 89.785893
_cell_volume                      1985.25518705

loop_
_atom_site_label
_atom_site_type_symbol
_atom_type_description
_atom_site_fract_x
_atom_site_fract_y
_atom_site_fract_z
_atom_type_partial_charge
O1    O     O_R   0.449560 0.506810 0.599700 -0.530833
O2    O     O_R   0.550440 0.006810 0.400300 -0.532911
O3    O     O_R   0.587960 0.180060 0.595760 -0.537285
O4    O     O_R   0.412040 0.680060 0.404240 -0.539360
C1    C     C_R   0.614747 0.344373 0.617188 0.690013
C2    C     C_R   0.383060 0.843121 0.388004 0.713268
O5    O     O_R   0.452380 0.177430 0.611700 -0.547044
O6    O     O_R   0.547620 0.677430 0.388300 -0.544449
O7    O     O_R   0.413900 0.001890 0.416350 -0.542528
O8    O     O_R   0.586100 0.501890 0.583650 -0.541701
C3    C     C_R   0.436248 0.345403 0.635743 0.688876
C4    C     C_R   0.564179 0.844746 0.364342 0.701768
O9    O     O_3   0.487530 0.337490 0.435890 -0.385083
O10   O     O_3   0.512470 0.837490 0.564110 -0.380356
V1    V     V_3+5 0.502310 0.064660 0.511890 1.487852
V2    V     V_3+5 0.497690 0.564660 0.488110 1.476821
C5    C     C_R   0.605167 0.763356 0.120884 -0.026571
C6    C     C_R   0.398769 0.262557 0.879697 -0.031595
H1    H     H_    0.513409 0.777379 0.175783 0.136978
H2    H     H_    0.488167 0.254188 0.819434 0.143325
C7    C     C_R   0.602242 0.844670 0.287352 -0.040640
C8    C     C_R   0.399835 0.347892 0.713860 -0.029228
C9    C     C_R   0.931761 0.854448 0.314741 -0.084502
C10   C     C_R   0.071762 0.343521 0.690456 -0.086468
C11   C     C_R   0.895356 0.851638 0.389395 -0.031543
C12   C     C_R   0.108211 0.337013 0.616201 -0.030686
C13   C     C_R   0.823935 0.845265 0.365865 -0.182188
C14   C     C_R   0.179623 0.338956 0.640020 -0.180890
C15   C     C_R   0.786226 0.838046 0.267265 0.074722
C16   C     C_R   0.217423 0.346574 0.738776 0.074326
C17   C     C_R   0.822674 0.841434 0.191001 0.003833
C18   C     C_R   0.181089 0.353150 0.815210 -0.004921
C19   C     C_R   0.712963 0.827009 0.242270 0.080974
C20   C     C_R   0.290694 0.341729 0.762959 0.077400
C21   C     C_R   0.678273 0.776040 0.144767 0.019798
C22   C     C_R   0.327046 0.303607 0.861239 0.011096
C23   C     C_R   0.717529 0.749956 0.073722 -0.102159
C24   C     C_R   0.291104 0.314229 0.936926 -0.111371
C25   C     C_R   0.784730 0.817116 0.093147 -0.091729
C26   C     C_R   0.220267 0.352296 0.913985 -0.079293
C27   C     C_R   0.673236 0.864092 0.311770 -0.200105
C28   C     C_R   0.329133 0.373171 0.691586 -0.209473
C29   C     C_R   0.568727 0.793252 0.193076 -0.155172
C30   C     C_R   0.433877 0.286872 0.805940 -0.155264
C31   C     C_R   0.896134 0.858784 0.215185 -0.105528
C32   C     C_R   0.107154 0.357968 0.789742 -0.109856
H3    H     H_    0.695926 0.907719 0.385813 0.109859
H4    H     H_    0.305530 0.417019 0.617865 0.136759
H5    H     H_    0.799234 0.835193 0.426697 0.124416
H6    H     H_    0.204524 0.324084 0.579566 0.136725
C33   C     C_R   0.200706 0.008243 0.267078 0.028522
C34   C     C_R   0.795959 0.506384 0.734976 0.041523
C35   C     C_R   0.268882 0.002279 0.323743 -0.098370
C36   C     C_R   0.728405 0.498612 0.676824 -0.143895
H7    H     H_    0.288213 0.115164 0.370900 0.155567
H8    H     H_    0.710562 0.605636 0.623235 0.170384
C37   C     C_R   0.309877 0.844140 0.329231 -0.136572
C38   C     C_R   0.684526 0.351099 0.683178 -0.146529
C39   C     C_R   0.277289 0.682577 0.285803 -0.012718
C40   C     C_R   0.710174 0.205585 0.747426 -0.019806
C41   C     C_R   0.213412 0.693537 0.220146 -0.131156
C42   C     C_R   0.777856 0.208599 0.800938 -0.148848
H9    H     H_    0.190942 0.569277 0.187131 0.156882
H10   H     H_    0.796455 0.090383 0.842850 0.170817
C43   C     C_R   0.176112 0.857888 0.203319 -0.096045
C44   C     C_R   0.820611 0.360584 0.802292 -0.108077
O11   O     O_R   0.913920 0.203370 0.916260 -0.539335
O12   O     O_R   0.086080 0.703370 0.083740 -0.538414
O13   O     O_R   0.047620 0.535540 0.888290 -0.515213
O14   O     O_R   0.952380 0.035540 0.111710 -0.508345
C45   C     C_R   0.065262 0.367819 0.864516 0.696502
C46   C     C_R   0.936935 0.867764 0.138393 0.694846
O15   O     O_R   0.912040 0.532780 0.904220 -0.520614
O16   O     O_R   0.087960 0.032780 0.095780 -0.520683
O17   O     O_R   0.949550 0.708160 0.099720 -0.545152
O18   O     O_R   0.050450 0.208160 0.900280 -0.539332
C47   C     C_R   0.887489 0.365137 0.877941 0.766949
C48   C     C_R   0.111647 0.864469 0.123293 0.781524
O19   O     O_3   0.012480 0.375300 0.064060 -0.386866
O20   O     O_3   0.987520 0.875300 0.935940 -0.385008
V3    V     V_3+5 0.997690 0.648180 0.988110 1.571296
V4    V     V_3+5 0.002310 0.148180 0.011890 1.579034
C49   C     C_2   0.303643 0.498694 0.318364 0.830450
O21   O     O_2   0.312047 0.383629 0.258715 -0.543704
O22   O     O_R   0.317806 0.457445 0.418844 -0.659396
H11   H     H_    0.347825 0.345037 0.436455 0.277678
C50   C     C_2   0.666874 0.051045 0.763927 0.850895
O23   O     O_2   0.630569 0.067046 0.822914 -0.560651
O24   O     O_R   0.666048 0.889661 0.709725 -0.631985
H12   H     H_    0.631640 0.797394 0.723399 0.325207
C51   C     C_2   0.692287 0.636842 0.984299 0.810379
O25   O     O_2   0.690424 0.699009 0.902649 -0.537386
O26   O     O_R   0.670068 0.457660 0.994453 -0.646656
H13   H     H_    0.653710 0.393805 0.928825 0.321104
C52   C     C_2   0.328202 0.311410 0.041662 0.846933
O27   O     O_2   0.320264 0.182698 0.094017 -0.505237
O28   O     O_R   0.373194 0.454234 0.078864 -0.652054
H14   H     H_    0.398728 0.432802 0.149359 0.316905
C53   C     C_1   0.564252 0.733497 0.022539 0.389561
N1    N     N_1   0.531084 0.710005 0.944109 -0.313954
C54   C     C_1   0.438133 0.181180 0.969451 0.366143
N2    N     N_1   0.470024 0.116007 0.040945 -0.327952
C55   C     C_1   0.005785 0.835653 0.340906 0.356248
N3    N     N_1   0.064691 0.817521 0.362733 -0.349317
C56   C     C_1   0.997718 0.323744 0.664467 0.360105
N4    N     N_1   0.938842 0.305682 0.643172 -0.341533
C57   C     C_1   0.930853 0.851207 0.491931 0.339836
N5    N     N_1   0.959546 0.851132 0.573782 -0.304724
C58   C     C_1   0.072510 0.324610 0.514029 0.336451
N6    N     N_1   0.043175 0.315012 0.432669 -0.308472
C59   C     C_2   0.808944 0.896460 0.011625 0.764744
O29   O     O_2   0.818166 0.062077 0.011339 -0.557515
O30   O     O_R   0.824904 0.783198 0.939512 -0.642673
H15   H     H_    0.852240 0.847992 0.897289 0.293536
C60   C     C_2   0.190897 0.414487 0.994764 0.744911
O31   O     O_2   0.183247 0.578742 0.005559 -0.552619
O32   O     O_R   0.173960 0.286181 0.059009 -0.635918
H16   H     H_    0.145848 0.340744 0.103449 0.291744
C61   C     C_2   0.155329 0.159915 0.287583 0.757865
O33   O     O_2   0.093078 0.143598 0.267230 -0.539697
O34   O     O_R   0.183849 0.316917 0.337681 -0.674379
H17   H     H_    0.148218 0.410737 0.346421 0.306302
C62   C     C_2   0.839174 0.662367 0.716613 0.767305
O35   O     O_2   0.900858 0.642885 0.725593 -0.541133
O36   O     O_R   0.808487 0.830820 0.684316 -0.662739
H18   H     H_    0.842817 0.926096 0.673572 0.304439

loop_
_geom_bond_atom_site_label_1
_geom_bond_atom_site_label_2
_ccdc_geom_bond_type
C24   C26   A    
C50   O23   D    
O26   H13   S    
C9    C31   A    
C13   C15   A    
C35   H7    S    
C52   O27   D    
O11   C47   A    
O2    C4    A    
C2    O7    A    
O28   H14   S    
O3    V1    S    
C62   O35   D    
O22   H11   S    
O5    C3    A    
C54   N2    T    
C1    C38   S    
O12   V3    S    
C21   C23   A    
C10   C12   A    
C45   O18   A    
C34   C62   S    
C37   C39   A    
C26   C60   S    
C38   C40   A    
C60   O31   D    
C15   C19   A    
C40   C42   A    
C33   C43   A    
O13   C45   A    
C42   H10   S    
C62   O36   S    
C7    C29   A    
C14   H6    S    
C9    C55   S    
C53   N1    T    
C34   C36   A    
C20   C28   A    
C60   O32   S    
O1    C3    A    
C24   C52   S    
C33   C61   S    
C57   N5    T    
C25   C59   S    
O6    V2    S    
C31   C46   S    
C2    C37   S    
O16   V4    S    
C46   O17   A    
O15   V3    S    
H2    C30   S    
C40   C50   S    
H1    C29   S    
C61   O34   S    
O12   C48   A    
C36   H8    S    
C39   C41   A    
C32   C45   S    
C16   C20   A    
O4    C2    A    
O18   V4    S    
C51   O25   D    
C42   C44   A    
O17   V3    S    
O5    V1    S    
C4    C7    S    
C33   C35   A    
C6    C54   S    
O4    V2    S    
C5    C29   A    
C6    C30   A    
C51   O26   S    
C49   O21   D    
O6    C4    A    
C41   H9    S    
C27   H3    S    
C59   O30   S    
O1    V2    S    
C28   H4    S    
O2    V1    S    
C5    C53   S    
C12   C58   S    
O34   H17   S    
C7    C27   A    
C49   O22   S    
C50   O24   S    
C17   C31   A    
O36   H18   S    
C34   C44   A    
C11   C57   S    
O30   H15   S    
C36   C38   A    
C44   C47   S    
C8    C30   A    
C43   C48   S    
C59   O29   D    
C18   C32   A    
C39   C49   S    
O20   V3    S    
O3    C1    A    
C35   C37   A    
O19   V4    S    
C61   O33   D    
C52   O28   S    
C11   C13   A    
C56   N4    T    
C3    C8    S    
C12   C14   A    
C19   C27   A    
C22   C24   A    
O7    V1    S    
C10   C32   A    
C1    O8    A    
C23   C25   A    
O8    V2    S    
O32   H16   S    
C16   C18   A    
C8    C28   A    
C14   C16   A    
C19   C21   A    
C17   C25   A    
C20   C22   A    
C18   C26   A    
O14   V4    S    
O13   V3    S    
C41   C43   A    
C9    C11   A    
O11   V4    S    
C15   C17   A    
O16   C48   A    
O9    V2    S    
C55   N3    T    
O15   C47   A    
O10   V1    S    
O14   C46   A    
C10   C56   S    
C5    C21   A    
O24   H12   S    
C58   N6    T    
C6    C22   A    
C13   H5    S    
C23   C51   S    
