data_mof_unit_38368.cif
_audit_creation_date              2012-10-26T20:51:11-0400
_audit_creation_method            fapswitch 2.2
_symmetry_space_group_name_H-M    P1
_symmetry_Int_Tables_number       1
_space_group_crystal_system       triclinic
_cell_length_a                    12.966571
_cell_length_b                    10.809656
_cell_length_c                    9.575205
_cell_angle_alpha                 90.300374
_cell_angle_beta                  95.769997
_cell_angle_gamma                 89.743971
_cell_volume                      1335.27208717

loop_
_atom_site_label
_atom_site_type_symbol
_atom_type_description
_atom_site_fract_x
_atom_site_fract_y
_atom_site_fract_z
_atom_type_partial_charge
C1    C     C_R   0.495822 0.262470 0.498958 0.545517
C2    C     C_R   0.447446 0.932702 0.377469 -0.152447
C3    C     C_R   0.486291 0.870279 0.499998 -0.003174
C4    C     C_R   0.300827 0.498984 0.474182 0.539473
C5    C     C_R   0.506975 0.937333 0.624032 0.015595
C6    C     C_3   0.598486 0.932440 0.731858 -0.239486
C7    C     C_3   0.597087 0.072981 0.730535 -0.266205
C8    C     C_R   0.590703 0.507991 0.085158 0.160028
C9    C     C_R   0.409761 0.505350 0.061931 0.006383
C10   C     C_R   0.409750 0.505197 0.913775 -0.001768
C11   C     C_R   0.590542 0.508998 0.938203 0.177617
C12   C     C_R   0.027223 0.535725 0.560550 -0.023367
C13   C     C_3   0.680157 0.422130 0.940751 -0.258689
C14   C     C_3   0.681701 0.421228 0.099595 -0.159172
C15   C     C_R   0.497835 0.737450 0.500066 0.557180
C16   C     C_R   0.699233 0.502177 0.526191 0.577646
C17   C     C_R   0.811721 0.510568 0.542170 -0.001156
C18   C     C_R   0.188459 0.493563 0.460619 0.010783
C19   C     C_R   0.028213 0.416874 0.342352 -0.106492
C20   C     C_R   0.135003 0.430599 0.347772 -0.120877
C21   C     C_R   0.134939 0.546289 0.565878 -0.122628
C22   C     C_1   0.659466 0.298198 0.154257 0.229629
C23   C     C_R   0.974136 0.468355 0.448208 0.024422
C24   C     C_1   0.021464 0.660292 0.780581 0.244959
C25   C     C_1   0.403477 0.121910 0.246832 0.244733
C26   C     C_R   0.867477 0.453771 0.442395 -0.189155
C27   C     C_R   0.863220 0.579073 0.652880 0.341622
C28   C     C_R   0.971006 0.590377 0.664005 -0.000611
C29   C     C_R   0.505812 0.064330 0.622524 0.014351
C30   C     C_R   0.483098 0.129080 0.497350 0.002379
C31   C     C_R   0.444432 0.062109 0.375391 -0.031163
Cu1   Cu    Cu3+1 0.499990 0.499980 0.640670 0.982373
Cu2   Cu    Cu3+1 0.500010 0.500020 0.359330 0.983100
F1    F     F_    0.808406 0.638779 0.746850 -0.645731
H1    H     H_    0.827671 0.397575 0.360335 0.123190
H2    H     H_    0.987900 0.366039 0.255638 0.116881
H3    H     H_    0.176175 0.388891 0.266344 0.132398
H4    H     H_    0.177977 0.595711 0.651428 0.124682
H5    H     H_    0.422458 0.881179 0.282655 0.143006
H6    H     H_    0.578557 0.892876 0.832614 0.164173
H7    H     H_    0.668277 0.891553 0.690539 0.180639
H8    H     H_    0.576157 0.114288 0.830512 0.161212
H9    H     H_    0.666164 0.114062 0.688733 0.139663
H10   H     H_    0.336337 0.506107 0.105962 0.131446
H11   H     H_    0.336215 0.505816 0.850086 0.128463
H12   H     H_    0.658865 0.332815 0.887267 0.135395
H13   H     H_    0.749901 0.466648 0.905329 0.188682
H14   H     H_    0.752253 0.465162 0.152746 0.111861
N1    N     N_R   0.500660 0.500930 0.148010 -0.233843
N2    N     N_R   0.500660 0.500890 0.852110 -0.238668
N3    N     N_1   0.643006 0.200950 0.196586 -0.285447
N4    N     N_1   0.061799 0.716144 0.873887 -0.286369
N5    N     N_1   0.370641 0.169700 0.143828 -0.291368
O1    O     O_R   0.500000 0.319640 0.618810 -0.506583
O2    O     O_R   0.500010 0.319680 0.381230 -0.473675
O3    O     O_R   0.348990 0.499960 0.599490 -0.521376
O4    O     O_R   0.349000 0.500000 0.361910 -0.518189
O5    O     O_R   0.499990 0.680320 0.618770 -0.484302
O6    O     O_R   0.500000 0.680360 0.381190 -0.503867
O7    O     O_R   0.651000 0.500000 0.638090 -0.457786
O8    O     O_R   0.651010 0.500040 0.400510 -0.515888

loop_
_geom_bond_atom_site_label_1
_geom_bond_atom_site_label_2
_ccdc_geom_bond_type
C4    O4    A    
C24   N4    T    
C19   C23   A    
C1    O1    A    
C25   C31   S    
C6    C7    S    
C7    C29   S    
C7    H9    S    
C18   C21   A    
C9    C10   A    
C5    C29   A    
C19   C20   A    
Cu1   O5    S    
C4    C18   S    
Cu1   Cu2   S    
C14   C22   S    
C10   H11   S    
C2    C3    A    
C1    O2    A    
C3    C15   S    
Cu2   O2    S    
Cu2   O6    S    
C11   N2    A    
C13   C14   S    
C4    O3    A    
C20   H3    S    
C11   C13   S    
C12   C23   A    
Cu1   N2    S    
C29   C30   A    
C12   C21   A    
C12   C28   A    
C8    C11   A    
C5    C6    S    
C8    N1    A    
Cu1   O1    S    
C1    C30   S    
C25   N5    T    
C18   C20   A    
C19   H2    S    
C2    C31   A    
C27   F1    S    
C30   C31   A    
C15   O5    A    
C6    H6    S    
C23   C26   A    
C16   O8    A    
C17   C26   A    
Cu2   N1    S    
C17   C27   A    
C26   H1    S    
C9    N1    A    
Cu2   O8    S    
C16   O7    A    
C7    H8    S    
C27   C28   A    
C13   H13   S    
C14   H14   S    
Cu1   O7    S    
C13   H12   S    
C22   N3    T    
C9    H10   S    
Cu2   O4    S    
C8    C14   S    
C15   O6    A    
C2    H5    S    
Cu1   O3    S    
C21   H4    S    
C24   C28   S    
C16   C17   S    
C3    C5    A    
C6    H7    S    
C10   N2    A    
