data_mof_unit_40404.cif
_audit_creation_date              2012-12-10T17:47:42-0500
_audit_creation_method            fapswitch 2.2
_symmetry_space_group_name_H-M    P1
_symmetry_Int_Tables_number       1
_space_group_crystal_system       triclinic
_cell_length_a                    10.632613
_cell_length_b                    10.738696
_cell_length_c                    9.883767
_cell_angle_alpha                 88.604534
_cell_angle_beta                  89.972767
_cell_angle_gamma                 91.936086
_cell_volume                      1127.55275739

loop_
_atom_site_label
_atom_site_type_symbol
_atom_type_description
_atom_site_fract_x
_atom_site_fract_y
_atom_site_fract_z
_atom_type_partial_charge
C1    C     C_R   0.505987 0.259678 0.502709 0.893775
C2    C     C_3   0.878863 0.502439 0.498264 0.064575
C3    C     C_3   0.932172 0.615678 0.576946 -0.358001
C4    C     C_3   0.929319 0.510789 0.350150 0.490712
C5    C     C_R   0.495916 0.102069 0.763427 -0.163273
C6    C     C_R   0.446186 0.035295 0.875089 -0.122392
C7    C     C_R   0.382756 0.921818 0.856953 -0.122999
C8    C     C_R   0.380814 0.869392 0.729510 -0.133471
C9    C     C_R   0.442479 0.931031 0.618341 0.026907
C10   C     C_R   0.482873 0.055465 0.630677 0.098511
C11   C     C_R   0.508683 0.125631 0.509095 -0.219727
C12   C     C_R   0.257728 0.500377 0.499748 0.826610
C13   C     C_R   0.518411 0.066617 0.385293 -0.308987
C14   C     C_R   0.503652 0.940041 0.379349 0.623464
C15   C     C_R   0.470194 0.871051 0.496659 -0.285400
C16   C     C_R   0.331130 0.339262 0.144186 -0.166426
C17   C     C_R   0.246630 0.261924 0.075557 -0.207354
C18   C     C_R   0.246515 0.262510 0.935526 -0.194067
C19   C     C_R   0.331411 0.339917 0.863439 -0.174872
C20   C     C_R   0.416754 0.421056 0.929577 0.153488
C21   C     C_R   0.416726 0.420947 0.074337 0.163226
C22   C     C_R   0.579416 0.575857 0.069543 -0.056023
C23   C     C_R   0.487636 0.738873 0.498569 0.925596
C24   C     C_R   0.579387 0.575814 0.926218 -0.120740
C25   C     C_R   0.742344 0.501650 0.499607 0.868807
C26   C     C_3   0.067659 0.380749 0.569464 -0.426458
C27   C     C_3   0.923327 0.380280 0.566876 -0.512448
C28   C     C_3   0.076620 0.616564 0.574470 -0.407011
C29   C     C_3   0.072096 0.507501 0.350700 -0.419369
C30   C     C_3   0.121369 0.501319 0.498700 0.116792
H1    H     H_    0.100255 0.375037 0.676352 0.196274
H2    H     H_    0.113731 0.703755 0.523306 0.167181
H3    H     H_    0.898653 0.704255 0.531126 0.202896
H4    H     H_    0.539854 0.118200 0.292007 0.196084
H5    H     H_    0.548822 0.186558 0.785169 0.173060
H6    H     H_    0.339185 0.872264 0.942389 0.159772
H7    H     H_    0.331593 0.780292 0.718867 0.151023
H8    H     H_    0.644184 0.637775 0.121900 0.208424
H9    H     H_    0.101281 0.297225 0.517504 0.160455
H10   H     H_    0.326388 0.331906 0.251550 0.203543
H11   H     H_    0.181549 0.200436 0.131579 0.152110
H12   H     H_    0.181856 0.201010 0.882271 0.154242
H13   H     H_    0.329101 0.331776 0.756394 0.207630
H14   H     H_    0.886529 0.298225 0.510577 0.163272
H15   H     H_    0.886834 0.370788 0.672372 0.212178
H16   H     H_    0.112554 0.615893 0.680273 0.185213
H17   H     H_    0.899070 0.610505 0.683894 0.178104
H18   H     H_    0.112397 0.591819 0.296401 0.221187
H19   H     H_    0.101507 0.424460 0.294829 0.134123
H20   H     H_    0.891400 0.430452 0.291697 0.078513
N1    N     N_R   0.498810 0.498800 0.142780 -0.132184
N2    N     N_R   0.498760 0.498720 0.857170 -0.130382
O1    O     O_R   0.500000 0.316780 0.614690 -0.653381
O2    O     O_R   0.499990 0.316750 0.385360 -0.646096
O3    O     O_R   0.314800 0.499990 0.614670 -0.651236
O4    O     O_R   0.314790 0.499970 0.385330 -0.649328
O5    O     O_R   0.500010 0.683250 0.614640 -0.630000
O6    O     O_R   0.500000 0.683220 0.385310 -0.535627
O7    O     O_R   0.685210 0.500030 0.614670 -0.631839
O8    O     O_R   0.685200 0.500010 0.385330 -0.590023
Zn1   Zn    Zn3+2 0.500010 0.500020 0.653130 0.916858
Zn2   Zn    Zn3+2 0.499990 0.499980 0.346870 0.976412
F1    F     F_    0.892316 0.619800 0.285409 -0.668868
H21   H     H_    0.455062 0.072837 0.975464 0.170303
F2    F     F_    0.524458 0.885971 0.258831 -0.663260
H22   H     H_    0.644136 0.637727 0.870481 0.159923

loop_
_geom_bond_atom_site_label_1
_geom_bond_atom_site_label_2
_ccdc_geom_bond_type
O6    Zn2   S    
C23   O6    A    
C2    C4    S    
C1    O2    A    
C28   C30   S    
C24   N2    A    
C16   C21   A    
C25   O8    A    
C2    C25   S    
O2    Zn2   S    
C7    H6    S    
C4    C29   S    
C1    C11   S    
C24   H22   S    
C21   N1    A    
C2    C27   S    
C10   C11   A    
C27   H15   S    
C15   C23   S    
C2    C3    S    
C9    C15   A    
C5    C10   A    
C20   N2    A    
C12   O4    A    
C13   C14   A    
O5    Zn1   S    
C11   C13   A    
C4    F1    S    
C28   H16   S    
C26   C27   S    
C29   C30   S    
N1    Zn2   S    
O1    Zn1   S    
C16   H10   S    
C13   H4    S    
O3    Zn1   S    
C3    H17   S    
C3    C28   S    
C14   F2    S    
C19   H13   S    
C17   C18   A    
C6    C7    A    
C17   H11   S    
N2    Zn1   S    
C18   H12   S    
C22   N1    A    
C5    C6    A    
C22   C24   A    
C26   H9    S    
O7    Zn1   S    
C12   O3    A    
C7    C8    A    
C8    H7    S    
C3    H3    S    
C29   H18   S    
C22   H8    S    
C5    H5    S    
C28   H2    S    
C20   C21   A    
O8    Zn2   S    
C18   C19   A    
C9    C10   A    
C6    H21   S    
C23   O5    A    
C1    O1    A    
C14   C15   A    
C16   C17   A    
C29   H19   S    
C25   O7    A    
C12   C30   S    
C26   H1    S    
C27   H14   S    
O4    Zn2   S    
C19   C20   A    
C4    H20   S    
C8    C9    A    
C26   C30   S    
