data_mof_unit_19345.cif
_audit_creation_date              2012-12-10T17:31:22-0500
_audit_creation_method            fapswitch 2.2
_symmetry_space_group_name_H-M    P1
_symmetry_Int_Tables_number       1
_space_group_crystal_system       triclinic
_cell_length_a                    19.571147
_cell_length_b                    19.320684
_cell_length_c                    12.462044
_cell_angle_alpha                 89.128047
_cell_angle_beta                  130.689958
_cell_angle_gamma                 91.506875
_cell_volume                      3571.80765968

loop_
_atom_site_label
_atom_site_type_symbol
_atom_type_description
_atom_site_fract_x
_atom_site_fract_y
_atom_site_fract_z
_atom_type_partial_charge
C1    C     C_R   0.603114 0.894784 0.642710 0.847648
C2    C     C_R   0.612483 0.101565 0.653859 0.843998
C3    C     C_R   0.103075 0.394818 0.642609 0.846321
C4    C     C_R   0.112597 0.601515 0.653945 0.843136
C5    C     C_R   0.263723 0.755224 0.074809 0.101644
C6    C     C_R   0.234964 0.218684 0.025777 0.093232
C7    C     C_R   0.763257 0.255372 0.074632 0.102544
C8    C     C_R   0.736241 0.720003 0.028319 0.093677
C9    C     C_R   0.689137 0.245587 0.069119 0.101131
C10   C     C_R   0.686366 0.749203 0.062975 0.078945
C11   C     C_R   0.189586 0.745341 0.069251 0.101469
C12   C     C_R   0.183857 0.246981 0.058972 0.072535
C13   C     C_R   0.615216 0.205354 0.960610 -0.066311
C14   C     C_R   0.613963 0.792753 0.964602 -0.073669
C15   C     C_R   0.115401 0.705560 0.959994 -0.067702
C16   C     C_R   0.112044 0.291058 0.961253 -0.072527
C17   C     C_R   0.607242 0.188346 0.844703 -0.186329
C18   C     C_R   0.595960 0.809929 0.839791 -0.196085
C19   C     C_R   0.107542 0.688724 0.844169 -0.186929
C20   C     C_R   0.094696 0.308897 0.837275 -0.197552
C21   C     C_R   0.329020 0.806178 0.167735 -0.137293
C22   C     C_R   0.294776 0.165260 0.115789 -0.152929
C23   C     C_R   0.828625 0.306288 0.167515 -0.139072
C24   C     C_R   0.794315 0.665432 0.116180 -0.149229
C25   C     C_R   0.254812 0.827328 0.260984 -0.191916
C26   C     C_R   0.269058 0.180552 0.278115 -0.173725
C27   C     C_R   0.754222 0.327938 0.260240 -0.192004
C28   C     C_R   0.772662 0.683186 0.282752 -0.182017
C29   C     C_R   0.681962 0.156943 0.750635 -0.182592
C30   C     C_R   0.644924 0.825337 0.701945 -0.203613
C31   C     C_R   0.182306 0.656808 0.750710 -0.183018
C32   C     C_R   0.145010 0.325510 0.701571 -0.231675
C33   C     C_R   0.682186 0.986526 0.292969 0.477573
C34   C     C_R   0.182126 0.485287 0.293125 0.476338
C35   C     C_R   0.344411 0.995111 0.620680 -0.030313
C36   C     C_R   0.844442 0.494579 0.620866 -0.016094
C37   C     C_R   0.308665 0.975626 0.683867 0.295050
C38   C     C_R   0.808934 0.474901 0.684400 0.321241
C39   C     C_R   0.384746 0.097529 0.341039 0.797416
C40   C     C_R   0.387372 0.899904 0.345889 0.804305
C41   C     C_R   0.884919 0.597670 0.341308 0.796944
C42   C     C_R   0.887269 0.399980 0.345766 0.805425
C43   C     C_R   0.367503 0.962847 0.830614 0.056276
C44   C     C_R   0.867906 0.462768 0.831388 0.050690
C45   C     C_R   0.461286 0.982623 0.917567 -0.135160
C46   C     C_R   0.961526 0.482715 0.917828 -0.139177
C47   C     C_R   0.494623 0.996047 0.844974 0.203489
C48   C     C_R   0.994758 0.496067 0.845077 0.203160
C49   C     C_R   0.524337 0.987605 0.071600 -0.180087
C50   C     C_R   0.024490 0.487710 0.071735 -0.184522
C51   C     C_R   0.617957 0.994299 0.145565 -0.159378
C52   C     C_R   0.118128 0.493540 0.145805 -0.156803
C53   C     C_R   0.647406 0.012592 0.074498 0.293502
C54   C     C_R   0.147784 0.511710 0.074960 0.295627
C55   C     C_R   0.590124 0.004358 0.929003 0.310014
C56   C     C_R   0.090334 0.504144 0.929200 0.310823
C57   C     C_R   0.500841 0.993424 0.158006 0.445695
C58   C     C_R   0.000901 0.494380 0.157872 0.451752
C59   C     C_R   0.655426 0.992131 0.369993 0.494617
C60   C     C_R   0.155281 0.491165 0.370034 0.487642
C61   C     C_R   0.686872 0.280719 0.165007 -0.102785
C62   C     C_R   0.705088 0.728965 0.189434 -0.096426
C63   C     C_R   0.187506 0.780096 0.165666 -0.104715
C64   C     C_R   0.200949 0.225686 0.183647 -0.087914
C65   C     C_R   0.323908 0.842796 0.258944 -0.048959
C66   C     C_R   0.316436 0.149544 0.244979 -0.068460
C67   C     C_R   0.823542 0.343056 0.258579 -0.049211
C68   C     C_R   0.817462 0.650397 0.246599 -0.060627
C69   C     C_R   0.756689 0.169165 0.757463 -0.149254
C70   C     C_R   0.678667 0.789999 0.646761 -0.149150
C71   C     C_R   0.257081 0.668812 0.757566 -0.149389
C72   C     C_R   0.180046 0.291362 0.647506 -0.093127
C73   C     C_R   0.340934 0.690678 0.887573 0.386267
C74   C     C_R   0.240263 0.238267 0.724575 0.329420
C75   C     C_R   0.840547 0.190901 0.887595 0.385338
C76   C     C_R   0.739693 0.736833 0.725580 0.357234
C77   C     C_R   0.346537 0.707390 0.002855 -0.043315
C78   C     C_R   0.268013 0.219704 0.857416 -0.074707
C79   C     C_R   0.846105 0.207415 0.002903 -0.045794
C80   C     C_R   0.769243 0.720779 0.860188 -0.032639
C81   C     C_R   0.765570 0.217912 0.978912 -0.067696
C82   C     C_R   0.722008 0.744137 0.904246 -0.059260
C83   C     C_R   0.266020 0.717877 0.978945 -0.068216
C84   C     C_R   0.220759 0.242940 0.901680 -0.033569
C85   C     C_R   0.683829 0.188359 0.855678 0.036127
C86   C     C_R   0.654797 0.794264 0.816229 0.044309
C87   C     C_R   0.184239 0.688419 0.855600 0.036520
C88   C     C_R   0.153880 0.293465 0.814288 0.046649
Cu1   Cu    Cu3+1 0.526340 0.000000 0.421010 1.017107
Cu2   Cu    Cu3+1 0.026340 0.500000 0.421010 1.018853
Cu3   Cu    Cu3+1 0.473640 1.000000 0.578990 0.995721
Cu4   Cu    Cu3+1 0.973640 0.500000 0.578990 0.996664
H1    H     H_    0.249288 0.855027 0.329909 0.170637
H2    H     H_    0.281387 0.167395 0.374219 0.193703
H3    H     H_    0.748626 0.355846 0.328892 0.169785
H4    H     H_    0.786421 0.670864 0.380290 0.186763
H5    H     H_    0.300546 0.999973 0.506849 0.134054
H6    H     H_    0.800465 0.499175 0.506976 0.129888
H7    H     H_    0.629939 0.276109 0.160726 0.192487
H8    H     H_    0.667505 0.745961 0.218852 0.235557
H9    H     H_    0.130701 0.775265 0.161667 0.191588
H10   H     H_    0.161392 0.241324 0.210353 0.239404
H11   H     H_    0.381376 0.820080 0.164439 0.195725
H12   H     H_    0.321196 0.131223 0.085267 0.154932
H13   H     H_    0.881100 0.319984 0.164434 0.195575
H14   H     H_    0.817379 0.629849 0.082218 0.147791
H15   H     H_    0.541108 0.172881 0.749334 0.205942
H16   H     H_    0.532565 0.834068 0.758410 0.203258
H17   H     H_    0.041409 0.673503 0.748456 0.204269
H18   H     H_    0.031717 0.333649 0.756353 0.203303
N1    N     N_R   0.566260 0.000000 0.302220 -0.320789
N2    N     N_R   0.066260 0.500000 0.302220 -0.317783
N3    N     N_R   0.434410 0.000000 0.697680 -0.197735
N4    N     N_R   0.934410 0.500000 0.697680 -0.200005
O1    O     O_R   0.608610 0.924520 0.551740 -0.575686
O2    O     O_R   0.608610 0.075480 0.551740 -0.593784
O3    O     O_R   0.108610 0.424520 0.551740 -0.581112
O4    O     O_R   0.108610 0.575480 0.551740 -0.593219
O5    O     O_R   0.564110 0.924510 0.685150 -0.547619
O6    O     O_R   0.564110 0.075490 0.685150 -0.523918
O7    O     O_R   0.064110 0.424510 0.685150 -0.545729
O8    O     O_R   0.064110 0.575490 0.685150 -0.523524
O9    O     O_R   0.435880 0.075470 0.314850 -0.581415
O10   O     O_R   0.435880 0.924530 0.314850 -0.528209
O11   O     O_R   0.935880 0.575470 0.314850 -0.574875
O12   O     O_R   0.935880 0.424530 0.314850 -0.527401
O13   O     O_R   0.391380 0.075460 0.448260 -0.595754
O14   O     O_R   0.391380 0.924540 0.448260 -0.610131
O15   O     O_R   0.891380 0.575460 0.448260 -0.596167
O16   O     O_R   0.891380 0.424540 0.448260 -0.611357
O17   O     O_3   0.733463 0.040965 0.149397 -0.676872
H19   H     H_    0.735487 0.070106 0.085247 0.351784
O18   O     O_3   0.234158 0.539497 0.150336 -0.677088
H20   H     H_    0.236400 0.569020 0.086814 0.352178
O19   O     O_3   0.771526 0.972221 0.365026 -0.583885
H21   H     H_    0.774292 0.943475 0.302717 0.359632
O20   O     O_3   0.271284 0.470306 0.365187 -0.583515
H22   H     H_    0.273811 0.441691 0.302477 0.360777
O21   O     O_3   0.413030 0.996350 0.099069 -0.700331
H23   H     H_    0.404930 0.043956 0.114355 0.347847
O22   O     O_3   0.913301 0.500331 0.098536 -0.701443
H24   H     H_    0.907744 0.548912 0.113134 0.341810
C89   C     C_2   0.330742 0.917266 0.880567 1.040452
O23   O     O_2   0.374968 0.869407 0.960743 -0.630268
O24   O     O_R   0.245196 0.928769 0.835483 -0.664338
H25   H     H_    0.228054 0.894223 0.876934 0.327313
C90   C     C_2   0.831570 0.418064 0.883057 1.035566
O25   O     O_2   0.876215 0.370802 0.964886 -0.632702
O26   O     O_R   0.745946 0.429644 0.837602 -0.662842
H26   H     H_    0.729115 0.395692 0.880302 0.327590
O27   O     O_3   0.217170 0.962619 0.602103 -0.666690
H27   H     H_    0.185904 0.973901 0.501890 0.327201
O28   O     O_3   0.717583 0.461298 0.602900 -0.663065
H28   H     H_    0.686186 0.472127 0.502466 0.326947
O29   O     O_3   0.631550 0.000283 0.874503 -0.687069
H29   H     H_    0.691217 0.978291 0.943340 0.324155
O30   O     O_3   0.131676 0.500390 0.874523 -0.686979
H30   H     H_    0.191130 0.478029 0.942811 0.324689
C91   C     C_2   0.551815 0.174647 0.974762 0.848846
O31   O     O_2   0.473353 0.162641 0.870259 -0.566307
O32   O     O_R   0.585589 0.155118 0.110027 -0.764423
H31   H     H_    0.540557 0.131261 0.112932 0.334074
C92   C     C_2   0.552719 0.820008 0.984310 0.889902
O33   O     O_2   0.472537 0.825612 0.882300 -0.590091
O34   O     O_R   0.586641 0.842269 0.117158 -0.783552
H32   H     H_    0.537428 0.853225 0.119115 0.362596
C93   C     C_2   0.051212 0.675281 0.972690 0.840753
O35   O     O_2   0.972584 0.664548 0.867544 -0.548633
O36   O     O_R   0.084242 0.654685 0.107010 -0.765298
H33   H     H_    0.038592 0.630721 0.108325 0.334806
C94   C     C_2   0.051888 0.319312 0.982390 0.887513
O37   O     O_2   0.971753 0.325968 0.881101 -0.592572
O38   O     O_R   0.087058 0.341355 0.116094 -0.781118
H34   H     H_    0.038587 0.353069 0.119386 0.361768
C95   C     C_2   0.748564 0.155957 0.632309 0.867492
O39   O     O_2   0.802546 0.119315 0.642466 -0.540188
O40   O     O_R   0.677840 0.185141 0.501840 -0.715989
H35   H     H_    0.678405 0.171963 0.423966 0.355641
C96   C     C_2   0.650403 0.807714 0.506691 0.903177
O41   O     O_2   0.706555 0.817740 0.493433 -0.525045
O42   O     O_R   0.558945 0.814728 0.390838 -0.759276
H36   H     H_    0.548068 0.834087 0.305227 0.345244
C97   C     C_2   0.249045 0.655308 0.632583 0.866547
O43   O     O_2   0.303011 0.618486 0.643051 -0.540841
O44   O     O_R   0.178479 0.684463 0.501960 -0.715316
H37   H     H_    0.179099 0.671077 0.424232 0.355688
C98   C     C_2   0.149719 0.306851 0.505155 0.972004
O45   O     O_2   0.204220 0.312848 0.487559 -0.495941
O46   O     O_R   0.058106 0.315262 0.391435 -0.772680
H38   H     H_    0.046166 0.332541 0.303748 0.340985
C99   C     C_2   0.435243 0.702959 0.149586 0.898988
O47   O     O_2   0.505662 0.714984 0.173301 -0.548702
O48   O     O_R   0.438125 0.681587 0.260262 -0.732855
H39   H     H_    0.501899 0.678657 0.354199 0.350731
C100  C     C_2   0.348966 0.178976 0.944461 0.868292
O49   O     O_2   0.418341 0.203030 0.054145 -0.582388
O50   O     O_R   0.345009 0.112709 0.898453 -0.762001
H40   H     H_    0.406249 0.093001 0.952488 0.334662
C101  C     C_2   0.934713 0.202700 0.149706 0.898752
O51   O     O_2   0.005262 0.214272 0.173608 -0.545370
O52   O     O_R   0.937338 0.181568 0.260239 -0.733140
H41   H     H_    0.001052 0.178504 0.354260 0.352732
C102  C     C_2   0.848390 0.677943 0.944805 0.893809
O53   O     O_2   0.917536 0.698511 0.059154 -0.604402
O54   O     O_R   0.843259 0.614253 0.888907 -0.697351
H42   H     H_    0.903742 0.593074 0.943329 0.329751
O55   O     O_3   0.419626 0.691549 0.908753 -0.653862
H43   H     H_    0.405901 0.701870 0.818662 0.364208
O56   O     O_3   0.276449 0.207987 0.672168 -0.654541
H44   H     H_    0.265024 0.157472 0.667929 0.364264
O57   O     O_3   0.919267 0.191840 0.908857 -0.655968
H45   H     H_    0.905587 0.202186 0.818815 0.363835
O58   O     O_3   0.776212 0.702131 0.677303 -0.633492
H46   H     H_    0.728977 0.694992 0.573819 0.332099
O59   O     O_3   0.721308 0.985297 0.514253 -0.618195
H47   H     H_    0.700253 0.004768 0.559679 0.371295
O60   O     O_3   0.220875 0.483883 0.514226 -0.622789
H48   H     H_    0.200514 0.504852 0.559585 0.371432

loop_
_geom_bond_atom_site_label_1
_geom_bond_atom_site_label_2
_ccdc_geom_bond_type
C26   H2    S    
C83   C87   A    
C94   O37   D    
Cu1   O1    S    
C25   H1    S    
O34   H32   S    
C62   H8    S    
C72   C74   A    
O36   H33   S    
C14   C18   A    
C53   C55   A    
C27   H3    S    
C90   O25   D    
C16   C94   S    
Cu2   N2    S    
C63   H9    S    
C4    O4    A    
O24   H25   S    
C49   C57   A    
O19   H21   S    
C93   O36   S    
C61   H7    S    
O58   H46   S    
O57   H45   S    
C15   C19   A    
C94   O38   S    
C19   H17   S    
C75   O57   S    
O30   H30   S    
Cu3   O13   S    
C2    C29   S    
C9    C61   A    
O26   H26   S    
Cu2   O4    S    
C48   N4    A    
C92   O34   S    
C5    C11   A    
C19   C87   A    
C17   H15   S    
C91   O31   D    
C6    C12   A    
C5    C83   A    
Cu1   Cu3   S    
C59   O59   S    
C70   C96   S    
C80   C102  S    
C77   C83   A    
C89   O23   D    
C23   H13   S    
C44   C90   S    
C22   H12   S    
C57   O21   S    
C89   O24   S    
C1    O5    A    
C23   C67   A    
C14   C92   S    
C26   C64   A    
C22   C66   A    
C9    C13   A    
C27   C61   A    
C11   C15   A    
C76   O58   S    
C92   O33   D    
C44   C46   A    
C49   C51   A    
C59   N1    A    
O27   H27   S    
C91   O32   S    
C69   C75   A    
C53   O17   S    
C30   C86   A    
C24   C68   A    
C3    O3    A    
C29   C85   A    
C40   O14   A    
C48   C56   A    
C60   O60   S    
C21   C65   A    
C31   C71   A    
C73   O55   S    
Cu1   O2    S    
C57   N1    A    
C101  O51   D    
C33   C59   A    
O38   H34   S    
C34   C60   A    
C15   C93   S    
C10   C62   A    
C2    O2    A    
C37   O27   S    
C102  O53   D    
C30   C70   A    
C52   C54   A    
C46   C50   A    
O32   H31   S    
C41   C68   S    
C29   C69   A    
C45   C47   A    
Cu2   Cu4   S    
C40   O10   A    
C46   C48   A    
C90   O26   S    
C6    C84   A    
Cu3   O14   S    
C74   O56   S    
C4    O8    A    
O55   H43   S    
C77   C99   S    
Cu2   O3    S    
C12   C16   A    
C58   N2    A    
C31   C87   A    
C32   C72   A    
C10   C14   A    
C93   O35   D    
C79   C81   A    
C2    O6    A    
Cu1   O9    S    
O60   H48   S    
O42   H36   S    
C54   O18   S    
C78   C84   A    
C99   O47   D    
C51   C53   A    
C39   O13   A    
C26   C66   A    
C37   C43   A    
C55   O29   S    
O59   H47   S    
C99   O48   S    
C72   C98   S    
C38   C44   A    
C56   O30   S    
C60   N2    A    
C41   O11   A    
C102  O54   S    
C33   O19   S    
C50   C52   A    
C95   O39   D    
C45   C49   A    
C16   C20   A    
C7    C9    A    
O56   H44   S    
Cu2   O12   S    
C50   C58   A    
C25   C65   A    
C3    C32   S    
C42   O16   A    
C18   C86   A    
C43   C45   A    
C101  O52   S    
C20   H18   S    
C80   C82   A    
C7    C81   A    
C64   H10   S    
O48   H39   S    
C95   O40   S    
C40   C65   S    
O22   H24   S    
C70   C76   A    
C42   C67   S    
C39   C66   S    
C17   C85   A    
C32   C88   A    
C24   H14   S    
O17   H19   S    
C35   C37   A    
C47   C55   A    
C43   C89   S    
O46   H38   S    
C47   N3    A    
C12   C64   A    
O54   H42   S    
C25   C63   A    
C79   C101  S    
C28   C68   A    
Cu3   O6    S    
C76   C80   A    
O21   H23   S    
C54   C56   A    
Cu1   O10   S    
C96   O41   D    
C33   C51   A    
C1    O1    A    
O20   H22   S    
Cu1   N1    S    
C34   O20   S    
C34   C52   A    
O52   H41   S    
C13   C17   A    
C28   H4    S    
C97   O44   S    
Cu4   O15   S    
C98   O45   D    
C82   C86   A    
Cu4   O7    S    
C41   O15   A    
C58   O22   S    
O44   H37   S    
O18   H20   S    
C84   C88   A    
C75   C79   A    
C7    C23   A    
C20   C88   A    
C36   C38   A    
C1    C30   S    
C8    C24   A    
Cu2   O11   S    
Cu4   O8    S    
C36   N4    A    
C35   N3    A    
Cu3   O5    S    
C78   C100  S    
O50   H40   S    
C97   O43   D    
C18   H16   S    
C98   O46   S    
C4    C31   S    
C27   C67   A    
C42   O12   A    
C100  O49   D    
C21   H11   S    
Cu3   N3    S    
C8    C82   A    
C5    C21   A    
C8    C10   A    
O40   H35   S    
C74   C78   A    
C71   C73   A    
O29   H29   S    
C39   O9    A    
C73   C77   A    
Cu4   O16   S    
C36   H6    S    
C69   C95   S    
C38   O28   S    
C96   O42   S    
O28   H28   S    
C35   H5    S    
C11   C63   A    
Cu4   N4    S    
C13   C91   S    
C81   C85   A    
C3    O7    A    
C28   C62   A    
C100  O50   S    
C71   C97   S    
C6    C22   A    
