data_mof_unit_12417.cif
_audit_creation_date              2012-12-10T17:04:21-0500
_audit_creation_method            fapswitch 2.2
_symmetry_space_group_name_H-M    P1
_symmetry_Int_Tables_number       1
_space_group_crystal_system       triclinic
_cell_length_a                    11.676085
_cell_length_b                    11.09151
_cell_length_c                    9.901788
_cell_angle_alpha                 111.769757
_cell_angle_beta                  97.457487
_cell_angle_gamma                 92.923156
_cell_volume                      1173.94538752

loop_
_atom_site_label
_atom_site_type_symbol
_atom_type_description
_atom_site_fract_x
_atom_site_fract_y
_atom_site_fract_z
_atom_type_partial_charge
C1    C     C_R   0.495948 0.254398 0.439471 0.784132
C2    C     C_R   0.502543 0.745483 0.559984 0.728390
C3    C     C_R   0.284247 0.499552 0.501130 0.801544
C4    C     C_R   0.715465 0.496817 0.498146 0.776315
C5    C     C_1   0.162643 0.498305 0.502505 -0.194640
C6    C     C_1   0.836864 0.493950 0.496340 -0.212858
C7    C     C_1   0.059803 0.496236 0.500740 -0.011539
C8    C     C_1   0.939598 0.494067 0.497805 -0.013144
C9    C     C_2   0.495342 0.114048 0.400893 0.147381
C10   C     C_2   0.498949 0.885435 0.594369 0.186721
C11   C     C_2   0.518726 0.066551 0.508778 0.258958
C12   C     C_2   0.478655 0.929830 0.484048 0.307314
C13   C     C_2   0.508480 0.522738 0.089859 0.415568
C14   C     C_2   0.477947 0.511163 0.929981 0.409155
Cu1   Cu    Cu3+1 0.519790 0.521810 0.644910 0.962181
Cu2   Cu    Cu3+1 0.480210 0.478190 0.355090 0.971677
H1    H     H_    0.634252 0.582272 0.910908 0.140714
H2    H     H_    0.397358 0.366303 0.060402 0.180269
N1    N     N_2   0.450460 0.445430 0.137370 -0.312742
N2    N     N_2   0.549540 0.554570 0.862630 -0.311637
O1    O     O_R   0.510560 0.332330 0.577400 -0.532362
O2    O     O_R   0.489440 0.667670 0.422600 -0.486944
O3    O     O_R   0.477140 0.295500 0.332650 -0.562937
O4    O     O_R   0.522860 0.704500 0.667350 -0.577074
O5    O     O_R   0.353910 0.518430 0.622380 -0.535046
O6    O     O_R   0.646090 0.481570 0.377620 -0.563172
O7    O     O_R   0.320490 0.481600 0.377630 -0.582125
O8    O     O_R   0.679510 0.518400 0.622370 -0.583092
O9    O     O_3   0.423932 0.845391 0.345012 -0.579162
C15   C     C_3   0.304026 0.861743 0.327470 0.099168
H3    H     H_    0.274732 0.842503 0.209301 0.175482
H4    H     H_    0.284847 0.963191 0.390324 0.122233
C16   C     C_3   0.233634 0.763410 0.367686 -0.367116
H5    H     H_    0.243500 0.662954 0.292077 0.246260
H6    H     H_    0.265597 0.774271 0.482554 0.190182
C17   C     C_3   0.105463 0.784030 0.355180 -0.949352
H7    H     H_    0.093688 0.882457 0.434388 0.264265
H8    H     H_    0.056163 0.709439 0.381248 0.273241
H9    H     H_    0.070523 0.774887 0.241660 0.253905
O10   O     O_3   0.574742 0.148111 0.648568 -0.574693
C18   C     C_3   0.694839 0.174322 0.647689 0.086715
H10   H     H_    0.718923 0.281192 0.706682 0.173026
H11   H     H_    0.718924 0.148381 0.535559 0.076089
C19   C     C_3   0.765895 0.103464 0.730033 -0.299393
H12   H     H_    0.741431 0.129368 0.841301 0.248325
H13   H     H_    0.746085 0.996275 0.669359 0.222631
C20   C     C_3   0.896078 0.140715 0.746382 -0.978807
H14   H     H_    0.922583 0.118957 0.636722 0.265297
H15   H     H_    0.944901 0.083945 0.801699 0.265696
H16   H     H_    0.918716 0.246324 0.814404 0.262005
O11   O     O_3   0.519765 0.970737 0.740752 -0.599280
C21   C     C_3   0.416351 0.972075 0.801968 0.066114
H17   H     H_    0.441328 0.002296 0.922353 0.183412
H18   H     H_    0.365868 0.873837 0.762553 0.110142
C22   C     C_3   0.339341 0.071396 0.774910 -0.317578
H19   H     H_    0.389995 0.169190 0.817426 0.262131
H20   H     H_    0.309596 0.042164 0.655147 0.198812
C23   C     C_3   0.232632 0.079737 0.850700 -0.943546
H21   H     H_    0.181880 0.982252 0.811446 0.256714
H22   H     H_    0.176133 0.147834 0.823986 0.258228
H23   H     H_    0.259118 0.116219 0.972103 0.270227
O12   O     O_3   0.457961 0.034599 0.253756 -0.616080
C24   C     C_3   0.552124 0.975190 0.188051 0.087107
H24   H     H_    0.515290 0.898473 0.079184 0.172069
H25   H     H_    0.597886 0.923128 0.251255 0.176748
C25   C     C_3   0.638124 0.073262 0.165550 -0.390769
H26   H     H_    0.590392 0.132479 0.112642 0.250277
H27   H     H_    0.686483 0.140703 0.273921 0.189797
C26   C     C_3   0.725510 0.003580 0.069652 -0.899271
H28   H     H_    0.773421 0.942528 0.119440 0.247638
H29   H     H_    0.789191 0.076879 0.060580 0.257127
H30   H     H_    0.680472 0.940555 0.957511 0.285882
O13   O     O_3   0.369895 0.449533 0.852800 -0.590413
C27   C     C_3   0.283338 0.530307 0.909859 0.062183
H31   H     H_    0.286212 0.614950 0.875182 0.164378
H32   H     H_    0.294188 0.568841 0.032389 0.124795
C28   C     C_3   0.164105 0.451061 0.850611 -0.326448
H33   H     H_    0.153901 0.400858 0.729051 0.239195
H34   H     H_    0.157439 0.375481 0.898574 0.209472
C29   C     C_3   0.066316 0.537692 0.890248 -0.929698
H35   H     H_    0.072150 0.583744 0.011739 0.255969
H36   H     H_    0.981030 0.477813 0.843233 0.256724
H37   H     H_    0.071407 0.615053 0.844573 0.261078
O14   O     O_3   0.571644 0.636757 0.194568 -0.545092
C30   C     C_3   0.690694 0.648288 0.181564 0.059621
H38   H     H_    0.703907 0.714468 0.122760 0.133228
H39   H     H_    0.721198 0.552033 0.120688 0.080389
C31   C     C_3   0.766532 0.709688 0.335067 -0.263626
H40   H     H_    0.714892 0.715078 0.423056 0.235625
H41   H     H_    0.836935 0.647243 0.339679 0.184210
C32   C     C_3   0.824297 0.846934 0.371002 -0.959587
H42   H     H_    0.872393 0.849011 0.282227 0.258536
H43   H     H_    0.886608 0.877429 0.475320 0.262924
H44   H     H_    0.759262 0.917863 0.387497 0.253632

loop_
_geom_bond_atom_site_label_1
_geom_bond_atom_site_label_2
_ccdc_geom_bond_type
C25   H27   S    
C22   H19   S    
C24   H25   S    
C1    O1    A    
C12   O9    S    
O13   C27   S    
C16   C17   S    
C7    C8    S    
C20   H15   S    
C28   H33   S    
C19   H12   S    
C13   O14   S    
O12   C24   S    
C27   H32   S    
C17   H7    S    
C15   H3    S    
Cu1   O5    S    
C25   C26   S    
C23   H22   S    
Cu1   Cu2   S    
H1    N2    S    
H2    N1    S    
C18   H10   S    
C26   H29   S    
C21   H18   S    
C27   C28   S    
C2    O2    A    
C19   C20   S    
C23   H23   S    
C30   H39   S    
C25   H26   S    
C24   C25   S    
C13   C14   S    
C18   H11   S    
C26   H28   S    
C29   H37   S    
C10   O11   S    
C4    O8    A    
C19   H13   S    
C20   H16   S    
C28   H34   S    
Cu2   O6    S    
Cu1   N2    S    
C27   H31   S    
C13   N1    D    
C9    O12   S    
C14   O13   S    
C14   N2    D    
C3    O5    A    
C1    C9    S    
O14   C30   S    
C29   H36   S    
C32   H42   S    
C5    C7    T    
C6    C8    T    
C23   H21   S    
C30   H38   S    
O11   C21   S    
C26   H30   S    
O9    C15   S    
C32   H43   S    
C20   H14   S    
C31   C32   S    
C16   H5    S    
C9    C11   D    
C10   C12   D    
C4    C6    S    
O10   C18   S    
C31   H41   S    
C1    O3    A    
Cu2   O3    S    
C22   H20   S    
C2    O4    A    
C18   C19   S    
C2    C10   S    
C21   H17   S    
C30   C31   S    
Cu1   O4    S    
Cu2   O2    S    
C15   C16   S    
C17   H9    S    
C29   H35   S    
C3    C5    S    
C4    O6    A    
C11   C12   S    
C21   C22   S    
C3    O7    A    
C32   H44   S    
C15   H4    S    
C28   C29   S    
Cu1   O8    S    
Cu2   O7    S    
Cu2   N1    S    
C17   H8    S    
C16   H6    S    
C11   O10   S    
C24   H24   S    
Cu1   O1    S    
C31   H40   S    
C22   C23   S    
