data_mof_unit_27713.cif
_audit_creation_date              2013-03-05T16:13:23-0500
_audit_creation_method            fapswitch 2.2
_symmetry_space_group_name_H-M    P1
_symmetry_Int_Tables_number       1
_space_group_crystal_system       triclinic
_cell_length_a                    10.752335
_cell_length_b                    9.90945
_cell_length_c                    19.379689
_cell_angle_alpha                 92.552622
_cell_angle_beta                  93.866617
_cell_angle_gamma                 90.987522
_cell_volume                      2057.73174815

loop_
_atom_site_label
_atom_site_type_symbol
_atom_site_description
_atom_site_fract_x
_atom_site_fract_y
_atom_site_fract_z
_atom_type_partial_charge
O1    O     O_R   0.316770 0.614620 0.500000 -0.597396
O2    O     O_R   0.683230 0.385380 0.500000 -0.597476
O3    O     O_R   0.683230 0.614620 0.500000 -0.591639
O4    O     O_R   0.316770 0.385380 0.500000 -0.591600
C1    C     C_R   0.872309 0.501446 0.485843 -0.129758
C2    C     C_R   0.127695 0.498572 0.514164 -0.129955
C3    C     C_R   0.261103 0.499556 0.506973 0.900337
C4    C     C_R   0.738899 0.500447 0.493031 0.900392
O5    O     O_R   0.500030 0.614710 0.398180 -0.569963
O6    O     O_R   0.499970 0.385290 0.601820 -0.569951
O7    O     O_R   0.499970 0.614710 0.601820 -0.550614
O8    O     O_R   0.500030 0.385290 0.398180 -0.550682
C5    C     C_R   0.507297 0.496877 0.365822 0.939137
C6    C     C_R   0.492647 0.503126 0.634173 0.939060
Zn1   Zn    Zn3+2 0.500000 0.653120 0.500000 1.115422
Zn2   Zn    Zn3+2 0.500000 0.346880 0.500000 1.115352
C7    C     C_R   0.059667 0.375690 0.505235 -0.078809
C8    C     C_R   0.940334 0.624333 0.494778 -0.078822
C9    C     C_R   0.934666 0.377673 0.483536 -0.059381
C10   C     C_R   0.065342 0.622352 0.516462 -0.059606
C11   C     C_R   0.433597 0.392429 0.741188 0.278499
C12   C     C_R   0.566883 0.607549 0.258916 0.278766
C13   C     C_R   0.499890 0.368991 0.249493 0.245791
C14   C     C_R   0.499769 0.631249 0.750417 0.246031
C15   C     C_R   0.440782 0.389130 0.813545 -0.113532
C16   C     C_R   0.560022 0.610994 0.186571 -0.113422
C17   C     C_R   0.495870 0.373013 0.177239 -0.111237
C18   C     C_R   0.504189 0.627344 0.822683 -0.111445
C19   C     C_R   0.479664 0.505381 0.853642 -0.103172
C20   C     C_R   0.520965 0.494934 0.146378 -0.103271
C21   C     C_R   0.581847 0.078609 0.543552 0.241254
C22   C     C_R   0.418180 0.921390 0.456436 0.241229
C23   C     C_R   0.413070 0.064942 0.458601 0.239566
C24   C     C_R   0.586926 0.935051 0.541404 0.239626
C25   C     C_R   0.474557 0.509976 0.709364 -0.293583
C26   C     C_R   0.525446 0.490084 0.290638 -0.293709
C27   C     C_R   0.393996 0.554044 0.966693 -0.165885
C28   C     C_R   0.606789 0.446493 0.033342 -0.165842
C29   C     C_R   0.405051 0.553092 0.038318 -0.148047
C30   C     C_R   0.595737 0.447453 0.961713 -0.148114
H1    H     H_    0.311965 0.595934 0.940782 0.160251
H2    H     H_    0.688796 0.404558 0.059255 0.160281
H3    H     H_    0.331241 0.593458 0.068049 0.164521
H4    H     H_    0.669530 0.407051 0.931981 0.164471
N1    N     N_R   0.500000 0.857200 0.500000 -0.218108
N2    N     N_R   0.500000 0.142800 0.500000 -0.218118
C31   C     C_R   0.511306 0.499192 0.071325 0.118799
C32   C     C_R   0.489467 0.501327 0.928706 0.118830
N3    N     N_R   0.652934 0.155185 0.597513 0.268256
O9    O     O_R   0.760139 0.208431 0.585605 -0.352393
O10   O     O_R   0.628642 0.138594 0.661427 -0.275453
N4    N     N_R   0.347183 0.844826 0.402434 0.268275
O11   O     O_R   0.239994 0.791473 0.414292 -0.352261
O12   O     O_R   0.371573 0.861450 0.338540 -0.275537
N5    N     N_R   0.307666 0.124322 0.421825 0.243094
O13   O     O_R   0.318756 0.233528 0.388598 -0.300879
O14   O     O_R   0.200316 0.060781 0.414952 -0.349573
N6    N     N_R   0.692301 0.875648 0.578201 0.243034
O15   O     O_R   0.681127 0.766560 0.611515 -0.301179
O16   O     O_R   0.799678 0.939131 0.585056 -0.349667
C33   C     C_1   0.110652 0.249598 0.528272 0.403579
N7    N     N_1   0.149354 0.149066 0.548009 -0.074615
C34   C     C_1   0.889345 0.750435 0.471756 0.403971
N8    N     N_1   0.850649 0.850977 0.452029 -0.074600
C35   C     C_1   0.874435 0.253954 0.453772 0.331513
N9    N     N_1   0.826588 0.155738 0.429716 -0.090222
C36   C     C_1   0.125592 0.746097 0.546180 0.331665
N10   N     N_1   0.173449 0.844340 0.570195 -0.089837
N11   N     N_R   0.369967 0.284415 0.700287 0.229408
O17   O     O_R   0.275249 0.312334 0.658485 -0.418820
O18   O     O_R   0.393896 0.158620 0.711289 -0.290490
N12   N     N_R   0.630641 0.715314 0.299927 0.229243
O19   O     O_R   0.725348 0.687086 0.341665 -0.419285
O20   O     O_R   0.606831 0.841197 0.289081 -0.290816
N13   N     N_R   0.486191 0.240548 0.280110 0.248519
O21   O     O_R   0.581629 0.190082 0.314148 -0.332690
O22   O     O_R   0.390802 0.161786 0.260885 -0.290372
N14   N     N_R   0.512529 0.759728 0.719697 0.248510
O23   O     O_R   0.416713 0.809304 0.685600 -0.333381
O24   O     O_R   0.607428 0.839273 0.738791 -0.290015
C37   C     C_1   0.401786 0.268949 0.847061 0.328673
N15   N     N_1   0.370790 0.173214 0.873976 -0.131065
C38   C     C_1   0.599493 0.731130 0.153180 0.328677
N16   N     N_1   0.630872 0.826834 0.126365 -0.131116
C39   C     C_1   0.468791 0.250726 0.134401 0.318327
N17   N     N_1   0.447333 0.153361 0.100131 -0.136712
C40   C     C_1   0.531046 0.749783 0.865434 0.318351
N18   N     N_1   0.552329 0.847268 0.899636 -0.136595

loop_
_geom_bond_atom_site_label_1
_geom_bond_atom_site_label_2
_geom_bond_distance
_ccdc_geom_bond_type
C23   N5    1.445705 S    
C40   N18   1.157503 T    
C16   C38   1.450642 S    
C22   N1    1.363192 A    
C10   C36   1.454113 S    
N5    O13   1.291489 A    
C37   N15   1.157481 T    
O3    Zn1   2.013195 S    
C39   N17   1.157500 T    
C18   C19   1.401832 A    
C28   H2    1.083465 S    
O7    C6    1.298992 A    
N14   O24   1.301856 A    
C8    C34   1.449632 S    
N6    O16   1.301240 A    
C17   C39   1.451913 S    
N11   O18   1.301115 A    
O5    C5    1.306639 A    
C22   N4    1.433592 S    
C7    C33   1.449620 S    
O7    Zn1   2.026211 S    
O8    Zn2   2.026211 S    
N3    O10   1.299892 A    
C21   N2    1.363240 A    
O1    Zn1   2.000285 S    
C13   C17   1.400372 A    
O2    Zn2   2.000284 S    
C17   C20   1.401810 A    
C15   C37   1.450658 S    
C23   N2    1.389775 A    
C33   N7    1.157020 T    
C21   N3    1.433581 S    
O4    C3    1.295096 A    
C12   N12   1.437955 S    
N4    O12   1.299869 A    
C15   C19   1.401978 A    
C14   C25   1.423091 A    
C19   C32   1.453817 S    
C36   N10   1.157250 T    
C20   C31   1.453757 S    
C5    C26   1.481775 S    
N12   O20   1.301117 A    
O3    C4    1.295071 A    
O6    C6    1.306688 A    
Zn2   N2    2.022321 S    
C6    C25   1.481781 S    
N14   O23   1.301506 A    
C29   H3    1.083474 S    
C1    C8    1.407580 A    
N6    O15   1.291513 A    
C11   N11   1.438085 S    
O4    Zn2   2.013196 S    
N13   O21   1.301558 A    
C38   N16   1.157502 T    
C18   C40   1.451902 S    
C21   C24   1.423437 A    
C24   N1    1.389767 A    
C27   C32   1.398131 A    
N13   O22   1.301884 A    
C28   C31   1.398124 A    
C1    C9    1.408342 A    
C14   N14   1.437607 S    
C16   C20   1.401866 A    
N5    O14   1.301252 A    
N3    O9    1.298528 A    
Zn1   N1    2.022321 S    
C12   C26   1.419203 A    
N4    O11   1.298541 A    
C29   C31   1.397360 A    
C30   C32   1.397397 A    
C2    C7    1.407553 A    
C11   C15   1.401047 A    
O1    C3    1.295268 A    
O2    C4    1.295297 A    
C14   C18   1.400361 A    
C13   N13   1.437492 S    
N12   O19   1.299381 A    
C1    C4    1.450451 S    
C2    C3    1.450440 S    
C11   C25   1.419189 A    
C2    C10   1.408365 A    
C22   C23   1.423393 A    
O5    Zn1   1.992922 S    
C27   C29   1.385620 A    
O6    Zn2   1.992922 S    
C28   C30   1.385683 A    
C7    C9    1.381710 A    
C9    C35   1.454106 S    
C8    C10   1.381708 A    
C35   N9    1.157255 T    
C27   H1    1.083460 S    
N11   O17   1.299412 A    
C34   N8    1.157019 T    
C30   H4    1.083474 S    
O8    C5    1.299028 A    
C13   C26   1.423059 A    
C12   C16   1.400972 A    
C24   N6    1.445736 S    
