data_mof_unit_25127.cif
_audit_creation_date              2013-03-05T15:45:33-0500
_audit_creation_method            fapswitch 2.2
_symmetry_space_group_name_H-M    P1
_symmetry_Int_Tables_number       1
_space_group_crystal_system       triclinic
_cell_length_a                    8.356511
_cell_length_b                    14.381359
_cell_length_c                    19.127503
_cell_angle_alpha                 93.362211
_cell_angle_beta                  94.322615
_cell_angle_gamma                 91.706648
_cell_volume                      2286.86946508

loop_
_atom_site_label
_atom_site_type_symbol
_atom_site_description
_atom_site_fract_x
_atom_site_fract_y
_atom_site_fract_z
_atom_type_partial_charge
P1    P     P_3+3 0.937730 0.712710 0.546710 0.450982
O1    O     O_2   0.108370 0.727470 0.525290 -0.343207
O2    O     O_3   0.865330 0.611210 0.531230 -0.405279
O3    O     O_3   0.346360 0.671710 0.401620 -0.348367
O4    O     O_2   0.236470 0.833159 0.446506 -0.366598
O5    O     O_3   0.963044 0.738607 0.637613 -0.592970
O6    O     O_3   0.294996 0.823387 0.314946 -0.497459
C1    C     C_3   0.379143 0.898215 0.213320 0.009536
H1    H     H_    0.314910 0.958729 0.234880 0.161321
P2    P     P_3+3 0.357970 0.428340 0.344000 0.474153
P3    P     P_3+3 0.907986 0.618080 0.276794 0.496674
O7    O     O_2   0.182890 0.456530 0.332150 -0.352228
O8    O     O_3   0.933230 0.625130 0.368420 -0.397633
O9    O     O_2   0.054653 0.569134 0.248602 -0.353618
O10   O     O_3   0.327840 0.307146 0.331127 -0.616655
O11   O     O_3   0.922632 0.731758 0.248853 -0.467358
C2    C     C_3   0.887763 0.794787 0.304320 0.511152
H2    H     H_    0.983500 0.795392 0.347914 0.150632
H3    H     H_    0.770660 0.776269 0.324477 -0.013294
C3    C     C_3   0.879200 0.892760 0.278559 -0.907101
H4    H     H_    0.999066 0.917241 0.264449 0.295648
H5    H     H_    0.791763 0.893618 0.231947 0.259228
C4    C     C_3   0.973555 0.264242 0.328235 0.618881
H6    H     H_    0.072851 0.300577 0.360767 0.169334
C5    C     C_3   0.015255 0.162499 0.312667 -0.854839
H7    H     H_    0.911583 0.123172 0.283978 0.247925
H8    H     H_    0.120010 0.158402 0.280380 0.287336
H9    H     H_    0.046665 0.128852 0.362303 0.225519
Ba1   Ba    Ba6+2 0.150350 0.545800 0.464500 1.580514
C6    C     C_3   0.014639 0.660646 0.672334 0.350724
H10   H     H_    0.138075 0.645699 0.659211 0.109679
H11   H     H_    0.933984 0.598726 0.657444 0.102389
C7    C     C_3   0.010780 0.681035 0.751722 -0.465824
H12   H     H_    0.039846 0.617719 0.779689 0.196083
H13   H     H_    0.887447 0.699481 0.763875 0.250988
C8    C     C_3   0.472630 0.260988 0.329443 0.613647
H14   H     H_    0.566245 0.301277 0.362562 0.070273
C9    C     C_3   0.527408 0.248723 0.254039 -0.157440
H15   H     H_    0.566657 0.316357 0.235210 0.057092
H16   H     H_    0.634158 0.204586 0.255144 0.142526
P4    P     P_3+3 0.872570 0.287280 0.453240 0.467599
O12   O     O_2   0.701930 0.272470 0.474700 -0.331481
O13   O     O_3   0.944970 0.388780 0.468720 -0.394540
O14   O     O_3   0.463940 0.328280 0.598320 -0.394630
O15   O     O_3   0.831837 0.268176 0.362396 -0.613703
P5    P     P_3+3 0.901294 0.378265 0.723458 0.455578
O16   O     O_3   0.372010 0.546630 0.581240 -0.393397
O17   O     O_3   0.877070 0.374860 0.631520 -0.428428
O18   O     O_2   0.760936 0.433317 0.751185 -0.335475
O19   O     O_3   0.867711 0.265354 0.749986 -0.521404
Ba2   Ba    Ba6+2 0.659830 0.454190 0.535450 1.578212
P6    P     P_3+3 0.363419 0.792942 0.399706 0.499648
C10   C     C_3   0.424599 0.833118 0.272390 0.460964
H17   H     H_    0.530762 0.867797 0.302393 0.017125
H18   H     H_    0.491301 0.926053 0.193124 0.113361
O20   O     O_3   0.438280 0.453360 0.418700 -0.385047
C11   C     C_3   0.558018 0.734784 0.637172 0.349111
H19   H     H_    0.676191 0.702509 0.638745 0.122394
H20   H     H_    0.499135 0.726429 0.582971 0.063120
C12   C     C_3   0.583015 0.838264 0.657738 -0.359968
H21   H     H_    0.644253 0.873150 0.616385 0.198586
H22   H     H_    0.462983 0.866609 0.662210 0.288276
P7    P     P_3+3 0.448477 0.574705 0.668571 0.484630
O21   O     O_2   0.627420 0.543410 0.667830 -0.353776
O22   O     O_3   0.458389 0.695554 0.684036 -0.556766
H23   H     H_    0.840251 0.941389 0.320686 0.202986
C13   C     C_3   0.921594 0.201523 0.699156 0.440297
H24   H     H_    0.845985 0.203148 0.648937 0.140042
H25   H     H_    0.049117 0.216646 0.690047 0.020224
C14   C     C_3   0.907921 0.103675 0.724537 -0.843997
H26   H     H_    0.781608 0.087236 0.734883 0.275612
H27   H     H_    0.945478 0.052337 0.683823 0.217643
H28   H     H_    0.986188 0.098400 0.773596 0.290769
P8    P     P_3+3 0.447603 0.207478 0.602911 0.573508
C15   C     C_3   0.443218 0.252430 0.734800 0.278670
H29   H     H_    0.311771 0.260093 0.724934 0.003362
O23   O     O_2   0.581046 0.165217 0.560510 -0.322805
O24   O     O_3   0.498601 0.181323 0.689956 -0.480585
H30   H     H_    0.506026 0.319837 0.727303 0.112367
H31   H     H_    0.450040 0.291971 0.845421 0.077419
C16   C     C_3   0.479194 0.230464 0.811367 -0.071921
H32   H     H_    0.609008 0.217789 0.822017 0.169849
C17   C     C_R   0.007177 0.939605 0.534837 -0.061729
C18   C     C_R   0.819180 0.803482 0.499565 0.203416
C19   C     C_R   0.670954 0.773152 0.465609 -0.496323
C20   C     C_R   0.564397 0.835918 0.436248 0.220910
C21   C     C_R   0.608116 0.930304 0.436821 -0.224484
C22   C     C_R   0.758409 0.963892 0.466925 0.080226
C23   C     C_R   0.863430 0.901438 0.500821 -0.040725
H33   H     H_    0.634797 0.700198 0.464798 0.175434
C24   C     C_R   0.946257 0.098149 0.498717 -0.099899
C25   C     C_R   0.050777 0.035709 0.533250 -0.103309
C26   C     C_R   0.989192 0.196536 0.501726 0.179685
C27   C     C_R   0.131819 0.227623 0.541414 -0.186145
C28   C     C_R   0.243519 0.164079 0.566610 0.170316
C29   C     C_R   0.200311 0.069589 0.565002 0.220440
C30   C     C_R   0.801541 0.059792 0.464764 -0.065533
H34   H     H_    0.522954 0.977510 0.414594 0.211699
H35   H     H_    0.086428 0.894437 0.563001 0.189388
H36   H     H_    0.719869 0.104162 0.437085 0.193761
C31   C     C_R   0.621820 0.522252 0.296104 -0.472874
C32   C     C_R   0.468982 0.483233 0.276739 0.265272
C33   C     C_R   0.411002 0.476984 0.205734 -0.207628
C34   C     C_R   0.505344 0.510993 0.154100 0.023928
C35   C     C_R   0.658691 0.551737 0.174841 -0.251487
C36   C     C_R   0.716510 0.557244 0.245860 0.231415
C37   C     C_R   0.445136 0.582433 0.038700 -0.120147
C38   C     C_R   0.391063 0.575190 0.967370 -0.038051
C39   C     C_R   0.339013 0.488529 0.933886 0.174841
C40   C     C_R   0.333520 0.410365 0.974598 -0.145884
C41   C     C_R   0.385121 0.417965 0.046303 -0.130490
C42   C     C_R   0.444061 0.503739 0.078796 0.110818
C43   C     C_R   0.146526 0.434699 0.831036 -0.256635
C44   C     C_R   0.096227 0.431815 0.759310 0.272050
C45   C     C_R   0.340521 0.516045 0.735678 0.176886
C46   C     C_R   0.394067 0.519149 0.807881 0.223836
C47   C     C_R   0.294102 0.479636 0.856473 -0.148105
C48   C     C_R   0.192735 0.473355 0.713088 -0.593529
H37   H     H_    0.392019 0.637272 0.937969 0.151748
H38   H     H_    0.487135 0.649684 0.062756 0.161592
H39   H     H_    0.293462 0.445151 0.190730 0.175431
H40   H     H_    0.292962 0.342902 0.950566 0.169544
H41   H     H_    0.383252 0.356223 0.075994 0.184939
H42   H     H_    0.068773 0.404552 0.867134 0.184880
H43   H     H_    0.732130 0.579519 0.136139 0.167764
H44   H     H_    0.148258 0.477246 0.659041 0.162124
H45   H     H_    0.667102 0.525784 0.350743 0.179010
C49   C     C_3   0.472235 0.737679 0.242788 -0.849395
H46   H     H_    0.520298 0.697164 0.286508 0.211153
H47   H     H_    0.366840 0.698154 0.215752 0.289401
H48   H     H_    0.566631 0.745736 0.205496 0.214446
C50   C     C_3   0.129460 0.759558 0.779996 -0.695295
H49   H     H_    0.254365 0.738294 0.774021 0.270021
H50   H     H_    0.107331 0.824001 0.752006 0.279207
H51   H     H_    0.115635 0.774879 0.836747 0.256493
N1    N     N_R   0.450771 0.170671 0.359738 0.217850
O25   O     O_R   0.475469 0.092788 0.324680 -0.482651
O26   O     O_R   0.397245 0.167704 0.421660 -0.419517
N2    N     N_R   0.278951 0.851011 0.155181 0.266935
O27   O     O_R   0.332371 0.841411 0.093107 -0.354839
O28   O     O_R   0.134025 0.821368 0.164251 -0.313249
N3    N     N_R   0.402133 0.205055 0.204439 0.284981
O29   O     O_R   0.284589 0.253951 0.180060 -0.424216
O30   O     O_R   0.422675 0.122884 0.174967 -0.342897
C51   C     C_3   0.680305 0.858215 0.728038 -0.716360
H52   H     H_    0.633946 0.815679 0.769145 0.297251
H53   H     H_    0.808466 0.844419 0.722588 0.248751
H54   H     H_    0.671219 0.932763 0.745133 0.271878
N4    N     N_R   0.384188 0.149210 0.828198 0.277277
O31   O     O_R   0.423110 0.066031 0.806690 -0.298825
O32   O     O_R   0.268691 0.158903 0.869713 -0.375536
N5    N     N_R   0.306877 0.008484 0.598991 0.228783
O33   O     O_R   0.302244 0.000096 0.666113 -0.391626
O34   O     O_R   0.426067 0.976422 0.566156 -0.421984
C52   C     C_3   0.167825 0.328555 0.561466 -0.604079
H55   H     H_    0.207595 0.334132 0.617886 0.154744
H56   H     H_    0.247411 0.359138 0.524235 0.265792
H57   H     H_    0.072952 0.374908 0.565874 0.247244
N6    N     N_R   0.549190 0.559911 0.831673 0.245548
O35   O     O_R   0.587476 0.644656 0.817515 -0.408143
O36   O     O_R   0.646620 0.515856 0.873419 -0.379753
C53   C     C_3   0.947657 0.314153 0.259954 -0.791783
H58   H     H_    0.867951 0.272237 0.220251 0.224006
H59   H     H_    0.892567 0.382339 0.270601 0.218925
H60   H     H_    0.063377 0.327565 0.237371 0.275301

loop_
_geom_bond_atom_site_label_1
_geom_bond_atom_site_label_2
_geom_bond_distance
_ccdc_geom_bond_type
C9    H16   1.109767 S    
C21   C22   1.401595 A    
P7    O22   1.744222 S    
C26   C27   1.410230 A    
C4    O15   1.396052 S    
O7    Ba1   2.806083 S    
C52   H56   1.110674 S    
C9    N3    1.460018 S    
P4    O12   1.525647 D    
C37   H38   1.083297 S    
C41   C42   1.406503 A    
C49   H46   1.104807 S    
C51   H54   1.108849 S    
C16   H32   1.111002 S    
C39   C47   1.496961 S    
C10   H17   1.108354 S    
C38   C39   1.408805 A    
P1    C18   1.891876 S    
C17   C25   1.421437 A    
P5    O18   1.543900 D    
C31   C32   1.394609 A    
O3    P6    1.747821 S    
C1    N2    1.461429 S    
O8    Ba1   2.799552 S    
C8    H14   1.097375 S    
Ba1   Ba2   4.594143 S    
O6    P6    1.762236 S    
Ba2   O20   2.790516 S    
P2    O10   1.753857 S    
N4    O32   1.300806 A    
O16   P7    1.762459 S    
C6    H10   1.104126 S    
P3    O9    1.547549 D    
C11   H20   1.111901 S    
P3    O8    1.745989 S    
O11   C2    1.407719 S    
C45   C46   1.417020 A    
C29   N5    1.419252 S    
C25   C29   1.407958 A    
C2    C3    1.521609 S    
C46   C47   1.426641 A    
C12   H22   1.101273 S    
P1    O1    1.525290 D    
C37   C42   1.404032 A    
O2    Ba1   2.939007 S    
C40   C41   1.403359 A    
C2    H3    1.109311 S    
O17   Ba2   2.800045 S    
P4    C26   1.895897 S    
C28   C29   1.393589 A    
C50   H49   1.108568 S    
P8    O23   1.545808 D    
C37   C38   1.401482 A    
N6    O36   1.301516 A    
O4    P6    1.542791 D    
C14   H26   1.109644 S    
P2    O20   1.549894 S    
O19   C13   1.405923 S    
O3    Ba1   2.789999 S    
O12   Ba2   2.839708 S    
C4    C53   1.531143 S    
P7    C45   1.851856 S    
C17   H35   1.078718 S    
Ba1   O13   2.804062 S    
C52   H57   1.055940 S    
P4    O13   1.566575 S    
C38   H37   1.082865 S    
C32   C33   1.404019 A    
P3    C36   1.840909 S    
C8    N1    1.465033 S    
C1    H18   1.112792 S    
C34   C35   1.412165 A    
C51   H53   1.106476 S    
C51   H52   1.109393 S    
C53   H59   1.110224 S    
C17   C23   1.403059 A    
C19   H33   1.082039 S    
P5    O17   1.752575 S    
P5    C44   1.847102 S    
C41   H41   1.082066 S    
C13   H24   1.111063 S    
P2    C32   1.842388 S    
C18   C19   1.399882 A    
C46   N6    1.437236 S    
N1    O26   1.299768 A    
C24   C25   1.426486 A    
C34   C42   1.488557 S    
O2    Ba2   2.804656 S    
C20   C21   1.394353 A    
C1    H1    1.111154 S    
C11   C12   1.521017 S    
O16   Ba2   2.948006 S    
C5    H7    1.110983 S    
C19   C20   1.398233 A    
C24   C30   1.410098 A    
P1    O5    1.752305 S    
C12   H21   1.109733 S    
P1    O2    1.566574 S    
C15   H29   1.110278 S    
C31   H45   1.082149 S    
C10   C49   1.529147 S    
C24   C26   1.446087 A    
C53   H60   1.104780 S    
P3    O11   1.753225 S    
N6    O35   1.299838 A    
C3    H5    1.110195 S    
C4    H6    1.098629 S    
C45   C48   1.389989 A    
C14   H28   1.110337 S    
P1    Ba1   3.409385 S    
C2    H2    1.110675 S    
C27   C52   1.495289 S    
C3    H4    1.109509 S    
O14   P8    1.746458 S    
C44   C48   1.389130 A    
P2    O7    1.533750 D    
C43   C47   1.414359 A    
O14   Ba2   2.789298 S    
O5    C6    1.398920 S    
Ba1   O16   2.790928 S    
O1    Ba1   2.839161 S    
P8    O24   1.752488 S    
N3    O30   1.300868 A    
C5    H8    1.109705 S    
C12   C51   1.525611 S    
O6    C10   1.411501 S    
C33   H39   1.082600 S    
C49   H48   1.110647 S    
O10   C8    1.398877 S    
C52   H55   1.102573 S    
C30   H36   1.079054 S    
C7    C50   1.527117 S    
C43   C44   1.402140 A    
N5    O34   1.298768 A    
C3    H23   1.109641 S    
C31   C36   1.396631 A    
C6    C7    1.532511 S    
P8    C28   1.867467 S    
C15   C16   1.525975 S    
Ba2   O21   2.806106 S    
C22   C30   1.418819 A    
C11   O22   1.399568 S    
H31   C16   1.111416 S    
C49   H47   1.110521 S    
C1    C10   1.542045 S    
N2    O27   1.300925 A    
Ba1   O20   2.948850 S    
C53   H58   1.109005 S    
C35   C36   1.403990 A    
P5    O19   1.750422 S    
C35   H43   1.082977 S    
C13   C14   1.519163 S    
C21   H34   1.079402 S    
C8    C9    1.547686 S    
C39   C40   1.406104 A    
C40   H40   1.082641 S    
C6    H11   1.110821 S    
N2    O28   1.299281 A    
P2    Ba1   3.390687 S    
O13   Ba2   2.939861 S    
C11   H19   1.102722 S    
C9    H15   1.106025 S    
C43   H42   1.082965 S    
C50   H51   1.110219 S    
C16   N4    1.458371 S    
P6    C20   1.844378 S    
C7    H13   1.109856 S    
C7    H12   1.106795 S    
C4    C5    1.531656 S    
C27   C28   1.404753 A    
C15   O24   1.407408 S    
C5    H9    1.108302 S    
P7    O21   1.575225 D    
C22   C23   1.423642 A    
C50   H50   1.110505 S    
C18   C23   1.444130 A    
C33   C34   1.409693 A    
P4    O15   1.749267 S    
N3    O29   1.298961 A    
N1    O25   1.301290 A    
C14   H27   1.110531 S    
N5    O33   1.299916 A    
C48   H44   1.077073 S    
C13   H25   1.109900 S    
N4    O31   1.300623 A    
C15   H30   1.110460 S    
P4    Ba2   3.409961 S    
