data_mof_unit_54463.cif
_audit_creation_date              2013-03-05T16:11:10-0500
_audit_creation_method            fapswitch 2.2
_symmetry_space_group_name_H-M    P1
_symmetry_Int_Tables_number       1
_space_group_crystal_system       triclinic
_cell_length_a                    9.987943
_cell_length_b                    10.626452
_cell_length_c                    13.598282
_cell_angle_alpha                 91.174473
_cell_angle_beta                  82.297264
_cell_angle_gamma                 88.594357
_cell_volume                      1429.40717898

loop_
_atom_site_label
_atom_site_type_symbol
_atom_site_description
_atom_site_fract_x
_atom_site_fract_y
_atom_site_fract_z
_atom_type_partial_charge
O1    O     O_R   0.385380 0.683250 0.500010 -0.655053
O2    O     O_R   0.614620 0.316750 0.499990 -0.643208
O3    O     O_R   0.614710 0.683220 0.500000 -0.551448
O4    O     O_R   0.385290 0.316780 0.500000 -0.541020
C1    C     C_R   0.499303 0.739273 0.497469 0.945710
C2    C     C_R   0.501001 0.260761 0.502475 0.946911
O5    O     O_R   0.368830 0.499990 0.640350 -0.626854
O6    O     O_R   0.631170 0.500010 0.359650 -0.644805
O7    O     O_R   0.598160 0.499960 0.640350 -0.551506
O8    O     O_R   0.401840 0.500040 0.359650 -0.554145
C3    C     C_R   0.475038 0.501632 0.685559 0.920835
C4    C     C_R   0.525014 0.498083 0.314443 0.940495
Zn1   Zn    Zn3+2 0.346870 0.500020 0.500000 1.048687
Zn2   Zn    Zn3+2 0.653130 0.499980 0.500000 1.044484
C5    C     C_R   0.942918 0.423818 0.433993 0.041060
C6    C     C_R   0.056904 0.582883 0.559851 0.040447
C7    C     C_R   0.084863 0.414095 0.443164 0.380575
C8    C     C_R   0.913255 0.574803 0.565320 0.347278
C9    C     C_1   0.544803 0.485557 0.210504 -0.039322
C10   C     C_1   0.455672 0.494422 0.789378 -0.002862
C11   C     C_2   0.557141 0.455689 0.018734 0.166976
C12   C     C_2   0.439306 0.470294 0.980866 0.181298
C13   C     C_1   0.444014 0.484248 0.876905 0.090361
C14   C     C_1   0.555449 0.471781 0.122835 0.069294
C15   C     C_R   0.585091 0.934199 0.423270 0.343519
C16   C     C_R   0.418957 0.065927 0.578590 0.362697
C17   C     C_R   0.588196 0.063686 0.430277 -0.260024
C18   C     C_R   0.417000 0.936368 0.572219 -0.291769
H1    H     H_    0.651495 0.114767 0.374409 0.179528
H2    H     H_    0.357750 0.885022 0.630001 0.181593
C19   C     C_R   0.504160 0.128206 0.505721 -0.160915
C20   C     C_R   0.497741 0.871938 0.495019 -0.165743
N1    N     N_R   0.142790 0.500030 0.500020 -0.167101
N2    N     N_R   0.857210 0.499970 0.499980 -0.174491
C21   C     C_3   0.884238 0.363179 0.346988 -0.392858
C22   C     C_3   0.972982 0.278826 0.271104 -0.667445
H3    H     H_    0.060161 0.331014 0.235002 0.316625
H4    H     H_    0.004843 0.190887 0.304910 0.300210
H5    H     H_    0.912843 0.250340 0.211672 0.255154
H6    H     H_    0.796690 0.307248 0.374970 0.245754
H7    H     H_    0.851779 0.441799 0.302800 0.254998
C23   C     C_3   0.110649 0.686737 0.619886 -0.343058
C24   C     C_3   0.100737 0.813236 0.568964 -0.703985
H8    H     H_    0.171639 0.814386 0.498842 0.271256
H9    H     H_    0.997681 0.832777 0.550559 0.290586
H10   H     H_    0.124865 0.890228 0.619249 0.280809
H11   H     H_    0.053144 0.693858 0.695618 0.250610
H12   H     H_    0.214980 0.667812 0.632746 0.245033
N3    N     N_R   0.162300 0.304263 0.406017 0.216667
O9    O     O_R   0.141306 0.198045 0.450729 -0.372112
O10   O     O_R   0.254411 0.308977 0.329123 -0.352815
N4    N     N_R   0.826756 0.641986 0.642412 0.220751
O11   O     O_R   0.778719 0.753691 0.627222 -0.377706
O12   O     O_R   0.814044 0.600063 0.732322 -0.322708
N5    N     N_R   0.309633 0.483274 0.042074 0.219243
O13   O     O_R   0.210019 0.542678 0.008835 -0.302869
O14   O     O_R   0.284272 0.419662 0.122876 -0.353180
N6    N     N_R   0.685984 0.435070 0.957553 0.229174
O15   O     O_R   0.796451 0.467897 0.991068 -0.287185
O16   O     O_R   0.695789 0.366635 0.876284 -0.313719
N7    N     N_R   0.667359 0.868346 0.342455 0.221762
O17   O     O_R   0.619426 0.774188 0.296930 -0.396138
O18   O     O_R   0.783024 0.912923 0.305352 -0.344384
N8    N     N_R   0.339960 0.131911 0.660865 0.230929
O19   O     O_R   0.390742 0.225403 0.705204 -0.385560
O20   O     O_R   0.225561 0.087613 0.700828 -0.335320

loop_
_geom_bond_atom_site_label_1
_geom_bond_atom_site_label_2
_geom_bond_distance
_ccdc_geom_bond_type
Zn2   N2    2.038299 S    
C24   H8    1.109401 S    
Zn1   N1    2.038302 S    
C12   N5    1.444577 S    
C15   C17   1.378735 A    
C6    N1    1.385451 A    
C17   H1    1.084666 S    
C24   H9    1.107220 S    
C5    N2    1.386780 A    
C16   C18   1.378494 A    
C21   C22   1.527038 S    
C10   C13   1.187692 T    
O6    C4    1.295290 A    
O7    Zn2   1.913901 S    
C1    C20   1.410591 S    
N8    O19   1.299972 A    
C15   C20   1.406200 A    
C18   H2    1.083536 S    
C9    C14   1.188295 T    
C8    N4    1.432244 S    
C11   N6    1.444963 S    
N5    O14   1.301007 A    
C15   N7    1.439012 S    
C11   C12   1.353223 D    
O5    C3    1.295693 A    
C8    N2    1.364312 A    
C23   H12   1.094041 S    
O3    Zn2   1.975385 S    
C7    N1    1.372328 A    
O1    C1    1.293777 A    
O8    C4    1.298978 A    
C4    C9    1.403778 S    
C22   H4    1.108191 S    
C22   H3    1.107703 S    
N4    O12   1.301113 A    
C21   H6    1.099197 S    
C23   H11   1.110072 S    
O7    C3    1.298580 A    
C17   C19   1.392536 A    
N7    O17   1.300437 A    
O2    Zn2   1.993950 S    
C24   H10   1.107221 S    
C3    C10   1.402967 S    
O1    Zn1   1.993947 S    
C23   C24   1.531744 S    
N5    O13   1.301587 A    
N6    O16   1.301645 A    
C21   H7    1.106189 S    
C2    C19   1.409901 S    
C6    C23   1.510672 S    
O5    Zn1   1.950074 S    
N4    O11   1.300221 A    
O4    C2    1.291766 A    
N3    O9    1.301246 A    
C11   C14   1.420197 S    
C5    C21   1.526982 S    
O4    Zn1   1.975385 S    
N7    O18   1.301520 A    
C16   N8    1.438736 S    
C12   C13   1.419089 S    
O6    Zn2   1.950075 S    
N3    O10   1.299525 A    
N6    O15   1.301499 A    
C5    C7    1.441159 A    
C16   C19   1.404466 A    
C22   H5    1.111123 S    
C18   C20   1.392005 A    
C7    N3    1.429116 S    
O2    C2    1.290972 A    
N8    O20   1.301109 A    
O3    C1    1.289351 A    
O8    Zn1   1.913902 S    
C6    C8    1.431487 A    
