data_mof_unit_21932.cif
_audit_creation_date              2012-12-11T15:56:39-0500
_audit_creation_method            fapswitch 2.2
_symmetry_space_group_name_H-M    P1
_symmetry_Int_Tables_number       1
_space_group_crystal_system       monoclinic
_cell_length_a                    14.669092
_cell_length_b                    7.168975
_cell_length_c                    13.557906
_cell_angle_alpha                 90.0
_cell_angle_beta                  99.880008
_cell_angle_gamma                 90.0
_cell_volume                      1404.63591134

loop_
_atom_site_label
_atom_site_type_symbol
_atom_type_description
_atom_site_fract_x
_atom_site_fract_y
_atom_site_fract_z
_atom_type_partial_charge
O1    O     O_R   0.336930 0.638190 0.166330 -0.543653
O2    O     O_R   0.663070 0.361810 0.833670 -0.539386
O3    O     O_R   0.163070 0.138190 0.333670 -0.543653
O4    O     O_R   0.836930 0.861810 0.666330 -0.539386
O5    O     O_R   0.147900 0.305430 0.139630 -0.524934
O6    O     O_R   0.852100 0.694570 0.860370 -0.536770
O7    O     O_R   0.352100 0.805430 0.360370 -0.524934
O8    O     O_R   0.647900 0.194570 0.639630 -0.536770
C1    C     C_R   0.115064 0.477575 0.113171 0.736940
C2    C     C_R   0.884969 0.522428 0.886787 0.738781
C3    C     C_R   0.384936 0.977575 0.386829 0.736941
C4    C     C_R   0.615031 0.022428 0.613213 0.738781
O9    O     O_R   0.335280 0.308290 0.154310 -0.508712
O10   O     O_R   0.664720 0.691710 0.845690 -0.507052
O11   O     O_R   0.164720 0.808290 0.345690 -0.508715
O12   O     O_R   0.835280 0.191710 0.654310 -0.507051
O13   O     O_R   0.351790 0.140890 0.348460 -0.543837
O14   O     O_R   0.648210 0.859110 0.651540 -0.538525
O15   O     O_R   0.148210 0.640890 0.151540 -0.543838
O16   O     O_R   0.851790 0.359110 0.848460 -0.538524
C5    C     C_R   0.362185 0.476955 0.130957 0.768512
C6    C     C_R   0.637849 0.523076 0.869124 0.778519
C7    C     C_R   0.137815 0.976955 0.369043 0.768510
C8    C     C_R   0.862151 0.023075 0.630876 0.778519
O17   O     O_3   0.255200 0.472570 0.313680 -0.357134
O18   O     O_3   0.744800 0.527430 0.686320 -0.364030
O19   O     O_3   0.244800 0.972570 0.186320 -0.357133
O20   O     O_3   0.755200 0.027430 0.813680 -0.364030
V1    V     V_3+5 0.249040 0.196590 0.238190 1.625012
V2    V     V_3+5 0.750960 0.803410 0.761810 1.603583
V3    V     V_3+5 0.250960 0.696590 0.261810 1.625009
V4    V     V_3+5 0.749040 0.303410 0.738190 1.603584
C9    C     C_R   0.071823 0.867373 0.522289 0.410764
C10   C     C_R   0.928564 0.133712 0.477959 0.470944
C11   C     C_R   0.428177 0.367374 0.977711 0.410768
C12   C     C_R   0.571436 0.633711 0.022041 0.470943
C13   C     C_R   0.002144 0.880817 0.581314 -0.216497
C14   C     C_R   0.997777 0.119003 0.418416 -0.275178
C15   C     C_R   0.497856 0.380818 0.918686 -0.216499
C16   C     C_R   0.502223 0.619003 0.081585 -0.275183
H1    H     H_    0.004693 0.789379 0.645325 0.184295
H2    H     H_    0.995215 0.210120 0.354279 0.183479
H3    H     H_    0.495307 0.289380 0.854675 0.184296
H4    H     H_    0.504785 0.710119 0.145721 0.183482
C17   C     C_R   0.930795 0.013453 0.561525 -0.206876
C18   C     C_R   0.069212 0.986714 0.438363 -0.204076
C19   C     C_R   0.569205 0.513454 0.938475 -0.206876
C20   C     C_R   0.430788 0.486714 0.061637 -0.204078
C21   C     C_1   0.533891 0.008235 0.533173 -0.117872
C22   C     C_1   0.466081 0.991778 0.466863 -0.099840
C23   C     C_1   0.966109 0.508235 0.966827 -0.117872
C24   C     C_1   0.033919 0.491778 0.033136 -0.099839
S1    S     S_3+6 0.162710 0.705681 0.559824 0.076841
O21   O     O_2   0.254060 0.792844 0.550700 -0.308596
O22   O     O_2   0.165289 0.646447 0.666656 -0.288009
O23   O     O_3   0.145988 0.516247 0.485892 -0.473563
H5    H     H_    0.083235 0.471710 0.491751 0.332284
S2    S     S_3+6 0.838764 0.298095 0.441578 0.030714
O24   O     O_2   0.855225 0.465276 0.509213 -0.337834
O25   O     O_2   0.837212 0.359633 0.335278 -0.303071
O26   O     O_3   0.736011 0.201778 0.450622 -0.506811
H6    H     H_    0.690725 0.304924 0.436436 0.361598
S3    S     S_3+6 0.337289 0.205683 0.940175 0.076834
O27   O     O_2   0.245940 0.292846 0.949300 -0.308599
O28   O     O_2   0.334710 0.146451 0.833333 -0.288013
O29   O     O_3   0.354012 0.016248 0.014106 -0.473569
H7    H     H_    0.416759 0.971696 0.008237 0.332288
S4    S     S_3+6 0.661237 0.798094 0.058422 0.030716
O30   O     O_2   0.644775 0.965275 0.990787 -0.337834
O31   O     O_2   0.662788 0.859631 0.164722 -0.303070
O32   O     O_3   0.763989 0.701777 0.049378 -0.506811
H8    H     H_    0.809275 0.804923 0.063563 0.361598

loop_
_geom_bond_atom_site_label_1
_geom_bond_atom_site_label_2
_ccdc_geom_bond_type
O2    C6    A    
C11   C15   A    
C12   S4    S    
O18   V4    S    
O14   V2    S    
C13   C17   A    
O19   V1    S    
O13   V1    S    
O3    C7    A    
O1    V3    S    
O8    C4    A    
C5    C20   S    
O15   V3    S    
S3    O28   D    
O10   C6    A    
S2    O26   S    
O20   V2    S    
C4    C21   S    
S3    O29   S    
O9    C5    A    
O32   H8    S    
O12   C8    A    
C10   C17   A    
S4    O30   D    
S1    O21   D    
O1    C5    A    
C9    C18   A    
O3    V1    S    
O5    C1    A    
C1    C24   S    
O10   V2    S    
S4    O32   S    
C11   C20   A    
O11   C7    A    
O6    V2    S    
C7    C18   S    
C9    C13   A    
O7    C3    A    
O5    V1    S    
S1    O22   D    
C9    S1    S    
O26   H6    S    
O4    C8    A    
C10   S2    S    
C6    C19   S    
C14   C18   A    
O7    V3    S    
O6    C2    A    
C2    C23   S    
S2    O25   D    
C23   C24   T    
O8    V4    S    
C14   H2    S    
C8    C17   S    
C16   H4    S    
O29   H7    S    
O23   H5    S    
O11   V3    S    
C12   C19   A    
O2    V4    S    
C21   C22   T    
O16   V4    S    
S1    O23   S    
C4    O14   A    
C16   C20   A    
S4    O31   D    
C3    C22   S    
O12   V4    S    
C3    O13   A    
C12   C16   A    
C15   H3    S    
S2    O24   D    
C10   C14   A    
C15   C19   A    
C13   H1    S    
C11   S3    S    
C1    O15   A    
O4    V2    S    
O17   V3    S    
O9    V1    S    
C2    O16   A    
S3    O27   D    
