data_mof_unit_58203.cif
_audit_creation_date              2012-12-10T16:49:29-0500
_audit_creation_method            fapswitch 2.2
_symmetry_space_group_name_H-M    P1
_symmetry_Int_Tables_number       1
_space_group_crystal_system       triclinic
_cell_length_a                    7.744554
_cell_length_b                    8.427593
_cell_length_c                    12.862175
_cell_angle_alpha                 90.087461
_cell_angle_beta                  87.107403
_cell_angle_gamma                 93.030527
_cell_volume                      837.245110663

loop_
_atom_site_label
_atom_site_type_symbol
_atom_type_description
_atom_site_fract_x
_atom_site_fract_y
_atom_site_fract_z
_atom_type_partial_charge
C1    C     C_R   0.451698 0.205510 0.510652 0.906519
C2    C     C_R   0.702290 0.419411 0.138972 0.404243
C3    C     C_R   0.567220 0.441411 0.867793 -0.306823
C4    C     C_R   0.434805 0.558720 0.132049 -0.344881
C5    C     C_R   0.570206 0.461132 0.974234 0.051449
C6    C     C_R   0.432650 0.539217 0.025867 -0.002089
C7    C     C_2   0.416138 0.043251 0.542141 -0.075931
C8    C     C_2   0.549212 0.952536 0.562522 -0.056099
C9    C     C_3   0.163185 0.835373 0.029507 -0.728274
C10   C     C_3   0.829034 0.162053 0.964735 -0.822236
C11   C     C_3   0.122035 0.995432 0.477332 -0.596299
C12   C     C_R   0.538570 0.791290 0.523320 0.924361
C13   C     C_3   0.778773 0.906722 0.684562 -0.720430
C14   C     C_R   0.463553 0.502013 0.700085 0.864279
C15   C     C_R   0.536109 0.497078 0.300023 0.939198
C16   C     C_R   0.561744 0.493199 0.188395 -0.139216
C17   C     C_R   0.437585 0.503857 0.811802 -0.196153
C18   C     C_R   0.294939 0.595319 0.970218 0.197380
C19   C     C_R   0.707748 0.404113 0.030026 0.128228
C20   C     C_R   0.297235 0.576559 0.862880 0.375751
H1    H     H_    0.335141 0.623215 0.172870 0.187700
H2    H     H_    0.950603 0.116154 0.929828 0.246927
H3    H     H_    0.722420 0.132323 0.912244 0.244294
H4    H     H_    0.799589 0.102595 0.041105 0.262106
H5    H     H_    0.088605 0.658885 0.349923 0.331968
H6    H     H_    0.913064 0.328886 0.644654 0.324868
H7    H     H_    0.213775 0.895464 0.613998 0.256181
H8    H     H_    0.041988 0.883147 0.473309 0.238775
H9    H     H_    0.193330 0.015386 0.400853 0.215011
H10   H     H_    0.033591 0.093012 0.492838 0.274267
H11   H     H_    0.675161 0.119499 0.655686 0.233509
H12   H     H_    0.667969 0.378966 0.826510 0.184568
H13   H     H_    0.867513 0.975569 0.735223 0.230562
H14   H     H_    0.859496 0.824450 0.638780 0.275660
H15   H     H_    0.680180 0.839176 0.735192 0.229655
H16   H     H_    0.926398 0.325184 0.154362 0.353434
H17   H     H_    0.109648 0.542544 0.773322 0.361151
H18   H     H_    0.098178 0.606873 0.086929 0.230776
H19   H     H_    0.040085 0.878516 0.064105 0.235269
H20   H     H_    0.188127 0.890689 0.951467 0.266484
H21   H     H_    0.269881 0.872366 0.080342 0.220295
H22   H     H_    0.904530 0.391946 0.913576 0.243407
N1    N     N_2   0.054030 0.541640 0.471970 0.175758
N2    N     N_2   0.945970 0.458360 0.528030 0.181186
N3    N     N_2   0.148684 0.664208 0.020570 -0.278974
N4    N     N_2   0.851077 0.332259 0.978310 -0.329437
N5    N     N_2   0.239204 0.987030 0.561312 -0.300436
N6    N     N_2   0.696490 0.014495 0.616992 -0.304586
O1    O     O_R   0.609680 0.261530 0.506880 -0.636076
O2    O     O_3   0.163591 0.634267 0.810082 -0.760277
O3    O     O_3   0.987162 0.611896 0.391065 -0.649650
O4    O     O_3   0.014033 0.378849 0.604636 -0.681774
O5    O     O_R   0.390320 0.738470 0.493120 -0.639898
O6    O     O_R   0.323330 0.288220 0.488910 -0.563720
O7    O     O_R   0.676670 0.711780 0.511090 -0.588967
O8    O     O_R   0.619510 0.488830 0.661140 -0.663867
O9    O     O_R   0.380490 0.511170 0.338860 -0.651982
O10   O     O_R   0.333160 0.515520 0.643180 -0.576333
O11   O     O_R   0.666840 0.484480 0.356820 -0.498972
O12   O     O_3   0.828704 0.361750 0.199039 -0.741533
Zn1   Zn    Zn3+2 0.691200 0.482180 0.511990 1.035569
Zn2   Zn    Zn3+2 0.308800 0.517820 0.488010 1.024126

loop_
_geom_bond_atom_site_label_1
_geom_bond_atom_site_label_2
_ccdc_geom_bond_type
C4    C16   A    
C13   N6    S    
C14   O8    A    
C1    O6    A    
H5    O3    S    
O10   Zn2   S    
C5    C19   A    
H6    O4    S    
C10   H3    S    
C2    C16   A    
O5    Zn2   S    
C11   N5    S    
C12   O5    A    
C15   O11   A    
C8    C12   S    
N1    N2    D    
C10   H4    S    
N2    O4    S    
C8    N6    S    
C19   N4    S    
C7    C8    D    
C10   H2    S    
C9    N3    S    
C4    H1    S    
C15   O9    A    
C14   C17   S    
N1    O3    S    
C5    C6    A    
C1    O1    A    
C11   H8    S    
C14   O10   A    
C13   H14   S    
O7    Zn1   S    
C13   H15   S    
H17   O2    S    
C3    C17   A    
C18   C20   A    
H11   N6    S    
C3    H12   S    
C6    C18   A    
N2    Zn1   S    
C2    O12   S    
N1    Zn2   S    
O11   Zn1   S    
C12   O7    A    
O1    Zn1   S    
C15   C16   S    
C18   N3    S    
C3    C5    A    
C10   N4    S    
C9    H19   S    
C17   C20   A    
C11   H9    S    
C4    C6    A    
C13   H13   S    
H22   N4    S    
H7    N5    S    
O8    Zn1   S    
H18   N3    S    
C20   O2    S    
O6    Zn2   S    
O9    Zn2   S    
C2    C19   A    
C1    C7    S    
C9    H21   S    
C9    H20   S    
C11   H10   S    
H16   O12   S    
C7    N5    S    
