data_mof_unit_27021.cif
_audit_creation_date              2012-10-26T21:05:39-0400
_audit_creation_method            fapswitch 2.2
_symmetry_space_group_name_H-M    P1
_symmetry_Int_Tables_number       1
_space_group_crystal_system       triclinic
_cell_length_a                    13.021851
_cell_length_b                    9.094082
_cell_length_c                    7.790117
_cell_angle_alpha                 90.0
_cell_angle_beta                  96.489033
_cell_angle_gamma                 89.999934
_cell_volume                      916.609411603

loop_
_atom_site_label
_atom_site_type_symbol
_atom_type_description
_atom_site_fract_x
_atom_site_fract_y
_atom_site_fract_z
_atom_type_partial_charge
C1    C     C_R   0.500000 0.220057 0.500000 0.535767
C2    C     C_R   0.871249 0.481933 0.717056 0.252413
C3    C     C_R   0.135848 0.509949 0.595037 -0.183489
C4    C     C_R   0.864152 0.509959 0.404965 -0.183494
C5    C     C_R   0.028766 0.505424 0.582139 -0.015601
C6    C     C_R   0.971234 0.505428 0.417863 -0.015600
C7    C     C_1   0.500000 0.065399 0.500000 -0.060978
C8    C     C_1   0.500000 0.934644 0.500000 -0.053005
C9    C     C_3   0.816946 0.295810 0.876877 -0.010169
C10   C     C_3   0.763669 0.255838 0.034460 -0.347985
C11   C     C_3   0.183081 0.295819 0.123139 -0.010148
C12   C     C_R   0.500000 0.779958 0.500000 0.553447
C13   C     C_3   0.236274 0.255854 0.965461 -0.348029
C14   C     C_R   0.299858 0.498606 0.467327 0.546127
C15   C     C_R   0.700142 0.498608 0.532672 0.546145
C16   C     C_R   0.813168 0.497975 0.553287 -0.000297
C17   C     C_R   0.186832 0.497970 0.446713 -0.000305
C18   C     C_R   0.021388 0.494985 0.269077 -0.113722
C19   C     C_R   0.978611 0.494980 0.730925 -0.113739
C20   C     C_R   0.128750 0.481933 0.282944 0.252410
Cu1   Cu    Cu3+1 0.500010 0.500000 0.669080 1.018083
Cu2   Cu    Cu3+1 0.499990 0.500000 0.330920 1.018095
H1    H     H_    0.820603 0.519232 0.278382 0.160518
H2    H     H_    0.104988 0.243974 0.108776 0.113150
H3    H     H_    0.229829 0.248896 0.239008 0.136117
H4    H     H_    0.310090 0.317149 0.966534 0.193332
H5    H     H_    0.252974 0.136096 0.966202 0.104355
H6    H     H_    0.185096 0.282061 0.845885 0.132359
H7    H     H_    0.179398 0.519214 0.721621 0.160523
H8    H     H_    0.977101 0.488034 0.143163 0.149093
H9    H     H_    0.022898 0.488022 0.856838 0.149096
H10   H     H_    0.895053 0.244014 0.891374 0.113169
H11   H     H_    0.770272 0.248843 0.760963 0.136069
H12   H     H_    0.689821 0.317068 0.033234 0.193331
H13   H     H_    0.747021 0.136067 0.033739 0.104334
H14   H     H_    0.814765 0.282116 0.154097 0.132395
N1    N     N_1   0.499980 0.500000 0.076820 -0.089064
N2    N     N_1   0.500020 0.500000 0.923180 -0.089082
O1    O     O_R   0.500000 0.288400 0.642760 -0.509136
O2    O     O_3   0.175465 0.450522 0.136383 -0.553033
O3    O     O_R   0.500000 0.711600 0.357240 -0.492305
O4    O     O_R   0.500000 0.288400 0.357240 -0.509132
O5    O     O_R   0.500000 0.711600 0.642760 -0.492304
O6    O     O_R   0.349000 0.500000 0.619590 -0.524142
O7    O     O_R   0.651000 0.500000 0.380410 -0.524133
O8    O     O_R   0.348990 0.500000 0.334020 -0.454211
O9    O     O_R   0.651010 0.500000 0.665980 -0.454198
O10   O     O_3   0.824530 0.450515 0.863611 -0.553025

loop_
_geom_bond_atom_site_label_1
_geom_bond_atom_site_label_2
_ccdc_geom_bond_type
C4    C16   A    
C13   H6    S    
N1    N2    T    
C5    C19   A    
Cu1   O6    S    
C2    C16   A    
C9    C10   S    
C1    O4    A    
Cu1   O1    S    
C15   O9    A    
C8    C12   S    
C19   H9    S    
C17   C20   A    
C7    C8    T    
C14   O8    A    
Cu2   O4    S    
Cu1   Cu2   S    
C9    H11   S    
C11   C13   S    
C14   C17   S    
C12   O3    A    
C10   H12   S    
C18   H8    S    
C14   O6    A    
Cu2   O8    S    
C3    C17   A    
C12   O5    A    
C18   C20   A    
C5    C6    A    
C20   O2    S    
C6    C18   A    
Cu1   O9    S    
C13   H4    S    
Cu2   O3    S    
C1    O1    A    
C11   O2    S    
C10   H13   S    
C11   H2    S    
Cu2   O7    S    
C9    O10   S    
C4    C6    A    
C3    H7    S    
C4    H1    S    
C11   H3    S    
C13   H5    S    
C10   H14   S    
C9    H10   S    
C2    O10   S    
C2    C19   A    
C1    C7    S    
Cu2   N1    S    
Cu1   O5    S    
Cu1   N2    S    
C15   C16   S    
C3    C5    A    
C15   O7    A    
