data_mof_unit_18967.cif
_audit_creation_date              2012-12-10T16:52:05-0500
_audit_creation_method            fapswitch 2.2
_symmetry_space_group_name_H-M    P1
_symmetry_Int_Tables_number       1
_space_group_crystal_system       triclinic
_cell_length_a                    7.764088
_cell_length_b                    8.56323
_cell_length_c                    14.921874
_cell_angle_alpha                 91.196095
_cell_angle_beta                  85.637143
_cell_angle_gamma                 93.754813
_cell_volume                      986.966650249

loop_
_atom_site_label
_atom_site_type_symbol
_atom_type_description
_atom_site_fract_x
_atom_site_fract_y
_atom_site_fract_z
_atom_type_partial_charge
C1    C     C_R   0.545865 0.794770 0.497627 0.963946
C2    C     C_R   0.454134 0.205229 0.502323 0.964159
C3    C     C_R   0.767633 0.666516 0.943344 -0.274271
C4    C     C_R   0.234182 0.331965 0.056484 -0.264207
C5    C     C_2   0.570017 0.958303 0.496193 -0.382195
C6    C     C_2   0.429984 0.041692 0.503671 -0.382738
C7    C     C_R   0.501631 0.498884 0.672968 0.882483
C8    C     C_R   0.498396 0.501199 0.327014 0.883434
C9    C     C_R   0.360964 0.425653 0.190607 -0.246539
C10   C     C_R   0.638245 0.576010 0.809301 -0.246040
C11   C     C_R   0.495867 0.505317 0.231663 -0.060981
C12   C     C_R   0.504339 0.494726 0.768269 -0.059379
C13   C     C_R   0.631910 0.585361 0.182229 -0.259839
C14   C     C_R   0.370132 0.412137 0.817640 -0.266659
C15   C     C_R   0.635112 0.588127 0.088900 0.089565
C16   C     C_R   0.367513 0.409167 0.910941 0.086041
C17   C     C_R   0.499972 0.502322 0.046605 0.012078
C18   C     C_R   0.501004 0.497264 0.953270 0.015201
C19   C     C_R   0.363731 0.420742 0.097915 0.095622
C20   C     C_R   0.636235 0.580097 0.901973 0.099175
C21   C     C_R   0.769649 0.671935 0.036735 0.166539
C22   C     C_R   0.235795 0.322033 0.963068 0.172517
H1    H     H_    0.257605 0.362832 0.230914 0.143310
H2    H     H_    0.740907 0.639685 0.768968 0.142652
H3    H     H_    0.733246 0.645495 0.218005 0.165758
H4    H     H_    0.268967 0.351460 0.781940 0.165743
H5    H     H_    0.869323 0.730118 0.902412 0.148651
H6    H     H_    0.132362 0.268164 0.097232 0.148764
H7    H     H_    0.702208 0.009517 0.489023 0.179990
H8    H     H_    0.297792 0.990477 0.510829 0.179751
H9    H     H_    0.013968 0.382696 0.431974 0.188881
H10   H     H_    0.986030 0.617294 0.568031 0.188419
N1    N     N_2   0.950330 0.457950 0.475660 -0.174573
N2    N     N_2   0.049670 0.542050 0.524340 -0.174775
O1    O     O_R   0.389250 0.738570 0.505970 -0.611595
O2    O     O_R   0.610750 0.261430 0.494030 -0.611311
O3    O     O_R   0.678390 0.711620 0.490370 -0.633395
O4    O     O_R   0.321610 0.288380 0.509630 -0.633553
O5    O     O_R   0.355420 0.513510 0.639950 -0.622037
O6    O     O_R   0.644580 0.486490 0.360050 -0.621877
O7    O     O_R   0.644560 0.486560 0.624350 -0.628116
O8    O     O_R   0.355440 0.513440 0.375650 -0.627850
Zn1   Zn    Zn3+2 0.306940 0.517990 0.510420 0.939289
Zn2   Zn    Zn3+2 0.693060 0.482010 0.489580 0.939694
C23   C     C_3   0.915920 0.768786 0.077289 -0.403893
C24   C     C_3   0.855070 0.924535 0.115437 -0.876605
H11   H     H_    0.803373 0.991996 0.061796 0.265113
H12   H     H_    0.752451 0.906182 0.170771 0.261969
H13   H     H_    0.965928 0.994465 0.142145 0.243538
H14   H     H_    0.972591 0.702215 0.129639 0.206320
H15   H     H_    0.023923 0.795304 0.025423 0.204105
C25   C     C_3   0.098547 0.214123 0.922569 -0.438427
C26   C     C_3   0.942653 0.302909 0.902063 -0.832631
H16   H     H_    0.880880 0.350889 0.965415 0.264912
H17   H     H_    0.982028 0.400266 0.855361 0.262974
H18   H     H_    0.846245 0.222150 0.870485 0.251159
H19   H     H_    0.151969 0.153008 0.861356 0.199550
H20   H     H_    0.053503 0.119270 0.970105 0.212180

loop_
_geom_bond_atom_site_label_1
_geom_bond_atom_site_label_2
_ccdc_geom_bond_type
C16   C22   A    
H9    N1    S    
C11   C13   A    
C2    O4    A    
O6    Zn2   S    
C18   C20   A    
C1    O3    A    
C8    O8    A    
C10   H2    S    
O1    Zn1   S    
O3    Zn2   S    
C3    H5    S    
C17   C18   A    
O4    Zn1   S    
C23   C24   S    
C14   H4    S    
C6    H8    S    
C9    C11   A    
C24   H13   S    
C13   H3    S    
C2    C6    S    
C15   C21   A    
C10   C12   A    
C23   H14   S    
C8    C11   S    
C1    C5    S    
C22   C25   S    
C17   C19   A    
C12   C14   A    
N1    N2    D    
C5    H7    S    
C13   C15   A    
C5    C6    D    
C25   H20   S    
O7    Zn2   S    
C14   C16   A    
C7    C12   S    
C3    C21   A    
O2    Zn2   S    
O8    Zn1   S    
C23   H15   S    
C26   H17   S    
C24   H12   S    
C3    C20   A    
C4    C22   A    
C25   C26   S    
C1    O1    A    
C16   C18   A    
C25   H19   S    
C26   H18   S    
C2    O2    A    
C15   C17   A    
C7    O5    A    
C24   H11   S    
C9    H1    S    
O5    Zn1   S    
C8    O6    A    
N1    Zn2   S    
C4    H6    S    
C26   H16   S    
C4    C19   A    
C9    C19   A    
N2    Zn1   S    
C7    O7    A    
C10   C20   A    
C21   C23   S    
H10   N2    S    
