data_mof_unit_19294.cif
_audit_creation_date              2012-12-11T16:50:51-0500
_audit_creation_method            fapswitch 2.2
_symmetry_space_group_name_H-M    P1
_symmetry_Int_Tables_number       1
_space_group_crystal_system       triclinic
_cell_length_a                    6.94628
_cell_length_b                    28.805292
_cell_length_c                    32.125737
_cell_angle_alpha                 100.908841
_cell_angle_beta                  89.597221
_cell_angle_gamma                 90.531869
_cell_volume                      6311.50615436

loop_
_atom_site_label
_atom_site_type_symbol
_atom_type_description
_atom_site_fract_x
_atom_site_fract_y
_atom_site_fract_z
_atom_type_partial_charge
O1    O     O_R   0.494350 0.453170 0.452520 -0.543564
O2    O     O_R   0.820980 0.455850 0.538220 -0.542387
O3    O     O_R   0.994300 0.546830 0.547480 -0.542166
C1    C     C_R   0.651503 0.446294 0.552035 0.765363
O4    O     O_R   0.823860 0.447590 0.452270 -0.546017
O5    O     O_R   0.997200 0.538510 0.460920 -0.541823
C2    C     C_R   0.654996 0.434750 0.436582 0.705675
O6    O     O_R   0.491440 0.461490 0.539080 -0.511145
O7    O     O_3   0.661790 0.529840 0.502940 -0.369863
V1    V     V_3+5 0.935470 0.494460 0.499450 1.423572
O8    O     O_R   0.327090 0.544150 0.461780 -0.546864
C3    C     C_R   0.159107 0.554206 0.448340 0.706516
O9    O     O_R   0.324210 0.552410 0.547730 -0.511713
C4    C     C_R   0.155345 0.565572 0.563275 0.795076
V2    V     V_3+5 0.435840 0.505540 0.500550 1.459205
O10   O     O_3   0.159650 0.470160 0.497060 -0.367950
C5    C     C_R   0.220302 0.871866 0.887765 -0.244531
C6    C     C_R   0.231748 0.834033 0.852718 0.489822
C7    C     C_R   0.067287 0.821088 0.827220 -0.006006
C8    C     C_R   0.893832 0.845103 0.838715 -0.212349
C9    C     C_R   0.882360 0.881166 0.874517 -0.160194
C10   C     C_R   0.045708 0.895237 0.899336 -0.112026
C11   C     C_R   0.982161 0.789256 0.750878 -0.177088
H1    H     H_    0.906089 0.821607 0.749678 0.126446
C12   C     C_R   0.990647 0.754181 0.714210 -0.107495
C13   C     C_R   0.094410 0.712613 0.714007 0.182017
C14   C     C_R   0.183954 0.705818 0.751314 -0.128405
C15   C     C_R   0.171694 0.740370 0.788276 -0.108647
C16   C     C_R   0.074370 0.783090 0.788358 0.111286
C17   C     C_R   0.286742 0.670432 0.651664 0.374504
C18   C     C_R   0.303826 0.634322 0.615400 0.382688
C19   C     C_R   0.143958 0.604672 0.601143 -0.315266
C20   C     C_R   0.969251 0.612365 0.623691 -0.308845
H2    H     H_    0.844109 0.590704 0.613225 0.200819
C21   C     C_R   0.953660 0.646980 0.660680 0.471841
C22   C     C_R   0.111449 0.676556 0.674599 -0.223791
C23   C     C_R   0.093959 0.656127 0.282383 0.594083
N1    N     N_R   0.116620 0.675899 0.324610 -0.556977
C24   C     C_R   0.123812 0.724247 0.337241 0.628582
C25   C     C_R   0.126805 0.753968 0.307136 -0.020954
C26   C     C_R   0.095091 0.734301 0.264179 -0.077985
C27   C     C_R   0.071513 0.684968 0.251543 -0.125549
C28   C     C_R   0.159917 0.802920 0.319078 -0.131676
C29   C     C_R   0.164592 0.831806 0.288674 -0.145782
C30   C     C_R   0.125934 0.812880 0.245920 -0.031281
C31   C     C_R   0.085970 0.764223 0.233905 -0.020322
C32   C     C_R   0.035493 0.745580 0.191784 -0.110299
C33   C     C_R   0.003873 0.696716 0.179642 -0.230092
C34   C     C_R   0.029627 0.666109 0.208454 0.469092
C35   C     C_R   0.126096 0.841434 0.214804 0.602159
N2    N     N_R   0.066827 0.823394 0.174135 -0.541626
C36   C     C_R   0.016379 0.776418 0.162812 0.635960
O11   O     O_2   0.096133 0.608705 0.270139 -0.496405
O12   O     O_2   0.125130 0.743797 0.378857 -0.500338
H3    H     H_    0.186525 0.818934 0.351855 0.169848
O13   O     O_2   0.186617 0.886757 0.225188 -0.515560
O14   O     O_2   0.946404 0.759500 0.123771 -0.514255
C37   C     C_R   0.160587 0.843188 0.104197 0.460652
C38   C     C_R   0.150897 0.873311 0.074669 -0.281452
C39   C     C_R   0.038752 0.914191 0.082709 -0.171156
C40   C     C_R   0.935238 0.925014 0.120819 -0.285915
H4    H     H_    0.850821 0.957036 0.127683 0.151422
C41   C     C_R   0.943589 0.895659 0.151009 0.461148
C42   C     C_R   0.056944 0.854101 0.143058 0.150209
C43   C     C_R   0.282676 0.650644 0.385684 0.526496
C44   C     C_R   0.290770 0.620949 0.415893 -0.293724
H5    H     H_    0.404503 0.626228 0.439261 0.137455
C45   C     C_R   0.150999 0.585567 0.416669 -0.099851
C46   C     C_R   0.002691 0.580092 0.386705 -0.209734
C47   C     C_R   0.994355 0.609143 0.356514 -0.194776
C48   C     C_R   0.130886 0.645412 0.355903 0.264115
C49   C     C_R   0.546709 0.226916 0.840464 0.613138
N3    N     N_R   0.594397 0.179940 0.829009 -0.529899
C50   C     C_R   0.654323 0.161921 0.788277 0.614428
C51   C     C_R   0.654369 0.190219 0.757014 -0.054188
C52   C     C_R   0.614437 0.238685 0.768961 -0.018788
C53   C     C_R   0.566560 0.257623 0.811333 -0.051504
C54   C     C_R   0.692940 0.171251 0.714170 -0.143387
C55   C     C_R   0.687309 0.199924 0.683587 -0.139153
C56   C     C_R   0.652525 0.248691 0.695422 -0.031204
C57   C     C_R   0.621856 0.268270 0.738421 -0.014817
C58   C     C_R   0.598725 0.317349 0.750959 -0.050767
C59   C     C_R   0.558862 0.336279 0.793771 -0.136317
C60   C     C_R   0.537989 0.306620 0.823382 -0.139910
C61   C     C_R   0.645509 0.278344 0.665253 0.555950
N4    N     N_R   0.630277 0.326646 0.677830 -0.539144
C62   C     C_R   0.616655 0.346283 0.720315 0.634603
O15   O     O_2   0.477710 0.243894 0.879688 -0.517254
O16   O     O_2   0.714619 0.116801 0.777955 -0.513698
H6    H     H_    0.713308 0.183880 0.650759 0.168793
O17   O     O_2   0.651247 0.258711 0.623672 -0.527888
O18   O     O_2   0.623332 0.393640 0.733164 -0.505802
C63   C     C_R   0.490243 0.392240 0.646509 0.427601
C64   C     C_R   0.498655 0.422410 0.616570 0.325413
C65   C     C_R   0.640787 0.415637 0.584317 -0.196477
C66   C     C_R   0.776985 0.379906 0.583687 -0.273228
H7    H     H_    0.888230 0.374163 0.559500 0.165503
C67   C     C_R   0.771390 0.350912 0.613944 -0.195835
C68   C     C_R   0.630851 0.356846 0.646157 0.212759
C69   C     C_R   0.463065 0.107404 0.851130 0.467977
C70   C     C_R   0.451140 0.077264 0.880548 -0.358054
H8    H     H_    0.366667 0.044986 0.872865 0.174696
C71   C     C_R   0.550938 0.087516 0.918898 -0.265491
C72   C     C_R   0.661507 0.129355 0.928558 0.339359
C73   C     C_R   0.678639 0.159554 0.898910 0.366454
C74   C     C_R   0.578545 0.148965 0.859802 0.096660
C75   C     C_R   0.716670 0.114090 0.124022 -0.173419
H9    H     H_    0.843355 0.092745 0.115224 0.142981
C76   C     C_R   0.724839 0.150116 0.159871 -0.233380
H10   H     H_    0.856927 0.155437 0.177952 0.191314
C77   C     C_R   0.564092 0.178592 0.172823 0.047670
C78   C     C_R   0.394879 0.171681 0.148185 0.547978
C79   C     C_R   0.385420 0.133708 0.113100 -0.292309
C80   C     C_R   0.546075 0.104938 0.100543 -0.108653
C81   C     C_R   0.443301 0.218187 0.245338 0.554711
C82   C     C_R   0.459336 0.254062 0.281487 -0.313545
H11   H     H_    0.354668 0.255435 0.306796 0.174102
C83   C     C_R   0.610900 0.287197 0.285663 -0.070677
C84   C     C_R   0.744674 0.285071 0.252068 0.553231
C85   C     C_R   0.728589 0.249212 0.215910 -0.307104
H12   H     H_    0.833530 0.247786 0.190656 0.172780
C86   C     C_R   0.577014 0.216074 0.211736 -0.056603
C87   C     C_R   0.795374 0.331518 0.349003 0.538952
C88   C     C_R   0.805541 0.368070 0.384821 -0.269452
C89   C     C_R   0.644498 0.396317 0.398438 -0.113749
C90   C     C_R   0.473003 0.387634 0.375117 -0.165874
C91   C     C_R   0.463721 0.352306 0.338708 -0.212486
C92   C     C_R   0.624725 0.324304 0.324823 0.033756
O19   O     O_R   0.699170 0.038480 0.960880 -0.518110
O20   O     O_R   0.366800 0.052460 0.047690 -0.544346
O21   O     O_R   0.193520 0.961530 0.039110 -0.537583
C93   C     C_R   0.535735 0.065592 0.063146 0.719533
O22   O     O_R   0.369630 0.044100 0.961740 -0.543921
O23   O     O_R   0.196370 0.953120 0.952550 -0.542926
C94   C     C_R   0.539223 0.054314 0.948653 0.803123
O24   O     O_R   0.696320 0.046890 0.047450 -0.538191
O25   O     O_3   0.528890 0.970170 0.997080 -0.377100
V3    V     V_3+5 0.255190 0.005530 0.000540 1.422173
O26   O     O_R   0.866460 0.947530 0.952310 -0.546367
C95   C     C_R   0.035418 0.934497 0.936786 0.710394
O27   O     O_R   0.863630 0.955880 0.038270 -0.541332
C96   C     C_R   0.031553 0.945928 0.051628 0.749452
V4    V     V_3+5 0.754830 0.994440 0.999470 1.433451
O28   O     O_3   0.031000 0.029830 0.002920 -0.359181
H13   H     H_    0.348801 0.883251 0.905828 0.131672
O29   O     O_3   0.481402 0.626627 0.595678 -0.528912
C97   C     C_3   0.494130 0.653333 0.563198 -0.132838
H14   H     H_    0.497827 0.691828 0.576459 0.125897
H15   H     H_    0.374371 0.644926 0.540057 0.089790
H16   H     H_    0.630833 0.644385 0.545562 0.146580
O30   O     O_3   0.780936 0.653483 0.682543 -0.501559
C98   C     C_3   0.752374 0.616155 0.704720 -0.139513
H17   H     H_    0.874506 0.613539 0.726422 0.105667
H18   H     H_    0.729447 0.581910 0.682626 0.105047
H19   H     H_    0.620429 0.623431 0.724449 0.154365
H20   H     H_    0.194332 0.869181 0.298947 0.168279
H21   H     H_    0.962298 0.681755 0.147427 0.179423
O31   O     O_3   0.996047 0.618209 0.195109 -0.528139
C99   C     C_3   0.152848 0.598546 0.169857 -0.137454
H22   H     H_    0.133439 0.559597 0.162312 0.164989
H23   H     H_    0.291935 0.606021 0.186994 0.143497
H24   H     H_    0.158572 0.611324 0.139302 0.112214
O32   O     O_3   0.259396 0.801201 0.092930 -0.523731
C100  C     C_3   0.444412 0.806875 0.110778 -0.187330
H25   H     H_    0.435853 0.811168 0.145807 0.119606
H26   H     H_    0.524053 0.836888 0.101103 0.114992
H27   H     H_    0.527715 0.774327 0.098976 0.197462
H28   H     H_    0.229258 0.864258 0.044993 0.151069
O33   O     O_3   0.406807 0.812859 0.840414 -0.562823
C101  C     C_3   0.483949 0.793017 0.873629 -0.310011
H29   H     H_    0.373522 0.773334 0.888902 0.134639
H30   H     H_    0.554521 0.820552 0.897670 0.152530
H31   H     H_    0.596514 0.767340 0.860147 0.178826
O34   O     O_3   0.854793 0.910516 0.189829 -0.522551
C102  C     C_3   0.673649 0.888265 0.189527 -0.179656
H32   H     H_    0.688712 0.849345 0.186038 0.115452
H33   H     H_    0.579722 0.897540 0.164445 0.122054
H34   H     H_    0.601903 0.901121 0.220454 0.198327
O35   O     O_3   0.415732 0.686856 0.387016 -0.527115
C103  C     C_3   0.591304 0.667655 0.370258 -0.225218
H35   H     H_    0.573260 0.646876 0.337536 0.127179
H36   H     H_    0.655719 0.645716 0.391427 0.135793
H37   H     H_    0.693204 0.697086 0.368394 0.190334
H38   H     H_    0.893671 0.552873 0.386293 0.140289
H39   H     H_    0.878567 0.603624 0.333740 0.159706
H40   H     H_    0.723045 0.133993 0.703977 0.170118
H41   H     H_    0.538947 0.373923 0.804330 0.169279
H42   H     H_    0.502713 0.322303 0.855861 0.168548
O36   O     O_3   0.348226 0.399117 0.677310 -0.521112
C104  C     C_3   0.188022 0.371186 0.661799 -0.181741
H43   H     H_    0.222742 0.332846 0.656271 0.122556
H44   H     H_    0.134244 0.381195 0.632242 0.150678
H45   H     H_    0.070961 0.377609 0.685821 0.179700
H46   H     H_    0.765644 0.835711 0.819966 0.187760
O37   O     O_3   0.361779 0.457300 0.618207 -0.541635
C105  C     C_3   0.432859 0.499174 0.643665 -0.160330
H47   H     H_    0.564994 0.512161 0.629585 0.102019
H48   H     H_    0.461506 0.494195 0.676583 0.156683
H49   H     H_    0.322077 0.526994 0.645511 0.145576
H50   H     H_    0.879750 0.323909 0.612485 0.169014
O38   O     O_3   0.376501 0.093159 0.812129 -0.517146
C106  C     C_3   0.197169 0.115486 0.812538 -0.166418
H51   H     H_    0.215060 0.154456 0.816579 0.111034
H52   H     H_    0.100260 0.105753 0.837309 0.121509
H53   H     H_    0.127175 0.103135 0.781445 0.197136
O39   O     O_3   0.761712 0.139925 0.966273 -0.536179
C107  C     C_3   0.640314 0.165894 0.997429 -0.175429
H54   H     H_    0.509965 0.145101 0.003012 0.097219
H55   H     H_    0.597936 0.200033 0.988841 0.167690
H56   H     H_    0.720235 0.174148 0.027751 0.144670
O40   O     O_3   0.781680 0.201313 0.910216 -0.516153
C108  C     C_3   0.967699 0.195127 0.892576 -0.137088
H57   H     H_    0.962019 0.191261 0.857578 0.107869
H58   H     H_    0.042062 0.164651 0.902009 0.123768
H59   H     H_    0.054485 0.227278 0.904755 0.186497
O41   O     O_3   0.238908 0.201169 0.160264 -0.533960
C109  C     C_3   0.164852 0.218509 0.125374 -0.268013
H60   H     H_    0.060108 0.192912 0.107674 0.143327
H61   H     H_    0.280122 0.227364 0.103772 0.124160
H62   H     H_    0.086019 0.251652 0.137528 0.167698
H63   H     H_    0.745777 0.898614 0.882297 0.142623
H64   H     H_    0.252764 0.126815 0.095472 0.137367
O42   O     O_3   0.293170 0.185960 0.242568 -0.525952
C110  C     C_3   0.346468 0.149605 0.263896 -0.241279
H65   H     H_    0.367461 0.163346 0.298358 0.122661
H66   H     H_    0.478486 0.131265 0.249670 0.137524
H67   H     H_    0.228355 0.123004 0.260642 0.175200
O43   O     O_3   0.895042 0.317219 0.254821 -0.524589
C111  C     C_3   0.840179 0.354157 0.234355 -0.229961
H68   H     H_    0.709777 0.372518 0.249428 0.133816
H69   H     H_    0.815700 0.341025 0.199916 0.125829
H70   H     H_    0.958914 0.380580 0.237416 0.171278
O44   O     O_3   0.954658 0.303565 0.337389 -0.538153
C112  C     C_3   0.945876 0.265161 0.358802 -0.249220
H71   H     H_    0.813400 0.243431 0.350403 0.133476
H72   H     H_    0.954472 0.277416 0.393750 0.128392
H73   H     H_    0.071042 0.241982 0.348932 0.166704
H74   H     H_    0.939135 0.373618 0.402327 0.141897
H75   H     H_    0.346120 0.408667 0.384607 0.141900
H76   H     H_    0.330632 0.347165 0.320984 0.192438
H77   H     H_    0.920416 0.759926 0.685642 0.120952
H78   H     H_    0.262373 0.673604 0.751831 0.114547
H79   H     H_    0.237373 0.733376 0.816837 0.135179
O45   O     O_3   0.448190 0.697257 0.665725 -0.500987
C113  C     C_3   0.427576 0.743999 0.658868 -0.162752
H80   H     H_    0.382872 0.767498 0.688759 0.152124
H81   H     H_    0.325161 0.747521 0.633049 0.080515
H82   H     H_    0.570202 0.756775 0.649855 0.148319

loop_
_geom_bond_atom_site_label_1
_geom_bond_atom_site_label_2
_ccdc_geom_bond_type
O2    V1    S    
C44   C45   A    
C110  H67   S    
C90   C91   A    
C64   O37   S    
C65   C66   A    
C26   C27   A    
O2    C1    A    
C97   H14   S    
C1    O6    A    
C110  H65   S    
C56   C61   A    
C57   C58   A    
C61   O17   S    
C87   C88   A    
C102  H33   S    
C30   C31   A    
O45   C113  S    
C109  H62   S    
C3    C45   S    
C13   C14   A    
C104  H43   S    
O9    V2    S    
C106  H52   S    
C59   C60   A    
C11   C16   A    
C50   O16   S    
C81   O42   S    
C15   C16   A    
C97   H15   S    
C23   N1    A    
O29   C97   S    
O24   V4    S    
C76   C77   A    
O5    C3    A    
C17   C18   A    
O34   C102  S    
C24   O12   S    
C101  H29   S    
C37   O32   S    
V2    O10   S    
C67   C68   A    
C10   C95   S    
C105  H47   S    
C82   H11   S    
C5    C6    A    
C6    C7    A    
O33   C101  S    
C21   O30   S    
C23   C27   A    
C40   C41   A    
C71   C94   S    
C83   C84   A    
C72   C73   A    
C55   H6    S    
C104  H45   S    
C39   C96   S    
C87   O44   S    
C18   O29   S    
O26   V4    S    
C83   C92   S    
C25   C28   A    
C64   C65   A    
C99   H22   S    
C103  H36   S    
C45   C46   A    
C106  H53   S    
C66   C67   A    
C107  H56   S    
C26   C31   A    
C99   H23   S    
O21   V3    S    
C47   C48   A    
C54   H40   S    
C15   H79   S    
C72   O39   S    
C38   C39   A    
O7    V1    S    
C63   C68   A    
C47   H39   S    
C103  H37   S    
C23   O11   S    
C78   O41   S    
C44   H5    S    
O25   V4    S    
O30   C98   S    
O22   V3    S    
C70   C71   A    
C81   C86   A    
O19   C94   A    
C9    C10   A    
C77   C86   S    
C12   H77   S    
C75   C76   A    
C59   H41   S    
C40   H4    S    
O27   C96   A    
C112  H72   S    
C105  H49   S    
C90   H75   S    
C8    H46   S    
O43   C111  S    
C49   O15   S    
C111  H68   S    
C85   C86   A    
C84   O43   S    
C35   N2    A    
C102  H34   S    
N3    C50   A    
C37   C42   A    
N1    C24   A    
C50   C51   A    
N2    C42   S    
C41   C42   A    
N2    C36   A    
C29   H20   S    
C70   H8    S    
C97   H16   S    
C52   C53   A    
O42   C110  S    
C105  H48   S    
C106  H51   S    
C24   C25   A    
O4    C2    A    
C113  H80   S    
O39   C107  S    
C49   N3    A    
C43   O35   S    
C53   C60   A    
O40   C108  S    
C12   C13   A    
C43   C48   A    
C35   O13   S    
C107  H54   S    
C39   C40   A    
C21   C22   A    
C5    H13   S    
C51   C52   A    
C75   C80   A    
O5    V1    S    
C49   C53   A    
O44   C112  S    
C1    C65   S    
C88   H74   S    
C69   O38   S    
C33   H21   S    
C18   C19   A    
C98   H19   S    
C93   O24   A    
C66   H7    S    
C8    C9    A    
C20   H2    S    
C99   H24   S    
C67   H50   S    
C63   C64   A    
C31   C32   A    
O41   C109  S    
C84   C85   A    
N4    C68   S    
O21   C96   A    
C61   N4    A    
O3    C4    A    
C9    H63   S    
O1    V2    S    
C28   H3    S    
C25   C26   A    
C2    C89   S    
C98   H18   S    
C43   C44   A    
O6    V2    S    
O8    V2    S    
C46   H38   S    
C113  H81   S    
C28   C29   A    
O31   C99   S    
C55   C56   A    
C60   H42   S    
C109  H61   S    
C112  H71   S    
C75   H9    S    
C91   C92   A    
C7    C16   S    
C14   H78   S    
C14   C15   A    
C62   O18   S    
C103  H35   S    
N4    C62   A    
C41   O34   S    
C107  H55   S    
C79   C80   A    
O25   V3    S    
C6    O33   S    
C13   C22   S    
O36   C104  S    
N1    C48   S    
C100  H25   S    
C104  H44   S    
C77   C78   A    
C54   C55   A    
C108  H59   S    
C80   C93   S    
C100  H27   S    
C29   C30   A    
C4    C19   S    
C56   C57   A    
C32   C33   A    
C110  H66   S    
C52   C57   A    
O23   V3    S    
O26   C95   A    
C32   C36   A    
O19   V4    S    
C63   O36   S    
O35   C103  S    
C111  H70   S    
C73   C74   A    
C69   C74   A    
C5    C10   A    
C73   O40   S    
O38   C106  S    
C17   C22   A    
O20   C93   A    
C19   C20   A    
C7    C8    A    
O27   V4    S    
V4    O28   S    
O7    V2    S    
O4    V1    S    
C111  H69   S    
C102  H32   S    
V1    O10   S    
C76   H10   S    
O23   C95   A    
N3    C74   S    
C89   C90   A    
C101  H30   S    
C30   C35   A    
V3    O28   S    
O3    V1    S    
C109  H60   S    
C100  H26   S    
C69   C70   A    
C20   C21   A    
C82   C83   A    
C78   C79   A    
C11   C12   A    
C46   C47   A    
C34   O31   S    
C51   C54   A    
C37   C38   A    
C79   H64   S    
O32   C100  S    
C36   O14   S    
C108  H58   S    
C11   H1    S    
O37   C105  S    
C91   H76   S    
C98   H17   S    
C58   C59   A    
C33   C34   A    
C113  H82   S    
C87   C92   A    
C71   C72   A    
O22   C94   A    
C85   H12   S    
O1    C2    A    
C17   O45   S    
C81   C82   A    
C27   C34   A    
O9    C4    A    
C112  H73   S    
C38   H28   S    
C58   C62   A    
O8    C3    A    
C108  H57   S    
C88   C89   A    
C101  H31   S    
O20   V3    S    
