data_mof_unit_61989.cif
_audit_creation_date              2012-12-10T18:08:48-0500
_audit_creation_method            fapswitch 2.2
_symmetry_space_group_name_H-M    P1
_symmetry_Int_Tables_number       1
_space_group_crystal_system       triclinic
_cell_length_a                    12.743498
_cell_length_b                    13.919865
_cell_length_c                    23.532378
_cell_angle_alpha                 90.253902
_cell_angle_beta                  92.44958
_cell_angle_gamma                 98.088238
_cell_volume                      4128.82524227

loop_
_atom_site_label
_atom_site_type_symbol
_atom_type_description
_atom_site_fract_x
_atom_site_fract_y
_atom_site_fract_z
_atom_type_partial_charge
C1    C     C_R   0.483448 0.315904 0.499468 0.819449
C2    C     C_R   0.516551 0.684096 0.500532 0.819432
C3    C     C_R   0.589110 0.550330 0.239767 0.344510
C4    C     C_R   0.410903 0.449625 0.760230 0.344519
C5    C     C_R   0.590800 0.552114 0.299507 0.319600
C6    C     C_R   0.409219 0.447842 0.700490 0.319588
C7    C     C_R   0.503518 0.503556 0.328165 -0.252610
C8    C     C_R   0.496481 0.496441 0.671834 -0.252592
C9    C     C_R   0.415657 0.455647 0.296425 -0.271682
C10   C     C_R   0.584318 0.544389 0.703575 -0.271683
C11   C     C_R   0.414137 0.454178 0.237235 0.410404
C12   C     C_R   0.585834 0.545857 0.762765 0.410410
C13   C     C_R   0.500875 0.501240 0.208755 0.108376
C14   C     C_R   0.499113 0.498755 0.791243 0.108379
C15   C     C_1   0.526228 0.787250 0.500513 -0.066872
C16   C     C_1   0.473772 0.212750 0.499487 -0.066860
C17   C     C_2   0.543668 0.977975 0.500291 0.281328
C18   C     C_2   0.456331 0.022025 0.499710 0.281332
C19   C     C_1   0.465218 0.125823 0.499565 0.100305
C20   C     C_1   0.534782 0.874177 0.500435 0.100300
C21   C     C_2   0.028629 0.474205 0.483234 0.196390
C22   C     C_2   0.971371 0.525795 0.516766 0.196381
C23   C     C_R   0.501274 0.501973 0.390751 0.881513
C24   C     C_R   0.498726 0.498026 0.609249 0.881524
C25   C     C_1   0.854467 0.519038 0.511847 0.348003
C26   C     C_1   0.145533 0.480962 0.488152 0.347990
C27   C     C_R   0.460266 0.572440 0.879691 0.653145
C28   C     C_R   0.539720 0.427555 0.120308 0.653144
C29   C     C_R   0.541532 0.427741 0.881389 0.653439
C30   C     C_R   0.458448 0.572250 0.118609 0.653441
C31   C     C_R   0.542111 0.426257 0.940988 -0.037243
C32   C     C_R   0.457870 0.573736 0.059010 -0.037245
C33   C     C_R   0.500315 0.500075 0.970026 -0.001863
C34   C     C_R   0.499667 0.499918 0.029972 -0.001862
C35   C     C_R   0.459108 0.574016 0.939257 -0.037607
C36   C     C_R   0.540876 0.425978 0.060741 -0.037605
C37   C     C_R   0.582980 0.352891 0.972085 -0.107023
C38   C     C_R   0.417001 0.647101 0.027913 -0.107023
C39   C     C_R   0.582361 0.352749 0.031358 -0.106764
C40   C     C_R   0.417622 0.647245 0.968641 -0.106764
Cu1   Cu    Cu3+1 0.395330 0.493960 0.496390 1.097457
Cu2   Cu    Cu3+1 0.604670 0.506040 0.503610 1.097461
H1    H     H_    0.615510 0.295351 0.950751 0.205682
H2    H     H_    0.384470 0.704641 0.049248 0.205681
H3    H     H_    0.614514 0.295151 0.054037 0.205962
H4    H     H_    0.385470 0.704843 0.945961 0.205962
H5    H     H_    0.348223 0.418200 0.317715 0.226375
H6    H     H_    0.651736 0.581867 0.682285 0.226359
N1    N     N_R   0.500827 0.499952 0.852201 -0.434367
N2    N     N_R   0.499157 0.500041 0.147797 -0.434368
N3    N     N_1   0.238030 0.484870 0.490960 -0.133616
N4    N     N_1   0.761970 0.515130 0.509040 -0.133612
O1    O     O_R   0.399110 0.356330 0.496510 -0.556288
O2    O     O_R   0.600890 0.643670 0.503490 -0.556298
O3    O     O_R   0.575900 0.366540 0.502610 -0.558315
O4    O     O_R   0.424100 0.633460 0.497390 -0.558313
O5    O     O_R   0.411590 0.494870 0.414830 -0.583967
O6    O     O_R   0.588410 0.505130 0.585170 -0.583959
O7    O     O_R   0.588370 0.505070 0.420930 -0.525289
O8    O     O_R   0.411630 0.494930 0.579070 -0.525298
O9    O     O_2   0.421009 0.642431 0.849387 -0.472019
O10   O     O_2   0.578982 0.357565 0.150611 -0.472022
O11   O     O_2   0.580931 0.357615 0.852728 -0.473377
O12   O     O_2   0.419045 0.642374 0.147270 -0.473378
Cl1   Cl    Cl    0.696954 0.610263 0.203004 -0.410396
Cl2   Cl    Cl    0.303082 0.389643 0.796991 -0.410399
Cl3   Cl    Cl    0.700229 0.619799 0.337035 -0.419580
Cl4   Cl    Cl    0.299828 0.380107 0.662958 -0.419607
Cl5   Cl    Cl    0.302634 0.392570 0.199279 -0.461439
Cl6   Cl    Cl    0.697307 0.607511 0.800723 -0.461450
Cl7   Cl    Cl    0.327497 0.955961 0.499149 -0.471381
Cl8   Cl    Cl    0.672502 0.044039 0.500852 -0.471386
Cl9   Cl    Cl    0.036620 0.605528 0.569496 -0.470221
Cl10  Cl    Cl    0.963380 0.394473 0.430504 -0.470199

loop_
_geom_bond_atom_site_label_1
_geom_bond_atom_site_label_2
_ccdc_geom_bond_type
C30   C32   A    
C21   C26   S    
C29   O11   S    
C30   O12   S    
Cu1   Cu2   S    
C5    Cl3   S    
Cu2   O6    S    
C29   N1    A    
C23   O7    A    
C14   N1    S    
C17   C20   S    
C23   O5    A    
C18   C19   S    
C1    O1    A    
C27   O9    S    
C33   C35   A    
C28   N2    A    
C22   C25   S    
C31   C33   A    
C32   C38   A    
C3    C13   A    
C39   H3    S    
C6    Cl4   S    
C30   N2    A    
C21   C22   D    
C29   C31   A    
C3    Cl1   S    
C17   C18   D    
C15   C20   T    
C4    C6    A    
C2    O2    A    
C5    C7    A    
C6    C8    A    
C27   C35   A    
C21   Cl10  S    
C31   C37   A    
C32   C34   A    
C37   H1    S    
C40   H4    S    
Cu1   O4    S    
C38   H2    S    
Cu2   O3    S    
C24   O8    A    
C33   C34   A    
C1    C16   S    
C2    C15   S    
C9    C11   A    
Cu1   O1    S    
C10   C12   A    
C24   O6    A    
C12   C14   A    
C9    H5    S    
C10   H6    S    
C18   Cl7   S    
C7    C9    A    
C12   Cl6   S    
C4    Cl2   S    
C36   C39   A    
Cu1   O8    S    
C3    C5    A    
Cu2   O7    S    
C11   Cl5   S    
C35   C40   A    
C1    O3    A    
C25   N4    T    
Cu1   O5    S    
C37   C39   A    
C2    O4    A    
C26   N3    T    
Cu2   O2    S    
C38   C40   A    
C11   C13   A    
C16   C19   T    
C7    C23   S    
C8    C24   S    
C34   C36   A    
C4    C14   A    
C13   N2    S    
C28   C36   A    
C17   Cl8   S    
C8    C10   A    
C22   Cl9   S    
Cu1   N3    S    
C27   N1    A    
Cu2   N4    S    
C28   O10   S    
