data_mof_unit_44728.cif
_audit_creation_date              2013-03-05T15:45:24-0500
_audit_creation_method            fapswitch 2.2
_symmetry_space_group_name_H-M    P1
_symmetry_Int_Tables_number       1
_space_group_crystal_system       triclinic
_cell_length_a                    29.27823
_cell_length_b                    17.110236
_cell_length_c                    19.160879
_cell_angle_alpha                 89.956754
_cell_angle_beta                  139.773924
_cell_angle_gamma                 90.039167
_cell_volume                      6198.94348246

loop_
_atom_site_label
_atom_site_type_symbol
_atom_site_description
_atom_site_fract_x
_atom_site_fract_y
_atom_site_fract_z
_atom_type_partial_charge
C1    C     C_R   0.182523 0.407807 0.810241 -0.120781
C2    C     C_R   0.825405 0.583540 0.187050 -0.108270
C3    C     C_R   0.817083 0.407344 0.190084 -0.125030
C4    C     C_R   0.174818 0.583840 0.812937 -0.113504
C5    C     C_R   0.689747 0.899486 0.798121 -0.109140
C6    C     C_R   0.310269 0.101002 0.203269 -0.117812
C7    C     C_R   0.310245 0.899489 0.201902 -0.112644
C8    C     C_R   0.689709 0.100938 0.796783 -0.118174
H1    H     H_    0.233989 0.434659 0.870951 0.098268
H2    H     H_    0.775302 0.554911 0.122358 0.095947
H3    H     H_    0.765604 0.434190 0.129585 0.099029
H4    H     H_    0.225087 0.555515 0.877609 0.095283
H5    H     H_    0.739773 0.928976 0.849796 0.094740
H6    H     H_    0.260246 0.071494 0.151539 0.097546
H7    H     H_    0.260226 0.928982 0.150175 0.094561
H8    H     H_    0.739723 0.071426 0.848558 0.095776
N1    N     N_R   0.127770 0.430660 0.707120 -0.039798
N2    N     N_R   0.872230 0.569340 0.292880 -0.041866
N3    N     N_R   0.872230 0.430660 0.292880 -0.040088
N4    N     N_R   0.127770 0.569340 0.707120 -0.041431
N5    N     N_R   0.627770 0.930660 0.707120 -0.040184
N6    N     N_R   0.372230 0.069340 0.292880 -0.040402
N7    N     N_R   0.372230 0.930660 0.292880 -0.040208
N8    N     N_R   0.627770 0.069340 0.707120 -0.039763
C9    C     C_R   0.833843 0.604897 0.419509 -0.124283
C10   C     C_R   0.143169 0.419824 0.524294 -0.109383
C11   C     C_R   0.166215 0.605366 0.580629 -0.133294
C12   C     C_R   0.856257 0.419622 0.474580 -0.112433
C13   C     C_R   0.334065 0.105340 0.419739 -0.129463
C14   C     C_R   0.641771 0.920265 0.521816 -0.112134
C15   C     C_R   0.666010 0.105857 0.580515 -0.137104
C16   C     C_R   0.357804 0.920247 0.477339 -0.115288
H9    H     H_    0.782730 0.576931 0.360502 0.109199
H10   H     H_    0.186813 0.456060 0.559148 0.122092
H11   H     H_    0.217316 0.577386 0.638538 0.118471
H12   H     H_    0.812814 0.456280 0.439443 0.108281
H13   H     H_    0.282805 0.077691 0.360581 0.106278
H14   H     H_    0.685586 0.956067 0.556425 0.123950
H15   H     H_    0.717294 0.078261 0.638711 0.117553
H16   H     H_    0.314122 0.956423 0.442275 0.108360
N9    N     N_R   0.889730 0.573880 0.452970 -0.045294
N10   N     N_R   0.110270 0.426120 0.547030 -0.046567
N11   N     N_R   0.110270 0.573880 0.547030 -0.046226
N12   N     N_R   0.889730 0.426120 0.452970 -0.045662
N13   N     N_R   0.389730 0.073880 0.452970 -0.044019
N14   N     N_R   0.610270 0.926120 0.547030 -0.046316
N15   N     N_R   0.610270 0.073880 0.547030 -0.045395
N16   N     N_R   0.389730 0.926120 0.452970 -0.045182
C17   C     C_R   0.939554 0.329276 0.564533 -0.106300
C18   C     C_R   0.082501 0.694087 0.491550 -0.132473
C19   C     C_R   0.059729 0.329601 0.434635 -0.107572
C20   C     C_R   0.917467 0.693817 0.508946 -0.129680
C21   C     C_R   0.443465 0.831999 0.570483 -0.110358
C22   C     C_R   0.581143 0.193844 0.488959 -0.114717
C23   C     C_R   0.556108 0.831989 0.429271 -0.111598
C24   C     C_R   0.418822 0.193540 0.511592 -0.112472
H17   H     H_    0.971242 0.278545 0.611612 0.098139
H18   H     H_    0.056888 0.749942 0.468747 0.097109
H19   H     H_    0.027755 0.279046 0.387491 0.099404
H20   H     H_    0.942982 0.749809 0.532050 0.096373
H21   H     H_    0.480240 0.785410 0.624429 0.106246
H22   H     H_    0.553820 0.248964 0.462525 0.093568
H23   H     H_    0.519279 0.785358 0.375680 0.106505
H24   H     H_    0.446050 0.248787 0.538340 0.093080
N17   N     N_R   0.941150 0.372910 0.507880 -0.045845
N18   N     N_R   0.058850 0.627090 0.492120 -0.043652
N19   N     N_R   0.058850 0.372910 0.492120 -0.046027
N20   N     N_R   0.941150 0.627090 0.507880 -0.043702
N21   N     N_R   0.441150 0.872910 0.507880 -0.045579
N22   N     N_R   0.558850 0.127090 0.492120 -0.043043
N23   N     N_R   0.558850 0.872910 0.492120 -0.045689
N24   N     N_R   0.441150 0.127090 0.507880 -0.043085
C25   C     C_R   0.089210 0.675487 0.722510 -0.118679
C26   C     C_R   0.898892 0.311824 0.279138 -0.135277
C27   C     C_R   0.910942 0.675323 0.277450 -0.118443
C28   C     C_R   0.100610 0.312355 0.721271 -0.132116
C29   C     C_R   0.608156 0.196770 0.708609 -0.116748
C30   C     C_R   0.391292 0.803295 0.290472 -0.136869
C31   C     C_R   0.391837 0.196832 0.291485 -0.117337
C32   C     C_R   0.608660 0.803295 0.709612 -0.134135
H25   H     H_    0.056991 0.724169 0.700833 0.097659
H26   H     H_    0.923271 0.255389 0.301291 0.098185
H27   H     H_    0.943191 0.723989 0.299076 0.098746
H28   H     H_    0.076154 0.256016 0.699466 0.096597
H29   H     H_    0.582395 0.253073 0.679378 0.090868
H30   H     H_    0.416173 0.746518 0.320354 0.098948
H31   H     H_    0.417592 0.253151 0.320878 0.091841
H32   H     H_    0.583736 0.746531 0.679777 0.098010
N25   N     N_R   0.076340 0.631640 0.652210 -0.044083
N26   N     N_R   0.923660 0.368360 0.347790 -0.042182
N27   N     N_R   0.923660 0.631640 0.347790 -0.044283
N28   N     N_R   0.076340 0.368360 0.652210 -0.042026
N29   N     N_R   0.576340 0.131640 0.652210 -0.041943
N30   N     N_R   0.423660 0.868360 0.347790 -0.043424
N31   N     N_R   0.423660 0.131640 0.347790 -0.042430
N32   N     N_R   0.576340 0.868360 0.652210 -0.043314
C33   C     C_R   0.163275 0.339157 0.822086 0.055515
C34   C     C_R   0.850770 0.645625 0.175929 0.044640
C35   C     C_R   0.835959 0.338286 0.178371 0.055723
C36   C     C_R   0.149506 0.645944 0.824044 0.045633
C37   C     C_R   0.679441 0.820586 0.801563 0.052030
C38   C     C_R   0.320917 0.179874 0.200817 0.046953
C39   C     C_R   0.320532 0.820599 0.198508 0.051828
C40   C     C_R   0.679051 0.179743 0.799354 0.045941
C41   C     C_R   0.849271 0.681488 0.453424 0.100108
C42   C     C_R   0.110409 0.360675 0.449297 0.085430
C43   C     C_R   0.150786 0.682248 0.547521 0.099154
C44   C     C_R   0.888364 0.360201 0.548961 0.085749
C45   C     C_R   0.350220 0.181825 0.454720 0.097530
C46   C     C_R   0.607222 0.862291 0.444330 0.087687
C47   C     C_R   0.649840 0.182646 0.546387 0.096559
C48   C     C_R   0.391925 0.862295 0.554682 0.088063
Ni1   Ni    Ni4+2 0.119340 0.500000 0.625930 0.234596
Ni2   Ni    Ni4+2 0.880660 0.500000 0.374070 0.234305
Ni3   Ni    Ni4+2 0.619340 1.000000 0.625930 0.224359
Ni4   Ni    Ni4+2 0.380660 0.000000 0.374070 0.223213
Ni5   Ni    Ni4+2 0.000000 0.373980 0.500000 0.234380
Ni6   Ni    Ni4+2 0.000000 0.626020 0.500000 0.220442
Ni7   Ni    Ni4+2 0.500000 0.873980 0.500000 0.225456
Ni8   Ni    Ni4+2 0.500000 0.126020 0.500000 0.214889
C49   C     C_R   0.796756 0.203966 0.984885 -0.135429
C50   C     C_R   0.199111 0.791932 0.017228 -0.149002
C51   C     C_R   0.202720 0.204815 0.015960 -0.121415
C52   C     C_R   0.800996 0.791791 0.982630 -0.146123
C53   C     C_R   0.244542 0.645520 0.023874 -0.150575
C54   C     C_R   0.744871 0.343458 0.980084 -0.154409
C55   C     C_R   0.755671 0.645243 0.976080 -0.149084
C56   C     C_R   0.254600 0.344264 0.020443 -0.153338
H33   H     H_    0.817383 0.149262 0.989500 0.129076
H34   H     H_    0.180595 0.848983 0.011417 0.123153
H35   H     H_    0.182078 0.150144 0.011482 0.130583
H36   H     H_    0.819486 0.848884 0.988408 0.123998
H37   H     H_    0.263400 0.589075 0.028671 0.114714
H38   H     H_    0.724411 0.398117 0.976029 0.114212
H39   H     H_    0.736827 0.588763 0.971312 0.113713
H40   H     H_    0.275136 0.398851 0.024414 0.114929
C57   C     C_R   0.832222 0.239698 0.080119 -0.152892
C58   C     C_R   0.157050 0.748880 0.923599 -0.146677
C59   C     C_R   0.166826 0.240943 0.920637 -0.150291
C60   C     C_R   0.843205 0.748583 0.076232 -0.146949
C61   C     C_R   0.286483 0.688433 0.117811 -0.143667
C62   C     C_R   0.709636 0.307815 0.884653 -0.147706
C63   C     C_R   0.713582 0.688307 0.882172 -0.142040
C64   C     C_R   0.290219 0.308284 0.115940 -0.145750
H41   H     H_    0.880331 0.212339 0.154200 0.123545
H42   H     H_    0.107371 0.774440 0.849922 0.121151
H43   H     H_    0.118404 0.213930 0.846602 0.121792
H44   H     H_    0.892951 0.774078 0.149865 0.122606
H45   H     H_    0.336596 0.663527 0.191613 0.119301
H46   H     H_    0.661922 0.335239 0.809972 0.116103
H47   H     H_    0.663402 0.663461 0.808436 0.117888
H48   H     H_    0.338227 0.335444 0.190516 0.117503
C65   C     C_R   0.802940 0.305924 0.078146 0.131916
C66   C     C_R   0.182819 0.678956 0.924909 0.129985
C67   C     C_R   0.196178 0.307014 0.922391 0.128895
C68   C     C_R   0.817483 0.678603 0.075014 0.129410
C69   C     C_R   0.266942 0.765119 0.112748 0.126836
C70   C     C_R   0.731275 0.233487 0.887614 0.123070
C71   C     C_R   0.733082 0.765051 0.887226 0.127502
C72   C     C_R   0.268571 0.233921 0.113003 0.121665
C73   C     C_R   0.128844 0.334723 0.400195 0.060967
C74   C     C_R   0.799484 0.739159 0.423965 0.046143
C75   C     C_R   0.869432 0.334886 0.597707 0.050167
C76   C     C_R   0.200212 0.740725 0.577160 0.055871
C77   C     C_R   0.625473 0.835668 0.395100 0.058602
C78   C     C_R   0.300787 0.240060 0.424996 0.043606
C79   C     C_R   0.373344 0.836709 0.603976 0.049071
C80   C     C_R   0.698921 0.241655 0.576384 0.054208
C81   C     C_R   0.780495 0.863221 0.459949 0.356013
C82   C     C_R   0.124929 0.234626 0.306303 0.359579
C83   C     C_R   0.219044 0.865207 0.541287 0.350578
C84   C     C_R   0.874096 0.235906 0.693496 0.362327
C85   C     C_R   0.283163 0.363409 0.463871 0.355999
C86   C     C_R   0.623991 0.732536 0.306747 0.358426
C87   C     C_R   0.716634 0.365432 0.537994 0.350179
C88   C     C_R   0.375796 0.734987 0.694869 0.358763
C89   C     C_R   0.821932 0.814933 0.466295 -0.255900
C90   C     C_R   0.096651 0.268944 0.333165 -0.256408
C91   C     C_R   0.176401 0.815394 0.531043 -0.274126
C92   C     C_R   0.903288 0.271260 0.668605 -0.240454
C93   C     C_R   0.324097 0.315268 0.469149 -0.256688
C94   C     C_R   0.594709 0.768230 0.331319 -0.254975
C95   C     C_R   0.674507 0.315905 0.529066 -0.276030
C96   C     C_R   0.406011 0.771621 0.672265 -0.238090
C97   C     C_R   0.730963 0.715525 0.362141 -0.146615
C98   C     C_R   0.183213 0.372724 0.427509 -0.181719
C99   C     C_R   0.270267 0.719437 0.644516 -0.173182
C100  C     C_R   0.812923 0.371170 0.566075 -0.168504
C101  C     C_R   0.231680 0.217434 0.361229 -0.150426
C102  C     C_R   0.679697 0.873404 0.421755 -0.179781
C103  C     C_R   0.769293 0.221125 0.644971 -0.176345
C104  C     C_R   0.316883 0.872759 0.572766 -0.168688
C105  C     C_R   0.688626 0.761794 0.355443 -0.016788
C106  C     C_R   0.217858 0.335060 0.413430 -0.033717
C107  C     C_R   0.311104 0.763865 0.646328 -0.034850
C108  C     C_R   0.781220 0.336172 0.586674 -0.013060
C109  C     C_R   0.189926 0.263436 0.355909 -0.014628
C110  C     C_R   0.715410 0.834576 0.410128 -0.033378
C111  C     C_R   0.809451 0.264857 0.645017 -0.034149
C112  C     C_R   0.283811 0.836167 0.590351 -0.014386
H49   H     H_    0.202734 0.428130 0.468651 0.168217
H50   H     H_    0.713043 0.657628 0.328391 0.165786
H51   H     H_    0.788486 0.422125 0.515193 0.165375
H52   H     H_    0.290765 0.665023 0.687975 0.170478
H53   H     H_    0.698223 0.929690 0.460643 0.169064
H54   H     H_    0.212936 0.160194 0.325337 0.165122
H55   H     H_    0.293573 0.924942 0.524278 0.165634
H56   H     H_    0.790358 0.167446 0.690107 0.169230
H57   H     H_    0.050533 0.243012 0.303389 0.159290
H58   H     H_    0.874030 0.834923 0.512057 0.155471
H59   H     H_    0.949610 0.245233 0.699047 0.152070
H60   H     H_    0.123984 0.834599 0.484494 0.163412
H61   H     H_    0.549200 0.741805 0.302947 0.162946
H62   H     H_    0.376529 0.334688 0.515843 0.155074
H63   H     H_    0.451945 0.745298 0.701784 0.156504
H64   H     H_    0.621981 0.334807 0.482301 0.163436
N33   N     N_R   0.312772 0.436211 0.521236 0.233381
O1    O     O_R   0.330494 0.444950 0.607056 -0.348449
O2    O     O_R   0.337347 0.485150 0.503917 -0.376611
N34   N     N_R   0.590149 0.664532 0.238361 0.237003
O3    O     O_R   0.584032 0.657100 0.163898 -0.361312
O4    O     O_R   0.556108 0.616274 0.239038 -0.338886
N35   N     N_R   0.691223 0.442464 0.491435 0.233124
O5    O     O_R   0.734178 0.501879 0.543270 -0.393802
O6    O     O_R   0.623714 0.455334 0.406084 -0.356135
N36   N     N_R   0.408013 0.664811 0.758296 0.235056
O7    O     O_R   0.375600 0.598238 0.713382 -0.330830
O8    O     O_R   0.475108 0.664833 0.851609 -0.345860
N37   N     N_R   0.809194 0.936954 0.515014 0.232894
O9    O     O_R   0.825747 0.947843 0.599503 -0.355378
O10   O     O_R   0.833992 0.984871 0.497209 -0.373816
N38   N     N_R   0.089667 0.168439 0.234550 0.236076
O11   O     O_R   0.084249 0.162740 0.160701 -0.367946
O12   O     O_R   0.053828 0.120367 0.231773 -0.349416
N39   N     N_R   0.194024 0.942565 0.495905 0.232591
O13   O     O_R   0.236822 0.001971 0.549900 -0.389882
O14   O     O_R   0.126704 0.955477 0.409146 -0.361354
N40   N     N_R   0.907322 0.166883 0.759346 0.234050
O15   O     O_R   0.875476 0.099737 0.717058 -0.335587
O16   O     O_R   0.974642 0.168095 0.851890 -0.356407

loop_
_geom_bond_atom_site_label_1
_geom_bond_atom_site_label_2
_geom_bond_distance
_ccdc_geom_bond_type
C89   H58   1.081624 S    
C25   C36   1.382817 A    
C40   C70   1.447551 S    
C2    N2    1.343552 A    
N39   O14   1.301510 A    
N6    N31   1.446008 A    
C24   C45   1.385455 A    
N32   Ni7   1.885912 S    
N35   O5    1.301538 A    
N16   N21   1.335690 A    
N5    Ni3   1.816573 S    
C76   C99   1.401219 A    
C21   N21   1.344643 A    
C36   C66   1.458758 S    
C10   C42   1.380357 A    
N34   O4    1.301507 A    
N1    Ni1   1.816573 S    
C83   N39   1.439294 S    
C53   C66   1.398516 A    
N15   Ni3   1.827166 S    
C79   C104  1.400724 A    
N1    N28   1.446010 A    
C59   H43   1.079353 S    
C73   C98   1.399147 A    
C80   C103  1.400416 A    
C17   N17   1.346907 A    
N14   Ni3   1.828495 S    
C82   C90   1.395345 A    
C77   C94   1.398604 A    
C57   H41   1.079275 S    
C103  C111  1.392664 A    
N37   O10   1.301024 A    
C32   N32   1.324706 A    
C56   H40   1.081251 S    
N4    Ni1   1.817885 S    
C46   C77   1.467482 S    
C106  C109  1.417637 A    
C51   C72   1.395890 A    
C53   H37   1.081274 S    
C105  C110  1.417604 A    
C6    N6    1.332726 A    
C52   C71   1.397970 A    
C51   C59   1.375023 A    
C17   H17   1.072328 S    
C52   H36   1.080532 S    
C84   C111  1.416492 A    
C42   C73   1.466283 S    
C49   C57   1.374495 A    
C74   C89   1.398982 A    
C20   H20   1.080058 S    
C56   C67   1.398169 A    
N20   Ni6   1.840991 S    
N7    Ni4   1.817884 S    
C12   C44   1.379083 A    
C21   H21   1.078735 S    
C10   H10   1.076894 S    
C102  H53   1.077095 S    
N22   Ni8   1.840963 S    
C86   C94   1.395410 A    
C24   N24   1.340611 A    
C23   H23   1.078434 S    
C94   H61   1.081101 S    
C12   N12   1.328052 A    
N39   O13   1.301510 A    
C24   H24   1.080546 S    
C31   C38   1.380354 A    
C3    N3    1.337821 A    
C93   H62   1.081640 S    
N29   Ni8   1.885981 S    
C59   C67   1.404383 A    
C64   C72   1.402969 A    
C85   N33   1.434196 S    
N9    Ni2   1.828494 S    
C5    H5    1.079565 S    
C20   N20   1.344423 A    
C27   N27   1.321474 A    
N16   Ni4   1.827168 S    
C99   C107  1.394270 A    
C84   C92   1.394700 A    
C101  H54   1.075777 S    
C33   C67   1.447840 S    
C29   H29   1.079698 S    
C87   N35   1.439674 S    
C8    H8    1.079536 S    
C15   N15   1.332183 A    
C31   H31   1.079686 S    
N13   N24   1.335370 A    
C16   N16   1.329723 A    
C60   H44   1.079067 S    
N12   N17   1.335690 A    
C13   C45   1.379136 A    
C78   C93   1.398634 A    
C26   H26   1.076918 S    
C108  C111  1.417812 A    
N19   Ni5   1.840989 S    
C54   H38   1.081268 S    
C25   H25   1.076308 S    
N34   O3    1.301519 A    
C52   C60   1.380288 A    
N9    N20   1.335370 A    
N40   O16   1.301034 A    
C54   C62   1.378430 A    
C19   H19   1.072087 S    
C44   C75   1.468633 S    
C34   C68   1.458961 S    
C28   H28   1.076742 S    
C53   C61   1.382903 A    
C61   H45   1.079700 S    
C18   H18   1.080101 S    
N26   Ni5   1.885984 S    
C88   C107  1.416774 A    
C1    H1    1.076150 S    
C50   C58   1.380145 A    
C9    C41   1.376927 A    
C38   C72   1.448100 S    
C62   H46   1.080163 S    
C39   C69   1.458234 S    
C96   H63   1.081807 S    
C55   C63   1.382940 A    
C7    H7    1.079572 S    
C22   H22   1.080532 S    
N3    Ni2   1.817884 S    
C11   H11   1.078903 S    
N33   O1    1.301147 A    
C48   C79   1.470839 S    
C99   H52   1.075586 S    
N21   Ni7   1.840966 S    
C27   C34   1.383140 A    
C98   H49   1.076674 S    
C13   N13   1.329439 A    
C75   C100  1.399886 A    
C97   H50   1.075632 S    
C92   H59   1.081830 S    
C82   N38   1.439399 S    
C54   C65   1.398234 A    
N15   N22   1.335689 A    
C31   N31   1.319445 A    
N37   O9    1.301020 A    
C3    C35   1.393782 A    
C6    H6    1.079551 S    
C8    C40   1.393569 A    
N30   Ni7   1.885984 S    
N10   Ni1   1.828495 S    
C79   C96   1.398363 A    
C22   N22   1.339220 A    
C11   C43   1.378009 A    
C17   C44   1.390401 A    
C91   H60   1.081113 S    
C80   C95   1.398886 A    
C1    C33   1.393846 A    
N24   Ni8   1.840991 S    
N38   O12   1.301546 A    
C77   C102  1.399656 A    
C100  C108  1.390789 A    
N27   Ni6   1.885915 S    
C57   C65   1.404356 A    
C19   N19   1.344460 A    
C43   C76   1.470281 S    
C73   C90   1.398900 A    
C18   N18   1.343190 A    
C12   H12   1.075790 S    
N14   N23   1.335368 A    
C76   C91   1.399261 A    
C60   C68   1.404774 A    
N28   Ni5   1.885912 S    
C21   C48   1.393083 A    
C61   C69   1.405169 A    
C28   N28   1.318099 A    
C20   C41   1.385323 A    
N36   O8    1.300943 A    
C49   C70   1.395711 A    
C4    C36   1.402116 A    
C23   C46   1.389760 A    
C18   C43   1.383607 A    
C90   H57   1.081093 S    
C104  H55   1.075873 S    
C83   C112  1.415965 A    
C4    H4    1.073177 S    
N2    N27   1.446008 A    
C86   N34   1.439018 S    
C9    N9    1.329983 A    
C2    H2    1.073143 S    
C87   C108  1.415518 A    
C27   H27   1.076377 S    
C16   H16   1.076365 S    
N2    Ni2   1.816570 S    
C102  C110  1.393287 A    
C87   C95   1.394705 A    
C107  C112  1.417729 A    
C101  C109  1.391145 A    
C95   H64   1.081008 S    
C88   C96   1.395348 A    
N40   O15   1.300822 A    
N17   Ni5   1.840966 S    
C63   H47   1.079715 S    
C16   C48   1.384139 A    
C51   H35   1.080653 S    
C30   C39   1.382127 A    
C14   C46   1.385298 A    
C98   C106  1.391375 A    
C49   H33   1.080618 S    
C55   C68   1.398608 A    
C74   C97   1.400786 A    
N35   O6    1.301486 A    
C63   C71   1.405100 A    
C26   C35   1.376708 A    
N5    N32   1.446010 A    
N23   Ni7   1.840989 S    
N31   Ni8   1.885915 S    
N33   O2    1.300924 A    
C88   N36   1.434339 S    
N4    N25   1.446356 A    
C100  H51   1.075615 S    
C1    N1    1.337822 A    
C56   C64   1.378428 A    
C5    C37   1.395558 A    
C14   N14   1.332184 A    
C32   C37   1.382337 A    
C58   H42   1.079019 S    
C78   C101  1.400441 A    
C83   C91   1.395820 A    
C28   C33   1.377041 A    
C25   N25   1.321126 A    
C32   H32   1.079587 S    
N3    N26   1.446355 A    
N8    N29   1.446356 A    
N11   Ni1   1.827166 S    
C29   N29   1.319339 A    
N13   Ni4   1.828494 S    
C30   H30   1.079569 S    
N10   N19   1.335368 A    
C30   N30   1.324673 A    
C19   C42   1.387782 A    
C7    N7    1.336428 A    
C26   N26   1.317695 A    
C35   C65   1.447453 S    
C7    C39   1.395569 A    
N6    Ni4   1.816570 S    
N38   O11   1.301682 A    
C8    N8    1.332336 A    
C50   C69   1.397832 A    
C81   N37   1.434454 S    
C22   C47   1.383318 A    
C62   C70   1.402888 A    
C81   C89   1.394704 A    
C103  H56   1.075639 S    
C104  C112  1.392907 A    
C10   N10   1.330472 A    
C85   C93   1.393277 A    
C55   H39   1.081234 S    
C85   C106  1.415197 A    
C3    H3    1.076403 S    
C45   C78   1.467776 S    
N12   Ni2   1.827168 S    
C4    N4    1.343681 A    
N7    N30   1.446355 A    
C11   N11   1.332933 A    
C37   C71   1.458404 S    
C5    N5    1.336416 A    
N25   Ni6   1.885981 S    
C2    C34   1.402001 A    
N8    Ni3   1.817885 S    
C6    C38   1.393658 A    
N36   O7    1.300618 A    
N18   Ni6   1.840963 S    
C13   H13   1.078501 S    
C75   C92   1.398634 A    
C15   H15   1.079064 S    
C15   C47   1.380166 A    
C41   C74   1.470331 S    
C29   C40   1.380412 A    
C97   C105  1.392119 A    
C47   C80   1.467120 S    
C14   H14   1.077578 S    
C58   C66   1.404827 A    
C50   H34   1.080542 S    
C82   C109  1.416072 A    
C23   N23   1.341822 A    
C86   C105  1.416160 A    
C64   H48   1.080105 S    
N11   N18   1.335689 A    
C9    H9    1.078409 S    
C81   C110  1.415770 A    
C84   N40   1.434621 S    
