data_mof_unit_33959.cif
_audit_creation_date              2012-12-10T18:29:35-0500
_audit_creation_method            fapswitch 2.2
_symmetry_space_group_name_H-M    P1
_symmetry_Int_Tables_number       1
_space_group_crystal_system       triclinic
_cell_length_a                    11.560559
_cell_length_b                    15.029143
_cell_length_c                    15.599821
_cell_angle_alpha                 81.380393
_cell_angle_beta                  90.038319
_cell_angle_gamma                 105.042142
_cell_volume                      2585.88482032

loop_
_atom_site_label
_atom_site_type_symbol
_atom_type_description
_atom_site_fract_x
_atom_site_fract_y
_atom_site_fract_z
_atom_type_partial_charge
C1    C     C_R   0.482639 0.440598 0.662152 0.849052
C2    C     C_R   0.514256 0.559068 0.338027 0.884613
C3    C     C_R   0.541095 0.368620 0.928468 0.139131
C4    C     C_R   0.519489 0.651353 0.065561 0.141918
C5    C     C_R   0.516970 0.520829 0.952496 0.072941
C6    C     C_R   0.546508 0.500521 0.040338 0.075103
C7    C     C_R   0.581578 0.417582 0.067844 -0.193120
C8    C     C_R   0.498184 0.609590 0.922466 -0.230935
C9    C     C_R   0.578293 0.352851 0.012819 -0.184013
C10   C     C_R   0.503565 0.674548 0.977595 -0.193623
C11   C     C_R   0.705516 0.849987 0.615443 -0.216289
C12   C     C_R   0.321727 0.158655 0.361246 -0.218441
C13   C     C_R   0.663780 0.757144 0.601202 0.595429
C14   C     C_R   0.350547 0.247528 0.386485 0.591832
C15   C     C_R   0.503620 0.791982 0.519030 -0.150180
C16   C     C_R   0.489185 0.205727 0.487063 -0.114178
C17   C     C_R   0.541356 0.886748 0.529202 -0.010061
C18   C     C_R   0.463519 0.114913 0.465861 -0.007281
C19   C     C_R   0.643283 0.915252 0.579488 0.022051
C20   C     C_R   0.374738 0.090525 0.404301 0.015702
C21   C     C_R   0.484053 0.954243 0.488379 0.118658
C22   C     C_R   0.523786 0.048268 0.503561 0.126191
C23   C     C_R   0.718083 0.501357 0.500313 0.881401
C24   C     C_R   0.281909 0.498615 0.499770 0.912295
C25   C     C_R   0.626212 0.074038 0.552364 -0.259093
C26   C     C_R   0.392286 0.931838 0.429540 -0.248801
C27   C     C_R   0.684824 0.009318 0.588772 -0.120213
C28   C     C_R   0.342483 0.999102 0.386190 -0.120961
C29   C     C_1   0.839476 0.503423 0.500881 -0.146619
C30   C     C_1   0.160513 0.496511 0.499304 -0.178845
C31   C     C_1   0.941172 0.501717 0.500520 0.023219
C32   C     C_1   0.058800 0.498152 0.499688 0.012170
C33   C     C_R   0.480710 0.403411 0.755225 -0.134133
C34   C     C_R   0.521048 0.596815 0.245067 -0.144266
C35   C     C_R   0.535941 0.301316 0.874537 -0.224494
C36   C     C_R   0.509544 0.713354 0.121924 -0.229211
C37   C     C_R   0.505011 0.317114 0.787988 -0.019235
C38   C     C_R   0.506708 0.686292 0.211726 -0.011394
C39   C     C_R   0.472489 0.464807 0.812254 -0.273043
C40   C     C_R   0.540257 0.538525 0.187879 -0.236313
C41   C     C_R   0.509354 0.452225 0.897588 0.094326
C42   C     C_R   0.538701 0.563548 0.098024 0.097124
H1    H     H_    0.605278 0.289960 0.036557 0.158668
H2    H     H_    0.488745 0.741659 0.951855 0.160721
H3    H     H_    0.667432 0.145172 0.560312 0.149242
H4    H     H_    0.359646 0.863461 0.412034 0.175428
H5    H     H_    0.548935 0.470666 0.215389 0.175463
H6    H     H_    0.440006 0.523971 0.786887 0.159206
H7    H     H_    0.556765 0.236241 0.899990 0.174721
H8    H     H_    0.495273 0.780659 0.095966 0.167993
H9    H     H_    0.615587 0.401639 0.131028 0.147881
H10   H     H_    0.479838 0.632255 0.856497 0.140199
H11   H     H_    0.765019 0.035041 0.622919 0.188272
H12   H     H_    0.277107 0.977493 0.338832 0.194282
H13   H     H_    0.550033 0.228411 0.536438 0.166430
H14   H     H_    0.426750 0.763748 0.483491 0.196079
N1    N     N_R   0.566020 0.731700 0.552730 -0.146022
N2    N     N_R   0.433980 0.268300 0.447270 -0.140670
O1    O     O_R   0.466720 0.383110 0.605620 -0.583716
O2    O     O_R   0.533280 0.616890 0.394380 -0.594010
O3    O     O_R   0.509090 0.531900 0.639510 -0.607425
O4    O     O_R   0.490910 0.468100 0.360490 -0.572465
O5    O     O_R   0.644370 0.425610 0.483050 -0.632204
O6    O     O_R   0.355630 0.574390 0.516950 -0.599291
O7    O     O_R   0.686740 0.574390 0.516930 -0.543105
O8    O     O_R   0.313260 0.425610 0.483070 -0.592939
Zn1   Zn    Zn3+2 0.471710 0.400660 0.477370 1.007922
Zn2   Zn    Zn3+2 0.528290 0.599340 0.522630 1.016571
C43   C     C_2   0.479322 0.750969 0.266505 0.923912
O9    O     O_2   0.397588 0.723489 0.321608 -0.648285
O10   O     O_R   0.543087 0.844948 0.251389 -0.795019
H15   H     H_    0.515812 0.883003 0.291793 0.340377
C44   C     C_2   0.497846 0.241049 0.736352 0.914632
O11   O     O_2   0.409920 0.215308 0.693822 -0.602923
O12   O     O_R   0.587843 0.193989 0.741726 -0.811568
H16   H     H_    0.570070 0.140184 0.707395 0.345210
O13   O     O_3   0.298803 0.316182 0.347965 -0.570284
C45   C     C_3   0.177927 0.295536 0.378114 -0.209595
H17   H     H_    0.148194 0.360658 0.366394 0.185391
H18   H     H_    0.165302 0.268800 0.449049 0.150753
H19   H     H_    0.118413 0.245498 0.341347 0.167795
O14   O     O_3   0.726123 0.692082 0.630332 -0.560879
C46   C     C_3   0.703283 0.662712 0.720416 -0.213745
H20   H     H_    0.717136 0.591920 0.737104 0.190281
H21   H     H_    0.609901 0.658492 0.741178 0.121229
H22   H     H_    0.767203 0.709201 0.757877 0.172047
C47   C     C_2   0.816304 0.877650 0.664033 0.906886
O15   O     O_2   0.908357 0.860571 0.641145 -0.567874
O16   O     O_R   0.814202 0.920541 0.737389 -0.814028
H23   H     H_    0.894765 0.935142 0.765341 0.353467
C48   C     C_2   0.240632 0.140290 0.288456 0.907186
O17   O     O_2   0.265101 0.190056 0.217878 -0.584584
O18   O     O_R   0.134183 0.068974 0.301574 -0.809160
H24   H     H_    0.085974 0.064408 0.247350 0.353131

loop_
_geom_bond_atom_site_label_1
_geom_bond_atom_site_label_2
_ccdc_geom_bond_type
C40   H5    S    
C47   O15   D    
C4    C36   A    
O18   H24   S    
C25   H3    S    
C15   N1    A    
C44   O11   D    
C12   C48   S    
C45   H19   S    
C21   C26   A    
C1    C33   S    
C39   C41   A    
O13   C45   S    
C11   C19   A    
C33   C39   A    
O4    Zn1   S    
C34   C40   A    
C23   C29   S    
C35   C37   A    
C1    O1    A    
C5    C6    A    
C45   H18   S    
C13   N1    A    
C7    C9    A    
C14   O13   S    
C43   O10   S    
C5    C41   A    
O1    Zn1   S    
C31   C32   S    
C11   C47   S    
C22   C25   A    
C35   H7    S    
C19   C27   A    
C8    H10   S    
C18   C20   A    
C24   O8    A    
C2    C34   S    
C40   C42   A    
O8    Zn1   S    
C38   C43   S    
C24   O6    A    
C34   C38   A    
C21   C22   A    
C44   O12   S    
C24   C30   S    
C14   N2    A    
O5    Zn1   S    
C9    H1    S    
C10   H2    S    
C48   O17   D    
C28   H12   S    
C45   H17   S    
C20   C28   A    
C13   O14   S    
C33   C37   A    
O12   H16   S    
C3    C9    A    
C48   O18   S    
C46   H20   S    
C3    C35   A    
O7    Zn2   S    
C12   C20   A    
C16   N2    A    
C16   C18   A    
C46   H21   S    
C12   C14   A    
C47   O16   S    
N1    Zn2   S    
C4    C10   A    
O6    Zn2   S    
C36   H8    S    
C15   C17   A    
C37   C44   S    
C3    C41   A    
C18   C22   A    
C1    O3    A    
C5    C8    A    
C27   H11   S    
C6    C7    A    
C25   C27   A    
C26   C28   A    
C15   H14   S    
C23   O7    A    
C36   C38   A    
C16   H13   S    
C7    H9    S    
O10   H15   S    
C29   C31   T    
C30   C32   T    
C11   C13   A    
O3    Zn2   S    
C4    C42   A    
C23   O5    A    
C17   C19   A    
C2    O2    A    
C43   O9    D    
C17   C21   A    
C26   H4    S    
N2    Zn1   S    
C46   H22   S    
O2    Zn2   S    
C8    C10   A    
O14   C46   S    
C6    C42   A    
O16   H23   S    
C2    O4    A    
C39   H6    S    
