data_mof_unit_40441.cif
_audit_creation_date              2013-03-05T15:49:28-0500
_audit_creation_method            fapswitch 2.2
_symmetry_space_group_name_H-M    P1
_symmetry_Int_Tables_number       1
_space_group_crystal_system       triclinic
_cell_length_a                    18.420073
_cell_length_b                    18.263135
_cell_length_c                    34.438082
_cell_angle_alpha                 90.367605
_cell_angle_beta                  90.295879
_cell_angle_gamma                 89.973281
_cell_volume                      11584.8619233

loop_
_atom_site_label
_atom_site_type_symbol
_atom_site_description
_atom_site_fract_x
_atom_site_fract_y
_atom_site_fract_z
_atom_type_partial_charge
Zn1   Zn    Zn3+2 0.000000 0.586740 0.782740 0.946478
Zn2   Zn    Zn3+2 0.000000 0.413260 0.217260 0.920322
Zn3   Zn    Zn3+2 0.413260 0.000000 0.782740 0.943780
Zn4   Zn    Zn3+2 0.586740 0.000000 0.217260 0.946836
Zn5   Zn    Zn3+2 0.000000 0.413260 0.782740 0.930516
Zn6   Zn    Zn3+2 0.000000 0.586740 0.217260 0.933575
Zn7   Zn    Zn3+2 0.586740 0.000000 0.782740 0.937426
Zn8   Zn    Zn3+2 0.413260 0.000000 0.217260 0.925252
Zn9   Zn    Zn3+2 0.500000 0.086740 0.282740 0.906874
Zn10  Zn    Zn3+2 0.500000 0.913260 0.717260 0.924137
Zn11  Zn    Zn3+2 0.913260 0.500000 0.282740 0.943184
Zn12  Zn    Zn3+2 0.086740 0.500000 0.717260 0.928736
Zn13  Zn    Zn3+2 0.500000 0.913260 0.282740 0.950827
Zn14  Zn    Zn3+2 0.500000 0.086740 0.717260 0.944570
Zn15  Zn    Zn3+2 0.086740 0.500000 0.282740 0.944292
Zn16  Zn    Zn3+2 0.913260 0.500000 0.717260 0.924147
C1    C     C_R   0.620738 0.056898 0.520763 0.181370
C2    C     C_R   0.374040 0.954688 0.479512 0.188143
C3    C     C_R   0.943351 0.621908 0.520411 0.180561
C4    C     C_R   0.045330 0.373185 0.479718 0.186394
C5    C     C_R   0.379012 0.942377 0.519666 0.181584
C6    C     C_R   0.625456 0.045189 0.480509 0.187661
C7    C     C_R   0.056730 0.377946 0.520035 0.181060
C8    C     C_R   0.955578 0.626771 0.480286 0.188935
C9    C     C_R   0.133407 0.492904 0.020637 0.187672
C10   C     C_R   0.866282 0.503447 0.979322 0.186146
C11   C     C_R   0.450110 0.126017 0.020362 0.197750
C12   C     C_R   0.540803 0.872741 0.980236 0.187699
C13   C     C_R   0.866751 0.508980 0.020153 0.187195
C14   C     C_R   0.133384 0.498390 0.979847 0.191790
C15   C     C_R   0.553636 0.877498 0.020353 0.180182
C16   C     C_R   0.464721 0.130235 0.980466 0.180375
O1    O     O_3   0.000000 0.500000 0.750000 -0.478211
O2    O     O_3   0.000000 0.500000 0.250000 -0.479340
O3    O     O_3   0.500000 1.000000 0.750000 -0.480830
O4    O     O_3   0.500000 0.000000 0.250000 -0.473593
O5    O     O_R   0.060740 0.500000 0.662560 -0.647563
O6    O     O_R   0.939260 0.500000 0.337440 -0.646245
O7    O     O_R   0.500000 0.060740 0.662560 -0.648808
O8    O     O_R   0.500000 0.939260 0.337440 -0.640226
O9    O     O_R   0.939260 0.500000 0.662560 -0.646888
O10   O     O_R   0.060740 0.500000 0.337440 -0.643560
O11   O     O_R   0.500000 0.939260 0.662560 -0.648074
O12   O     O_R   0.500000 0.060740 0.337440 -0.661860
O13   O     O_R   0.560740 0.000000 0.162560 -0.656881
O14   O     O_R   0.439260 0.000000 0.837440 -0.623681
O15   O     O_R   0.000000 0.560740 0.162560 -0.645351
O16   O     O_R   0.000000 0.439260 0.837440 -0.645301
O17   O     O_R   0.439260 0.000000 0.162560 -0.648554
O18   O     O_R   0.560740 0.000000 0.837440 -0.654461
O19   O     O_R   0.000000 0.439260 0.162560 -0.649883
O20   O     O_R   0.000000 0.560740 0.837440 -0.637951
O21   O     O_R   0.853850 0.585450 0.727070 -0.648584
O22   O     O_R   0.146150 0.414550 0.272930 -0.638745
O23   O     O_R   0.414550 0.853850 0.727070 -0.650867
O24   O     O_R   0.585450 0.146150 0.272930 -0.671441
O25   O     O_R   0.146150 0.414550 0.727070 -0.648444
O26   O     O_R   0.853850 0.585450 0.272930 -0.636373
O27   O     O_R   0.585450 0.146150 0.727070 -0.625576
O28   O     O_R   0.414550 0.853850 0.272930 -0.641568
O29   O     O_R   0.853850 0.414550 0.272930 -0.635815
O30   O     O_R   0.146150 0.585450 0.727070 -0.660417
O31   O     O_R   0.414550 0.146150 0.272930 -0.673406
O32   O     O_R   0.585450 0.853850 0.727070 -0.653630
O33   O     O_R   0.146150 0.585450 0.272930 -0.628711
O34   O     O_R   0.853850 0.414550 0.727070 -0.655059
O35   O     O_R   0.585450 0.853850 0.272930 -0.636343
O36   O     O_R   0.414550 0.146150 0.727070 -0.645980
O37   O     O_R   0.353850 0.085450 0.227070 -0.634694
O38   O     O_R   0.646150 0.914550 0.772930 -0.655935
O39   O     O_R   0.914550 0.353850 0.227070 -0.648487
O40   O     O_R   0.085450 0.646150 0.772930 -0.619344
O41   O     O_R   0.646150 0.914550 0.227070 -0.632222
O42   O     O_R   0.353850 0.085450 0.772930 -0.652006
O43   O     O_R   0.085450 0.646150 0.227070 -0.644145
O44   O     O_R   0.914550 0.353850 0.772930 -0.654043
O45   O     O_R   0.353850 0.914550 0.772930 -0.644341
O46   O     O_R   0.646150 0.085450 0.227070 -0.638302
O47   O     O_R   0.914550 0.646150 0.772930 -0.652738
O48   O     O_R   0.085450 0.353850 0.227070 -0.665065
O49   O     O_R   0.646150 0.085450 0.772930 -0.644097
O50   O     O_R   0.353850 0.914550 0.227070 -0.663684
O51   O     O_R   0.085450 0.353850 0.772930 -0.647556
O52   O     O_R   0.914550 0.646150 0.227070 -0.660598
C17   C     C_R   0.437858 0.976200 0.582020 0.035107
C18   C     C_R   0.559321 0.029363 0.418323 0.031956
C19   C     C_R   0.022267 0.437033 0.582163 0.035591
C20   C     C_R   0.971570 0.560170 0.418142 0.030079
C21   C     C_R   0.562186 0.022394 0.582503 0.035842
C22   C     C_R   0.439844 0.971527 0.417710 0.032912
C23   C     C_R   0.976551 0.562494 0.582430 0.035537
C24   C     C_R   0.029350 0.439838 0.417846 0.030926
C25   C     C_R   0.934662 0.491128 0.081568 0.027888
C26   C     C_R   0.064351 0.486107 0.918329 0.029528
C27   C     C_R   0.521981 0.937900 0.082422 0.037368
C28   C     C_R   0.474477 0.061612 0.918295 0.034253
C29   C     C_R   0.065650 0.508773 0.082104 0.032815
C30   C     C_R   0.935062 0.514108 0.917898 0.032217
C31   C     C_R   0.476117 0.063502 0.082741 0.033154
C32   C     C_R   0.527088 0.939626 0.918523 0.002054
C33   C     C_R   0.500028 0.999334 0.602130 -0.099964
C34   C     C_R   0.499603 0.000538 0.398034 -0.110824
C35   C     C_R   0.999458 0.499802 0.602183 -0.099319
C36   C     C_R   0.000476 0.500047 0.397987 -0.106704
C37   C     C_R   0.000144 0.499557 0.101935 -0.098204
C38   C     C_R   0.999873 0.500412 0.898031 -0.105426
C39   C     C_R   0.499227 0.000653 0.102360 -0.096401
C40   C     C_R   0.500560 0.000401 0.898331 -0.068146
C41   C     C_R   0.561200 0.027366 0.541539 0.075866
C42   C     C_R   0.436943 0.975953 0.458710 0.076245
C43   C     C_R   0.972149 0.561663 0.541397 0.075429
C44   C     C_R   0.024460 0.436716 0.458817 0.075847
C45   C     C_R   0.438675 0.971595 0.541002 0.075918
C46   C     C_R   0.562445 0.024176 0.459248 0.075068
C47   C     C_R   0.027364 0.438009 0.541186 0.075746
C48   C     C_R   0.976435 0.563217 0.459121 0.074753
C49   C     C_R   0.067123 0.500086 0.041254 0.077775
C50   C     C_R   0.932906 0.505504 0.958707 0.078955
C51   C     C_R   0.474368 0.063936 0.041635 0.074479
C52   C     C_R   0.522260 0.936944 0.959368 0.082108
C53   C     C_R   0.933114 0.501125 0.040913 0.080272
C54   C     C_R   0.066621 0.495879 0.959046 0.077619
C55   C     C_R   0.526539 0.938636 0.041512 0.072547
C56   C     C_R   0.480764 0.065436 0.959349 0.039108
C57   C     C_R   0.999826 0.499949 0.644458 0.786455
C58   C     C_R   0.000162 0.500002 0.355608 0.785884
C59   C     C_R   0.499965 0.999784 0.644370 0.788361
C60   C     C_R   0.499864 0.000203 0.355693 0.803710
C61   C     C_R   0.499770 0.000409 0.144525 0.784610
C62   C     C_R   0.500165 0.000140 0.855726 0.825563
C63   C     C_R   0.999976 0.499810 0.144290 0.786888
C64   C     C_R   0.000037 0.500166 0.855698 0.793125
C65   C     C_R   0.860302 0.640152 0.749936 0.790822
C66   C     C_R   0.140786 0.360553 0.248831 0.790488
C67   C     C_R   0.360065 0.860139 0.749720 0.788603
C68   C     C_R   0.637715 0.142746 0.249120 0.813258
C69   C     C_R   0.139628 0.359897 0.749868 0.789069
C70   C     C_R   0.860008 0.639965 0.249448 0.789209
C71   C     C_R   0.640626 0.139175 0.749501 0.855355
C72   C     C_R   0.360615 0.859388 0.249006 0.789220
C73   C     C_R   0.860097 0.359945 0.249731 0.783510
C74   C     C_R   0.139659 0.640404 0.749971 0.846175
C75   C     C_R   0.359573 0.139580 0.251105 0.797558
C76   C     C_R   0.640367 0.860112 0.749531 0.790107
C77   C     C_R   0.139694 0.640298 0.250755 0.845930
C78   C     C_R   0.860094 0.359940 0.749956 0.792753
C79   C     C_R   0.638884 0.859189 0.249663 0.856530
C80   C     C_R   0.359928 0.139896 0.749780 0.789783
H1    H     H_    0.299250 0.611794 0.864572 0.143663
H2    H     H_    0.729713 0.375083 0.123318 0.158990
H3    H     H_    0.403936 0.316762 0.857034 0.146623
H4    H     H_    0.578460 0.664569 0.153408 0.154679
H5    H     H_    0.687042 0.404570 0.857353 0.151349
H6    H     H_    0.319203 0.582200 0.147703 0.155221
H7    H     H_    0.588369 0.678769 0.851822 0.155188
H8    H     H_    0.414358 0.320006 0.148547 0.157962
H9    H     H_    0.303739 0.387022 0.134783 0.154722
H10   H     H_    0.660406 0.570183 0.839309 0.153716
H11   H     H_    0.389535 0.691540 0.135494 0.153945
H12   H     H_    0.578219 0.333814 0.843812 0.141684
H13   H     H_    0.687582 0.594491 0.140979 0.158396
H14   H     H_    0.336885 0.427629 0.842328 0.151294
H15   H     H_    0.653833 0.267392 0.115957 0.156746
H16   H     H_    0.411327 0.677125 0.852049 0.149490
H17   H     H_    0.700457 0.219939 0.381530 0.154765
H18   H     H_    0.173114 0.917548 0.649751 0.152543
H19   H     H_    0.914761 0.827893 0.350796 0.152382
H20   H     H_    0.077090 0.162187 0.655140 0.152837
H21   H     H_    0.187975 0.910459 0.355564 0.154499
H22   H     H_    0.834240 0.074780 0.654607 0.151529
H23   H     H_    0.089764 0.184478 0.354015 0.160136
H24   H     H_    0.923919 0.838574 0.657667 0.153801
H25   H     H_    0.813278 0.905053 0.642963 0.152811
H26   H     H_    0.199023 0.114564 0.366451 0.153489
H27   H     H_    0.903212 0.184835 0.641669 0.152744
H28   H     H_    0.119100 0.799687 0.367232 0.142895
H29   H     H_    0.187250 0.094361 0.641446 0.153194
H30   H     H_    0.813913 0.912393 0.355159 0.144357
H31   H     H_    0.102743 0.807666 0.637724 0.152754
H32   H     H_    0.832525 0.235042 0.376168 0.152654
C81   C     C_R   0.147260 0.748381 0.685938 0.109795
C82   C     C_R   0.828423 0.262570 0.315444 0.127008
C83   C     C_R   0.249266 0.144043 0.687515 0.108674
C84   C     C_R   0.754761 0.865521 0.307082 0.123587
C85   C     C_R   0.855316 0.247746 0.687777 0.110781
C86   C     C_R   0.155482 0.744287 0.315508 0.113360
C87   C     C_R   0.750918 0.855088 0.688126 0.109143
C88   C     C_R   0.255526 0.153160 0.316195 0.105525
C89   C     C_R   0.131920 0.238810 0.303875 0.115710
C90   C     C_R   0.876055 0.772555 0.702122 0.111237
C91   C     C_R   0.240122 0.869390 0.304219 0.113772
C92   C     C_R   0.770356 0.123232 0.699983 0.110572
C93   C     C_R   0.870519 0.766384 0.302910 0.112735
C94   C     C_R   0.124638 0.227924 0.700502 0.111928
C95   C     C_R   0.681091 0.228763 0.319953 0.142648
C96   C     C_R   0.233877 0.872459 0.697286 0.114772
C97   C     C_R   0.667288 0.231631 0.174887 0.117128
C98   C     C_R   0.369555 0.734908 0.802598 0.114326
C99   C     C_R   0.749002 0.643123 0.187579 0.105565
C100  C     C_R   0.271896 0.378161 0.797340 0.106930
C101  C     C_R   0.348838 0.751129 0.184726 0.109726
C102  C     C_R   0.626927 0.268669 0.798599 0.121017
C103  C     C_R   0.246251 0.346921 0.184386 0.106202
C104  C     C_R   0.728192 0.621191 0.796736 0.113420
C105  C     C_R   0.640328 0.743607 0.808260 0.112658
C106  C     C_R   0.371356 0.264018 0.197977 0.113696
C107  C     C_R   0.749713 0.355344 0.811676 0.107543
C108  C     C_R   0.262708 0.627268 0.196690 0.115081
C109  C     C_R   0.355210 0.253162 0.811184 0.086008
C110  C     C_R   0.625263 0.728833 0.199541 0.110299
C111  C     C_R   0.243210 0.653809 0.814413 0.119520
C112  C     C_R   0.760459 0.352295 0.182199 0.126815
C113  C     C_R   0.140311 0.808880 0.662053 -0.161010
C114  C     C_R   0.798735 0.239140 0.350436 -0.155296
C115  C     C_R   0.187083 0.133316 0.665326 -0.160803
C116  C     C_R   0.812577 0.869766 0.333129 -0.238484
C117  C     C_R   0.864746 0.185081 0.665384 -0.162692
C118  C     C_R   0.153299 0.802531 0.341775 -0.238114
C119  C     C_R   0.813417 0.866366 0.666700 -0.160140
C120  C     C_R   0.196868 0.149674 0.341208 -0.163911
C121  C     C_R   0.135575 0.190430 0.334657 -0.164178
C122  C     C_R   0.875620 0.827614 0.674513 -0.163680
C123  C     C_R   0.193341 0.864724 0.335566 -0.132514
C124  C     C_R   0.824675 0.123198 0.672225 -0.158728
C125  C     C_R   0.869456 0.821459 0.330848 -0.132521
C126  C     C_R   0.125140 0.172776 0.672592 -0.163563
C127  C     C_R   0.724644 0.227117 0.353205 -0.201313
C128  C     C_R   0.181171 0.870613 0.668401 -0.164327
C129  C     C_R   0.681440 0.276745 0.143414 -0.168892
C130  C     C_R   0.365254 0.685262 0.832845 -0.133543
C131  C     C_R   0.687433 0.633676 0.164759 -0.163766
C132  C     C_R   0.326315 0.378546 0.825362 -0.156349
C133  C     C_R   0.353575 0.690623 0.160304 -0.161970
C134  C     C_R   0.626152 0.324481 0.826342 -0.238866
C135  C     C_R   0.305833 0.352007 0.160066 -0.162932
C136  C     C_R   0.670772 0.619190 0.822628 -0.165914
C137  C     C_R   0.628974 0.680100 0.829164 -0.158678
C138  C     C_R   0.367936 0.312852 0.167361 -0.165541
C139  C     C_R   0.687336 0.365477 0.833537 -0.131236
C140  C     C_R   0.312637 0.629221 0.166736 -0.162194
C141  C     C_R   0.365433 0.316309 0.833122 -0.182632
C142  C     C_R   0.626094 0.674371 0.171311 -0.157221
C143  C     C_R   0.302283 0.647334 0.839549 -0.239691
C144  C     C_R   0.725375 0.337291 0.147331 -0.173273
C145  C     C_R   0.499882 0.999598 0.520704 -0.099599
C146  C     C_R   0.499765 0.999871 0.479551 -0.098678
C147  C     C_R   0.999956 0.499871 0.520719 -0.099591
C148  C     C_R   0.000303 0.499932 0.479550 -0.098407
C149  C     C_R   0.000038 0.500773 0.020494 -0.099934
C150  C     C_R   0.999849 0.500864 0.979462 -0.099659
C151  C     C_R   0.500840 0.001341 0.021072 -0.099979
C152  C     C_R   0.501310 0.001268 0.979943 -0.080954
C153  C     C_R   0.245230 0.810070 0.722272 0.013459
C154  C     C_R   0.714705 0.234993 0.282802 0.013294
C155  C     C_R   0.188458 0.242546 0.723946 0.009084
C156  C     C_R   0.810009 0.756412 0.276393 0.000506
C157  C     C_R   0.757173 0.187500 0.723658 -0.008117
C158  C     C_R   0.248577 0.808258 0.277727 0.001606
C159  C     C_R   0.811854 0.757430 0.724751 0.008186
C160  C     C_R   0.192564 0.247615 0.277921 0.016046
C161  C     C_R   0.252897 0.199287 0.282107 0.003008
C162  C     C_R   0.751313 0.805276 0.720526 0.006556
C163  C     C_R   0.200407 0.747820 0.281450 0.042742
C164  C     C_R   0.805742 0.247885 0.720194 0.014266
C165  C     C_R   0.752181 0.808478 0.277858 0.048061
C166  C     C_R   0.248847 0.194241 0.720118 0.007080
C167  C     C_R   0.783284 0.267764 0.281618 0.009123
C168  C     C_R   0.195807 0.750162 0.719092 -0.003926
C169  C     C_R   0.756357 0.301395 0.213741 0.019346
C170  C     C_R   0.247409 0.699380 0.780571 0.046702
C171  C     C_R   0.688594 0.742510 0.223590 -0.007739
C172  C     C_R   0.305505 0.252475 0.778678 0.018258
C173  C     C_R   0.253390 0.689748 0.222208 0.001376
C174  C     C_R   0.749795 0.305067 0.779082 -0.006973
C175  C     C_R   0.309537 0.253668 0.223076 0.015041
C176  C     C_R   0.692617 0.745685 0.777340 0.006220
C177  C     C_R   0.742310 0.686295 0.774124 0.009820
C178  C     C_R   0.248726 0.301206 0.218526 0.004327
C179  C     C_R   0.690279 0.255973 0.775245 0.052662
C180  C     C_R   0.301995 0.750122 0.218341 0.008340
C181  C     C_R   0.257172 0.312788 0.774692 0.013712
C182  C     C_R   0.749068 0.694205 0.219889 0.014547
C183  C     C_R   0.308213 0.746653 0.777035 -0.003102
C184  C     C_R   0.703670 0.243676 0.211580 0.020885
C185  C     C_R   0.304151 0.804363 0.749330 -0.116011
C186  C     C_R   0.685284 0.207698 0.247190 -0.169947
C187  C     C_R   0.195603 0.304072 0.749647 -0.119117
C188  C     C_R   0.806035 0.698251 0.248323 -0.117693
C189  C     C_R   0.696973 0.194903 0.749425 -0.131202
C190  C     C_R   0.302066 0.805886 0.247869 -0.119765
C191  C     C_R   0.804482 0.695837 0.749950 -0.115300
C192  C     C_R   0.193956 0.301318 0.247897 -0.123381
C193  C     C_R   0.307047 0.198934 0.252447 -0.123030
C194  C     C_R   0.695627 0.802994 0.749227 -0.121019
C195  C     C_R   0.199020 0.693174 0.251551 -0.130457
C196  C     C_R   0.804490 0.303525 0.749734 -0.120464
C197  C     C_R   0.693674 0.801952 0.250631 -0.131581
C198  C     C_R   0.303979 0.196248 0.749542 -0.123988
C199  C     C_R   0.801402 0.306627 0.247619 -0.133244
C200  C     C_R   0.194918 0.697536 0.749804 -0.132927
N1    N     N_3   0.109215 0.684984 0.672258 -0.479581
H33   H     H_    0.145937 0.642960 0.666083 0.230830
H34   H     H_    0.067726 0.670085 0.691016 0.181231
N2    N     N_3   0.905474 0.270874 0.314243 -0.469244
H35   H     H_    0.924150 0.247722 0.288358 0.190723
H36   H     H_    0.918935 0.326288 0.315972 0.193057
N3    N     N_3   0.312791 0.109364 0.672308 -0.476796
H37   H     H_    0.352300 0.148646 0.666317 0.227539
H38   H     H_    0.331027 0.067630 0.690331 0.185684
N4    N     N_3   0.698958 0.919684 0.311566 -0.443968
H39   H     H_    0.722212 0.971599 0.308690 0.169566
H40   H     H_    0.677626 0.915601 0.339558 0.179186
N5    N     N_3   0.891088 0.311182 0.673031 -0.477699
H41   H     H_    0.852940 0.351648 0.666494 0.228026
H42   H     H_    0.932363 0.328917 0.691554 0.186920
N6    N     N_3   0.115391 0.680232 0.325812 -0.431415
H43   H     H_    0.061508 0.695145 0.330609 0.166936
H44   H     H_    0.136289 0.660300 0.351991 0.194296
N7    N     N_3   0.687044 0.888126 0.672178 -0.475798
H45   H     H_    0.647989 0.848035 0.666349 0.227039
H46   H     H_    0.668189 0.930498 0.689780 0.186360
N8    N     N_3   0.318190 0.114318 0.329623 -0.471525
H47   H     H_    0.331035 0.070699 0.311291 0.186004
H48   H     H_    0.360950 0.150712 0.334695 0.230782
N9    N     N_3   0.062175 0.271211 0.298139 -0.481887
H49   H     H_    0.062624 0.326782 0.305296 0.185044
H50   H     H_    0.043770 0.260046 0.270010 0.210716
N10   N     N_3   0.944604 0.736870 0.706814 -0.478778
H51   H     H_    0.963541 0.743361 0.735238 0.221226
H52   H     H_    0.941701 0.682501 0.697452 0.172371
N11   N     N_3   0.271957 0.940091 0.298973 -0.484314
H53   H     H_    0.327271 0.939159 0.305535 0.178934
H54   H     H_    0.260358 0.959646 0.271200 0.216322
N12   N     N_3   0.733351 0.054888 0.703801 -0.481621
H55   H     H_    0.739285 0.034969 0.731974 0.217134
H56   H     H_    0.679480 0.059462 0.694624 0.165441
N13   N     N_3   0.937086 0.726107 0.301593 -0.498857
H57   H     H_    0.929608 0.671984 0.310123 0.184898
H58   H     H_    0.961838 0.731735 0.274589 0.217714
N14   N     N_3   0.056340 0.264258 0.704628 -0.479527
H59   H     H_    0.036805 0.258128 0.732809 0.220887
H60   H     H_    0.059882 0.318547 0.695584 0.173578
N15   N     N_3   0.606062 0.247138 0.325818 -0.447160
H61   H     H_    0.582286 0.267482 0.300440 0.213340
H62   H     H_    0.577949 0.201304 0.335661 0.220190
N16   N     N_3   0.270538 0.941148 0.701062 -0.482774
H63   H     H_    0.263416 0.962780 0.728908 0.216847
H64   H     H_    0.324737 0.936466 0.692774 0.176018
N17   N     N_3   0.613038 0.177385 0.167654 -0.483548
H65   H     H_    0.637189 0.126178 0.164024 0.241531
H66   H     H_    0.572107 0.179380 0.188375 0.178111
N18   N     N_3   0.439312 0.767825 0.798028 -0.483206
H67   H     H_    0.458739 0.758297 0.770021 0.215720
H68   H     H_    0.437710 0.823085 0.805845 0.179905
N19   N     N_3   0.811587 0.605262 0.173448 -0.479881
H69   H     H_    0.852475 0.642591 0.166699 0.228548
H70   H     H_    0.827904 0.564014 0.192322 0.182391
N20   N     N_3   0.237325 0.447422 0.791733 -0.483800
H71   H     H_    0.244601 0.465132 0.763265 0.228902
H72   H     H_    0.183224 0.445737 0.800489 0.175306
N21   N     N_3   0.387148 0.813961 0.171125 -0.477762
H73   H     H_    0.350863 0.856669 0.165692 0.231595
H74   H     H_    0.429941 0.827999 0.189580 0.183175
N22   N     N_3   0.561855 0.226621 0.794380 -0.449633
H75   H     H_    0.519237 0.262298 0.787654 0.192126
H76   H     H_    0.551050 0.202151 0.821109 0.166804
N23   N     N_3   0.182812 0.383274 0.170180 -0.478027
H77   H     H_    0.141058 0.345495 0.165589 0.231921
H78   H     H_    0.168666 0.427394 0.187897 0.184597
N24   N     N_3   0.767742 0.554055 0.794019 -0.481865
H79   H     H_    0.763476 0.531944 0.766097 0.224924
H80   H     H_    0.820847 0.560521 0.804147 0.175290
N25   N     N_3   0.605273 0.806741 0.823753 -0.479050
H81   H     H_    0.644698 0.845907 0.830405 0.217254
H82   H     H_    0.565010 0.825845 0.805130 0.186912
N26   N     N_3   0.441470 0.232173 0.204111 -0.483538
H83   H     H_    0.459866 0.243326 0.232260 0.211255
H84   H     H_    0.441326 0.176578 0.196969 0.179947
N27   N     N_3   0.813007 0.390215 0.827370 -0.478271
H85   H     H_    0.852607 0.351004 0.833607 0.228329
H86   H     H_    0.831365 0.431822 0.809437 0.187110
N28   N     N_3   0.228118 0.557792 0.201550 -0.484324
H87   H     H_    0.237874 0.537765 0.229415 0.213969
H88   H     H_    0.173208 0.560560 0.194158 0.174551
N29   N     N_3   0.389544 0.189554 0.826644 -0.478790
H89   H     H_    0.350402 0.149955 0.832739 0.240982
H90   H     H_    0.431037 0.170763 0.808778 0.189534
N30   N     N_3   0.556689 0.764775 0.203727 -0.482336
H91   H     H_    0.537056 0.758270 0.231868 0.215240
H92   H     H_    0.559802 0.819187 0.194833 0.165093
N31   N     N_3   0.178202 0.616995 0.825510 -0.424941
H93   H     H_    0.162192 0.636909 0.852699 0.190452
H94   H     H_    0.190065 0.561570 0.828384 0.162139
N32   N     N_3   0.788820 0.424985 0.186065 -0.486237
H95   H     H_    0.771765 0.448578 0.212197 0.193427
H96   H     H_    0.845073 0.425115 0.183250 0.193961
N33   N     N_3   0.372289 0.962984 0.603320 -0.465523
H97   H     H_    0.380966 0.920096 0.622753 0.203102
H98   H     H_    0.358771 0.010224 0.618942 0.195343
N34   N     N_3   0.615213 0.066905 0.397373 -0.465544
H99   H     H_    0.636233 0.032247 0.375921 0.170623
H100  H     H_    0.592848 0.113284 0.384426 0.203546
N35   N     N_3   0.034641 0.370688 0.603460 -0.465373
H101  H     H_    0.987504 0.357398 0.618606 0.194936
H102  H     H_    0.076959 0.378967 0.623340 0.202976
N36   N     N_3   0.934792 0.616832 0.396954 -0.458926
H103  H     H_    0.889294 0.594711 0.382958 0.223016
H104  H     H_    0.970123 0.638542 0.376365 0.167728
N37   N     N_3   0.627902 0.035190 0.604205 -0.465250
H105  H     H_    0.641263 0.987783 0.619473 0.195326
H106  H     H_    0.619537 0.077984 0.623979 0.202186
N38   N     N_3   0.383363 0.935257 0.395977 -0.460261
H107  H     H_    0.404916 0.889307 0.381952 0.220220
H108  H     H_    0.362168 0.971296 0.375344 0.182744
N39   N     N_3   0.963282 0.628626 0.604128 -0.466133
H109  H     H_    0.920830 0.619875 0.623576 0.204027
H110  H     H_    0.010111 0.642383 0.619752 0.195207
N40   N     N_3   0.065832 0.383112 0.396353 -0.459169
H111  H     H_    0.030402 0.361564 0.375392 0.178993
H112  H     H_    0.111323 0.405179 0.382723 0.220312
N41   N     N_3   0.870805 0.468081 0.101834 -0.464631
H113  H     H_    0.859356 0.506155 0.123681 0.196541
H114  H     H_    0.881276 0.417312 0.114540 0.204126
N42   N     N_3   0.126085 0.457472 0.897916 -0.458679
H115  H     H_    0.140748 0.494312 0.876337 0.163254
H116  H     H_    0.111516 0.407860 0.884733 0.211890
N43   N     N_3   0.534451 0.871647 0.103798 -0.465827
H117  H     H_    0.487503 0.858456 0.119125 0.195034
H118  H     H_    0.577143 0.879819 0.123458 0.203008
N44   N     N_3   0.435907 0.115512 0.896216 -0.455495
H119  H     H_    0.468775 0.160903 0.891191 0.195006
H120  H     H_    0.387336 0.129438 0.909974 0.207795
N45   N     N_3   0.129542 0.530899 0.103224 -0.461195
H121  H     H_    0.119235 0.581011 0.116972 0.205593
H122  H     H_    0.140963 0.491933 0.124433 0.190646
N46   N     N_3   0.872595 0.539690 0.896785 -0.460459
H123  H     H_    0.885682 0.589043 0.883303 0.207204
H124  H     H_    0.858988 0.501213 0.875388 0.187660
N47   N     N_3   0.458937 0.128131 0.104877 -0.468019
H125  H     H_    0.415050 0.117190 0.123058 0.208087
H126  H     H_    0.503836 0.142849 0.121797 0.194436
N48   N     N_3   0.562121 0.881974 0.897528 -0.457421
H127  H     H_    0.525960 0.861862 0.876556 0.190967
H128  H     H_    0.608336 0.903672 0.884521 0.213967
C201  C     C_3   0.676131 0.107339 0.539916 -0.864348
H129  H     H_    0.649339 0.144257 0.561203 0.250114
H130  H     H_    0.719788 0.074959 0.554051 0.252051
H131  H     H_    0.701604 0.144627 0.518609 0.236355
C202  C     C_3   0.299328 0.952221 0.460581 -0.880624
H132  H     H_    0.292976 0.997635 0.439545 0.247068
H133  H     H_    0.290182 0.898422 0.446185 0.255671
H134  H     H_    0.255463 0.961086 0.482099 0.234526
C203  C     C_3   0.893356 0.678021 0.539130 -0.862324
H135  H     H_    0.856196 0.651120 0.559926 0.250312
H136  H     H_    0.925478 0.721731 0.553735 0.251325
H137  H     H_    0.856955 0.704140 0.517471 0.237629
C204  C     C_3   0.048367 0.297967 0.460626 -0.878019
H138  H     H_    0.003680 0.291565 0.439108 0.246612
H139  H     H_    0.101955 0.289020 0.446767 0.256156
H140  H     H_    0.039431 0.253536 0.481927 0.234514
C205  C     C_3   0.323718 0.891698 0.538068 -0.864259
H141  H     H_    0.350615 0.854515 0.559082 0.250241
H142  H     H_    0.280131 0.923895 0.552360 0.251270
H143  H     H_    0.298149 0.854690 0.516262 0.237200
C206  C     C_3   0.700035 0.048037 0.461874 -0.881604
H144  H     H_    0.744009 0.038482 0.483428 0.236025
H145  H     H_    0.706158 0.003225 0.440190 0.244868
H146  H     H_    0.709171 0.102219 0.448303 0.250939
C207  C     C_3   0.106703 0.322106 0.538895 -0.863563
H147  H     H_    0.143101 0.349130 0.560412 0.250041
H148  H     H_    0.074572 0.278034 0.552703 0.251653
H149  H     H_    0.143877 0.296492 0.517469 0.237442
C208  C     C_3   0.953627 0.702105 0.461784 -0.881989
H150  H     H_    0.998330 0.707955 0.440517 0.241945
H151  H     H_    0.900148 0.711925 0.447739 0.257399
H152  H     H_    0.963264 0.746237 0.483528 0.234966
C209  C     C_3   0.203282 0.470549 0.041052 -0.878801
H153  H     H_    0.231582 0.519491 0.052961 0.252924
H154  H     H_    0.191952 0.430662 0.064451 0.249319
H155  H     H_    0.240842 0.441321 0.021177 0.235829
C210  C     C_3   0.794891 0.486484 0.958835 -0.876526
H156  H     H_    0.770465 0.537381 0.947099 0.254049
H157  H     H_    0.803114 0.445481 0.935320 0.249336
H158  H     H_    0.755155 0.460599 0.978594 0.235181
C211  C     C_3   0.404503 0.186551 0.038385 -0.868498
H159  H     H_    0.361755 0.162843 0.057113 0.250838
H160  H     H_    0.439346 0.225334 0.055000 0.251645
H161  H     H_    0.374519 0.218346 0.016090 0.237310
C212  C     C_3   0.539781 0.797213 0.961410 -0.874407
H162  H     H_    0.494871 0.792949 0.939881 0.246683
H163  H     H_    0.592810 0.785135 0.947588 0.256678
H164  H     H_    0.528499 0.753726 0.982941 0.233532
C213  C     C_3   0.797415 0.532293 0.040565 -0.877115
H165  H     H_    0.760719 0.563171 0.020919 0.236395
H166  H     H_    0.767930 0.483643 0.051481 0.249959
H167  H     H_    0.809589 0.571000 0.064724 0.250107
C214  C     C_3   0.204311 0.516069 0.959574 -0.885980
H168  H     H_    0.243225 0.544069 0.979403 0.237517
H169  H     H_    0.229997 0.465180 0.948407 0.253690
H170  H     H_    0.195171 0.555471 0.935615 0.240684
C215  C     C_3   0.602190 0.819995 0.038867 -0.863145
H171  H     H_    0.640407 0.845887 0.059864 0.250420
H172  H     H_    0.568995 0.777312 0.053167 0.251486
H173  H     H_    0.637495 0.792665 0.017123 0.236776
C216  C     C_3   0.475688 0.205568 0.963059 -0.950636
H174  H     H_    0.523022 0.205289 0.943262 0.241219
H175  H     H_    0.425816 0.224847 0.948125 0.238004
H176  H     H_    0.489906 0.246658 0.985762 0.252985

loop_
_geom_bond_atom_site_label_1
_geom_bond_atom_site_label_2
_geom_bond_distance
_ccdc_geom_bond_type
C20   C36   1.401602 A    
C80   C198  1.456171 S    
N43   H117  1.044534 S    
C96   C128  1.386665 A    
C166  C198  1.431212 A    
C2    C5    1.404936 A    
C204  H138  1.110419 S    
N8    H48   1.044140 S    
C39   C61   1.452090 S    
Zn4   O4    1.960280 S    
N13   H57   1.042375 S    
Zn6   O43   1.939134 S    
C37   C63   1.458625 S    
Zn13  O28   1.939135 S    
C207  H147  1.110249 S    
C208  H152  1.110358 S    
O40   C74   1.280702 A    
Zn14  O27   1.939134 S    
Zn8   O37   1.934576 S    
C108  N28   1.431255 S    
N35   H102  1.045225 S    
C25   C53   1.413218 A    
N33   H98   1.044516 S    
C69   C187  1.449700 S    
C94   N14   1.429350 S    
O8    C60   1.274748 A    
C9    C14   1.408957 A    
C206  H146  1.110335 S    
C94   C155  1.446683 A    
H16   C130  1.083987 S    
C82   N2    1.428284 S    
Zn3   O42   1.936099 S    
C99   C131  1.386634 A    
O50   C72   1.268790 A    
O24   C68   1.269049 A    
C95   N15   1.437022 S    
C14   C54   1.420607 A    
C76   C194  1.457176 S    
C179  C189  1.427645 A    
C67   C185  1.448888 S    
C19   C47   1.414997 A    
C29   C37   1.400316 A    
Zn2   O2    1.938521 S    
C28   C40   1.395079 A    
O44   C78   1.279582 A    
C93   N13   1.430366 S    
H12   C134  1.083782 S    
C145  C146  1.417279 A    
H27   C117  1.083962 S    
C24   C44   1.415810 A    
C89   C121  1.385717 A    
C154  C186  1.425429 A    
C83   C115  1.386916 A    
N4    H40   1.045989 S    
C32   C40   1.400072 A    
H5    C139  1.083971 S    
C86   N6    1.431300 S    
C132  C141  1.372471 A    
C173  C180  1.427974 A    
Zn15  O22   1.934578 S    
O9    C57   1.280796 A    
C151  C152  1.416467 A    
O21   C65   1.273326 A    
N14   H59   1.043508 S    
C110  C142  1.386518 A    
C50   C150  1.424850 A    
O11   C59   1.274003 A    
C78   C196  1.453080 S    
H9    C135  1.084130 S    
C171  C182  1.426368 A    
N1    H33   1.044366 S    
C27   N43   1.438113 S    
C96   C153  1.446708 A    
O43   C77   1.291396 A    
O15   C63   1.274812 A    
N6    H43   1.042818 S    
C203  H137  1.110220 S    
C96   N16   1.429825 S    
Zn4   O46   1.933426 S    
C102  C134  1.392709 A    
Zn12  O30   1.933426 S    
N19   H69   1.044200 S    
H1    C143  1.083837 S    
N18   H67   1.044011 S    
C106  C138  1.386488 A    
C89   N9    1.427524 S    
C19   N35   1.437841 S    
H22   C124  1.084050 S    
C26   C54   1.412792 A    
N34   H100  1.043351 S    
C207  H148  1.110187 S    
C213  H166  1.110228 S    
O35   C79   1.276541 A    
C66   C192  1.459275 S    
C204  H140  1.110259 S    
N36   H104  1.045042 S    
H26   C120  1.084079 S    
Zn2   O39   1.944386 S    
Zn3   O45   1.933427 S    
C91   C123  1.387824 A    
C71   C189  1.454022 S    
N46   H123  1.045368 S    
C207  H149  1.110257 S    
C21   C33   1.399001 A    
C165  C197  1.429348 A    
C52   C152  1.422247 A    
Zn15  O10   1.946085 S    
C23   C35   1.399396 A    
C1    C41   1.420980 A    
C28   N44   1.433617 S    
C98   N18   1.428718 S    
C9    C209  1.520343 S    
C155  C166  1.425523 A    
C3    C43   1.421258 A    
Zn3   O14   1.941291 S    
C23   N39   1.437644 S    
C30   C38   1.400652 A    
C95   C127  1.395267 A    
C12   C212  1.520451 S    
C115  C126  1.372488 A    
Zn5   O44   1.939135 S    
C25   N41   1.435466 S    
C209  H154  1.110377 S    
C113  C128  1.371604 A    
C2    C202  1.520337 S    
C104  C177  1.449834 A    
C45   C145  1.426393 A    
C56   C152  1.423767 A    
N38   H108  1.045658 S    
C29   C49   1.415097 A    
C201  H129  1.110246 S    
N44   H120  1.045100 S    
O34   C78   1.279907 A    
N32   H95   1.045009 S    
O10   C58   1.282106 A    
C31   C51   1.415878 A    
C104  C136  1.387554 A    
C95   C154  1.429456 A    
C100  C132  1.387842 A    
C1    C201  1.520182 S    
N37   H105  1.044493 S    
C22   N38   1.437905 S    
N29   H90   1.040390 S    
O22   C66   1.288325 A    
C32   N48   1.429058 S    
C160  C192  1.430028 A    
N17   H65   1.042508 S    
C161  C193  1.431326 A    
H29   C115  1.083951 S    
C29   N45   1.437079 S    
N24   H79   1.043111 S    
C112  N32   1.432027 S    
C118  C123  1.373103 A    
C205  H141  1.110253 S    
C55   C151  1.427378 A    
C86   C118  1.392613 A    
C105  C176  1.440186 A    
C149  C150  1.413068 A    
C91   N11   1.431279 S    
C106  C175  1.446369 A    
C65   C191  1.445849 S    
N38   H107  1.044797 S    
C34   C60   1.458139 S    
C90   C122  1.388312 A    
C101  C180  1.447633 A    
H20   C126  1.084048 S    
C102  C179  1.438534 A    
N5    H42   1.040400 S    
C54   C150  1.422471 A    
C103  C178  1.446883 A    
C24   N40   1.437833 S    
H6    C140  1.084073 S    
N22   H75   1.045971 S    
C91   C158  1.446132 A    
N9    H50   1.043568 S    
C22   C34   1.401578 A    
H10   C136  1.084166 S    
H13   C131  1.084126 S    
C20   N36   1.437430 S    
N30   H91   1.043667 S    
Zn5   O1    1.950306 S    
Zn9   O4    1.938517 S    
N39   H110  1.044213 S    
C167  C199  1.414544 A    
Zn10  O3    1.938521 S    
Zn11  O26   1.936099 S    
C40   C62   1.467178 S    
O36   C80   1.283129 A    
O39   C73   1.278418 A    
O26   C70   1.292067 A    
N2    H36   1.043334 S    
C41   C145  1.426598 A    
C215  H171  1.110266 S    
C84   C165  1.444484 A    
O30   C74   1.278391 A    
C120  C121  1.370523 A    
O6    C58   1.281689 A    
N26   H84   1.043163 S    
C30   C50   1.415907 A    
C107  C174  1.445651 A    
N40   H112  1.044837 S    
Zn4   O13   1.941291 S    
Zn5   O16   1.939732 S    
C216  H175  1.108847 S    
Zn1   O40   1.944384 S    
Zn6   O15   1.939732 S    
C110  N30   1.430752 S    
C174  C179  1.421654 A    
C48   C148  1.425096 A    
C175  C178  1.425496 A    
C5    C45   1.421127 A    
C12   C52   1.419833 A    
C109  C141  1.387019 A    
C129  C144  1.376100 A    
C24   C36   1.401814 A    
N12   H55   1.043577 S    
C75   C193  1.453318 S    
C202  H133  1.110228 S    
C99   C182  1.447448 A    
C88   C161  1.449890 A    
C13   C53   1.420619 A    
C214  H169  1.110146 S    
C201  H131  1.110239 S    
C211  H159  1.110243 S    
C114  C127  1.386283 A    
C51   C151  1.427865 A    
H3    C141  1.084019 S    
C81   C168  1.446824 A    
N16   H64   1.043083 S    
C82   C167  1.431302 A    
C4    C7    1.405320 A    
Zn3   O3    1.960279 S    
C81   N1    1.429693 S    
C210  H156  1.110117 S    
C88   N8    1.430866 S    
Zn9   O24   1.944384 S    
N20   H72   1.043184 S    
Zn10  O23   1.944386 S    
C212  H163  1.110250 S    
Zn4   O41   1.936101 S    
O28   C72   1.291723 A    
Zn12  O25   1.936101 S    
N30   H92   1.043440 S    
N42   H115  1.042377 S    
Zn7   O49   1.938892 S    
C8    C48   1.420471 A    
N15   H62   1.043866 S    
C135  C138  1.371738 A    
C17   N33   1.437651 S    
C18   C34   1.401159 A    
C6    C206  1.520307 S    
C172  C198  1.431274 A    
C205  H143  1.110258 S    
O29   C73   1.279327 A    
N31   H94   1.040673 S    
N19   H70   1.041331 S    
Zn9   O31   1.940739 S    
C83   N3    1.430374 S    
C11   C211  1.519508 S    
Zn10  O32   1.940737 S    
C10   C50   1.421591 A    
Zn7   O18   1.946085 S    
N10   H51   1.043517 S    
Zn11  O29   1.933427 S    
H23   C121  1.084028 S    
C177  C191  1.430663 A    
C97   C129  1.391458 A    
C208  H151  1.110199 S    
C178  C192  1.432279 A    
C101  N21   1.430089 S    
H30   C116  1.083767 S    
C184  C186  1.437071 A    
Zn12  O1    1.960280 S    
C168  C200  1.433850 A    
N33   H97   1.045187 S    
C160  C161  1.426170 A    
C119  C122  1.372809 A    
C13   C213  1.520377 S    
C206  H145  1.110441 S    
N8    H47   1.041198 S    
C35   C57   1.455832 S    
H24   C122  1.084028 S    
C72   C190  1.455833 S    
C97   N17   1.427344 S    
C73   C199  1.456589 S    
C176  C177  1.423094 A    
C43   C147  1.426848 A    
C202  H132  1.110458 S    
C215  H173  1.110270 S    
O31   C75   1.263294 A    
C81   C113  1.387182 A    
N48   H127  1.045024 S    
N48   H128  1.043504 S    
Zn16  O9    1.946085 S    
H14   C132  1.084017 S    
C156  C165  1.428416 A    
O13   C61   1.280609 A    
N28   H87   1.043849 S    
C204  H139  1.110215 S    
C21   N37   1.437777 S    
C211  H160  1.110158 S    
Zn7   O38   1.934578 S    
N7    H46   1.040596 S    
N27   H85   1.044463 S    
N21   H74   1.041111 S    
N41   H113  1.043449 S    
O41   C79   1.287179 A    
Zn8   O50   1.938893 S    
O42   C80   1.283760 A    
N14   H60   1.043321 S    
C211  H161  1.110313 S    
N25   H82   1.039619 S    
C84   C116  1.390714 A    
C5    C205  1.520101 S    
C158  C163  1.423375 A    
Zn15  O33   1.938892 S    
C155  C187  1.431601 A    
H17   C127  1.083223 S    
C210  H158  1.109904 S    
O48   C66   1.267510 A    
C156  C188  1.433274 A    
C93   C125  1.387644 A    
N6    H44   1.045951 S    
C173  C195  1.427454 A    
Zn12  O5    1.941291 S    
C203  H136  1.110191 S    
C174  C196  1.430876 A    
Zn13  O8    1.939732 S    
C175  C193  1.427563 A    
Zn14  O7    1.939732 S    
C4    C44   1.421120 A    
C87   N7    1.430692 S    
C109  C172  1.442492 A    
O12   C60   1.275318 A    
C79   C197  1.453108 S    
C85   N5    1.430389 S    
N45   H122  1.043590 S    
N18   H68   1.043282 S    
N28   H88   1.042994 S    
C162  C194  1.428952 A    
C1    C6    1.404436 A    
Zn15  O2    1.950763 S    
C47   C147  1.426231 A    
C107  C139  1.388587 A    
C158  C190  1.428205 A    
C88   C120  1.387034 A    
C111  N31   1.428555 S    
H28   C118  1.083727 S    
C213  H165  1.110156 S    
H11   C133  1.084023 S    
C99   N19   1.429915 S    
O25   C69   1.279950 A    
N13   H58   1.043513 S    
N46   H124  1.044613 S    
C105  N25   1.423395 S    
N1    H34   1.040644 S    
C153  C168  1.426956 A    
C154  C167  1.398999 A    
Zn6   O52   1.941145 S    
C157  C189  1.429611 A    
N3    H37   1.044421 S    
C111  C143  1.392399 A    
C131  C142  1.370982 A    
C92   C124  1.387376 A    
C49   C149  1.424507 A    
N34   H99   1.045493 S    
H8    C138  1.083955 S    
C180  C190  1.434543 A    
Zn6   O2    1.950306 S    
O20   C64   1.275989 A    
Zn11  O6    1.941291 S    
N47   H125  1.045180 S    
C103  C135  1.387503 A    
C209  H153  1.110129 S    
N43   H118  1.045175 S    
C101  C133  1.387368 A    
O27   C71   1.280223 A    
C202  H134  1.110282 S    
H31   C113  1.084031 S    
N23   H78   1.041426 S    
C105  C137  1.385540 A    
C27   C39   1.397505 A    
C108  C173  1.446477 A    
C4    C204  1.520265 S    
C77   C195  1.458716 S    
Zn16  O34   1.938893 S    
C100  N20   1.429660 S    
C10   C210  1.520231 S    
O51   C69   1.283858 A    
N29   H89   1.044472 S    
C172  C181  1.422875 A    
O49   C71   1.277997 A    
N4    H39   1.046078 S    
O19   C63   1.275799 A    
C100  C181  1.446865 A    
C216  H176  1.110638 S    
C89   C160  1.443937 A    
C11   C16   1.403998 A    
C107  N27   1.430640 S    
C90   C159  1.447321 A    
C12   C15   1.402562 A    
C15   C215  1.520230 S    
C2    C42   1.420952 A    
C14   C214  1.520265 S    
N24   H80   1.043319 S    
C85   C164  1.445934 A    
C86   C163  1.440713 A    
O37   C75   1.289280 A    
C31   C39   1.400621 A    
C87   C162  1.444150 A    
O38   C76   1.279880 A    
C116  C125  1.371617 A    
C94   C126  1.387808 A    
N47   H126  1.043560 S    
C3    C8    1.404575 A    
C90   N10   1.429586 S    
N5    H41   1.044337 S    
C46   C146  1.425375 A    
H32   C114  1.083233 S    
N22   H76   1.045880 S    
C153  C185  1.431005 A    
N9    H49   1.042891 S    
Zn1   O20   1.945640 S    
N27   H86   1.039997 S    
Zn2   O19   1.945640 S    
C38   C64   1.457857 S    
N7    H45   1.044540 S    
H7    C137  1.084046 S    
H18   C128  1.084083 S    
C213  H167  1.110366 S    
C26   N42   1.436586 S    
Zn14  O36   1.941145 S    
N36   H103  1.044775 S    
O16   C64   1.274234 A    
C164  C196  1.433520 A    
C102  N22   1.430094 S    
Zn8   O17   1.946085 S    
C181  C187  1.429594 A    
N15   H61   1.045793 S    
C182  C188  1.433165 A    
C70   C188  1.456769 S    
C183  C185  1.427873 A    
C157  C164  1.426370 A    
C16   C56   1.416898 A    
C103  N23   1.429388 S    
N35   H101  1.044689 S    
N11   H53   1.042665 S    
C159  C162  1.423862 A    
C68   C186  1.477127 S    
C108  C140  1.386188 A    
Zn1   O1    1.938517 S    
N31   H93   1.046104 S    
C87   C119  1.386770 A    
C136  C137  1.370650 A    
C216  H174  1.109582 S    
C83   C166  1.445027 A    
C85   C117  1.387266 A    
C133  C140  1.371467 A    
O14   C62   1.283690 A    
C209  H155  1.109941 S    
Zn5   O51   1.941143 S    
N12   H56   1.043325 S    
H19   C125  1.084106 S    
C30   N46   1.437400 S    
C74   C200  1.458071 S    
C21   C41   1.414258 A    
C176  C194  1.431598 A    
C214  H168  1.110132 S    
C7    C207  1.520087 S    
C23   C43   1.415006 A    
C201  H130  1.110196 S    
Zn16  O21   1.934576 S    
C130  C143  1.372632 A    
O18   C62   1.284070 A    
C33   C59   1.454655 S    
N44   H119  1.042652 S    
C110  C171  1.448033 A    
C111  C170  1.438884 A    
C169  C184  1.434506 A    
C32   C52   1.411055 A    
C6    C46   1.420738 A    
C170  C183  1.420680 A    
N37   H106  1.045195 S    
C212  H162  1.110449 S    
C25   C37   1.400218 A    
C42   C146  1.425789 A    
C117  C124  1.372442 A    
N42   H116  1.045349 S    
O52   C70   1.274858 A    
N41   H114  1.045237 S    
N20   H71   1.043647 S    
C84   N4    1.434440 S    
O23   C67   1.278933 A    
O5    C57   1.280761 A    
C205  H142  1.110204 S    
O47   C65   1.276078 A    
O7    C59   1.273879 A    
C28   C56   1.419231 A    
C109  N29   1.427130 S    
C93   C156  1.448081 A    
C92   C157  1.445984 A    
C171  C197  1.428536 A    
Zn13  O4    1.950306 S    
N10   H52   1.043311 S    
Zn14  O3    1.950306 S    
O32   C76   1.274969 A    
C208  H150  1.110484 S    
O17   C61   1.278801 A    
N3    H38   1.040528 S    
C20   C48   1.414336 A    
C104  N24   1.428726 S    
H4    C142  1.084059 S    
Zn16  O1    1.950767 S    
N23   H77   1.044224 S    
C53   C149  1.422332 A    
N39   H109  1.045231 S    
C159  C191  1.432042 A    
C206  H144  1.110328 S    
C18   N34   1.437101 S    
N11   H54   1.044115 S    
N32   H96   1.041219 S    
N2    H35   1.044012 S    
C17   C45   1.414673 A    
C215  H172  1.110199 S    
C19   C35   1.399433 A    
H2    C144  1.083824 S    
C22   C42   1.415049 A    
O33   C77   1.268644 A    
C169  C199  1.430873 A    
C17   C33   1.399323 A    
N26   H83   1.044111 S    
C170  C200  1.430942 A    
N40   H111  1.045740 S    
Zn13  O35   1.941143 S    
C44   C148  1.425821 A    
C26   C38   1.400339 A    
Zn9   O12   1.945640 S    
C163  C195  1.429499 A    
Zn10  O11   1.945640 S    
Zn7   O3    1.950763 S    
Zn11  O2    1.960279 S    
H15   C129  1.083936 S    
C9    C49   1.421150 A    
C106  N26   1.431404 S    
C147  C148  1.417826 A    
C98   C130  1.387985 A    
Zn8   O4    1.950767 S    
C11   C51   1.424317 A    
N21   H73   1.044131 S    
C31   N47   1.437023 S    
C18   C46   1.414038 A    
C214  H170  1.110431 S    
C8    C208  1.520261 S    
C15   C55   1.421155 A    
C112  C144  1.386554 A    
N25   H81   1.043142 S    
N16   H63   1.043693 S    
H21   C123  1.083980 S    
C92   N12   1.429585 S    
C112  C169  1.436541 A    
Zn1   O47   1.940739 S    
C210  H157  1.110340 S    
C134  C139  1.373909 A    
C203  H135  1.110257 S    
H25   C119  1.083912 S    
C212  H164  1.110428 S    
C3    C203  1.520080 S    
C97   C184  1.442940 A    
Zn2   O48   1.940737 S    
C7    C47   1.421168 A    
C98   C183  1.445555 A    
C36   C58   1.459411 S    
C10   C13   1.409076 A    
N17   H66   1.041211 S    
N45   H121  1.045463 S    
C82   C114  1.395689 A    
O45   C67   1.276772 A    
O46   C68   1.298710 A    
C16   C216  1.518262 S    
C27   C55   1.411948 A    
