data_mof_unit_55103.cif
_audit_creation_date              2013-03-05T15:48:54-0500
_audit_creation_method            fapswitch 2.2
_symmetry_space_group_name_H-M    P1
_symmetry_Int_Tables_number       1
_space_group_crystal_system       triclinic
_cell_length_a                    18.322586
_cell_length_b                    18.340796
_cell_length_c                    50.476611
_cell_angle_alpha                 89.494439
_cell_angle_beta                  90.611012
_cell_angle_gamma                 119.803576
_cell_volume                      14718.1658956

loop_
_atom_site_label
_atom_site_type_symbol
_atom_site_description
_atom_site_fract_x
_atom_site_fract_y
_atom_site_fract_z
_atom_type_partial_charge
O1    O     O_R   0.475290 0.813700 0.278840 -0.478646
O2    O     O_R   0.475290 0.813700 0.221160 -0.486136
O3    O     O_R   0.448450 0.657720 0.276690 -0.445354
O4    O     O_R   0.448450 0.657720 0.223310 -0.461706
C1    C     C_R   0.408586 0.584415 0.288059 0.545157
C2    C     C_R   0.410091 0.583477 0.212881 0.556758
O5    O     O_R   0.338410 0.524710 0.278840 -0.526596
O6    O     O_R   0.338410 0.524710 0.221160 -0.528757
O7    O     O_R   0.209270 0.551550 0.276690 -0.491034
O8    O     O_R   0.209270 0.551550 0.223310 -0.492148
C3    C     C_R   0.177003 0.591903 0.288117 0.548499
C4    C     C_R   0.177413 0.592588 0.211806 0.543352
O9    O     O_R   0.186300 0.661590 0.278840 -0.499246
O10   O     O_R   0.186300 0.661590 0.221160 -0.513773
O11   O     O_R   0.342280 0.790730 0.276690 -0.460164
O12   O     O_R   0.342280 0.790730 0.223310 -0.455995
C5    C     C_R   0.415762 0.823360 0.288110 0.555751
C6    C     C_R   0.415825 0.826742 0.212536 0.577750
Cr1   Cr    Cr6+3 0.456550 0.732290 0.250000 1.032185
Cr2   Cr    Cr6+3 0.275740 0.543450 0.250000 0.997285
Cr3   Cr    Cr6+3 0.267710 0.724260 0.250000 1.054233
O13   O     O_3   0.333333 0.666667 0.250000 -0.243915
C7    C     C_R   0.029223 0.457923 0.408515 0.438487
C8    C     C_R   0.048775 0.478471 0.089421 0.438721
O14   O     O_2   0.969874 0.416130 0.393676 -0.512713
O15   O     O_2   0.000077 0.420531 0.103593 -0.530221
N1    N     N_R   0.105497 0.517348 0.398124 -0.349250
N2    N     N_R   0.109465 0.552612 0.100690 -0.332851
C9    C     C_R   0.172766 0.566687 0.414655 0.485725
C10   C     C_R   0.164529 0.619316 0.085082 0.455399
C11   C     C_R   0.125924 0.608002 0.359300 0.255496
C12   C     C_R   0.073080 0.580549 0.145148 0.289268
C13   C     C_R   0.141656 0.625335 0.332300 -0.134566
C14   C     C_R   0.087756 0.586408 0.172960 -0.176226
C15   C     C_R   0.124877 0.487334 0.325409 -0.164101
C16   C     C_R   0.195485 0.547815 0.167507 -0.145722
C17   C     C_R   0.111362 0.469796 0.352774 0.288505
C18   C     C_R   0.181400 0.541010 0.140226 0.239220
C19   C     C_R   0.113675 0.531373 0.369810 0.256308
C20   C     C_R   0.120784 0.557660 0.129045 0.279895
C21   C     C_R   0.086685 0.496569 0.453145 -0.065498
C22   C     C_R   0.099429 0.536487 0.045555 -0.056323
C23   C     C_R   0.019074 0.446126 0.436117 -0.023796
C24   C     C_R   0.043424 0.469095 0.061701 -0.032438
C25   C     C_R   0.941231 0.388202 0.446945 -0.112722
C26   C     C_R   0.982088 0.394617 0.049812 -0.096776
C27   C     C_R   0.163904 0.557902 0.442370 0.019016
C28   C     C_R   0.160238 0.612233 0.057288 0.024528
C29   C     C_R   0.143119 0.566073 0.315196 -0.079714
C30   C     C_R   0.149581 0.571295 0.184036 -0.068442
H1    H     H_    0.887526 0.355343 0.433905 0.155557
H2    H     H_    0.935676 0.343610 0.061798 0.175152
C31   C     C_R   0.889203 0.435195 0.691336 -0.035091
C32   C     C_R   0.880497 0.432408 0.810830 -0.007404
C33   C     C_R   0.995531 0.406753 0.519362 -0.007307
C34   C     C_R   0.044539 0.439743 0.978386 -0.034388
C35   C     C_R   0.126592 0.539899 0.525873 -0.004749
C36   C     C_R   0.131851 0.592123 0.973507 -0.023842
C37   C     C_R   0.054350 0.469472 0.536434 -0.012668
C38   C     C_R   0.084481 0.511699 0.962037 -0.012087
C39   C     C_R   0.936623 0.328896 0.530377 -0.108918
C40   C     C_R   0.013604 0.360393 0.966741 -0.126134
C41   C     C_R   0.923228 0.318001 0.557836 0.262659
C42   C     C_R   0.013786 0.351282 0.939232 0.271544
C43   C     C_R   0.973213 0.386443 0.574771 0.023980
C44   C     C_R   0.037062 0.422146 0.922692 0.036732
C45   C     C_R   0.041427 0.460519 0.564222 -0.141901
C46   C     C_R   0.074531 0.502977 0.934160 -0.132516
C47   C     C_R   0.096436 0.525680 0.581374 0.026003
C48   C     C_R   0.099383 0.574769 0.917993 0.030934
C49   C     C_R   0.080180 0.516815 0.608843 0.408240
C50   C     C_R   0.077542 0.563173 0.890754 0.421073
N3    N     N_R   0.007756 0.449432 0.618425 -0.383698
N4    N     N_R   0.031854 0.483203 0.880482 -0.381874
C51   C     C_R   0.955826 0.383540 0.602051 0.458410
C52   C     C_R   0.020283 0.414455 0.895235 0.484758
C53   C     C_R   0.968519 0.390006 0.663749 0.296948
C54   C     C_R   0.894052 0.415500 0.858038 0.278335
C55   C     C_R   0.921626 0.380226 0.686619 0.188211
C56   C     C_R   0.845645 0.388483 0.834545 0.179350
C57   C     C_R   0.913568 0.505343 0.674393 0.185023
C58   C     C_R   0.966801 0.492826 0.809669 0.169444
C59   C     C_R   0.958497 0.512527 0.651278 -0.141503
C60   C     C_R   0.017711 0.507796 0.832459 -0.132605
C61   C     C_R   0.980668 0.452087 0.644993 0.131872
C62   C     C_R   0.981689 0.468526 0.856635 0.142429
O16   O     O_2   0.892741 0.323791 0.611143 -0.501878
O17   O     O_2   0.991341 0.346040 0.884499 -0.470741
C63   C     C_R   0.000524 0.421360 0.491625 0.029163
C64   C     C_R   0.038437 0.449751 0.005964 0.003156
C65   C     C_R   0.076461 0.486929 0.481014 -0.008349
C66   C     C_R   0.094748 0.528130 0.017587 -0.001690
C67   C     C_R   0.141608 0.543940 0.498141 0.032906
C68   C     C_R   0.145642 0.598543 0.001334 0.026156
C69   C     C_R   0.930655 0.374834 0.474453 0.237363
C70   C     C_R   0.976610 0.385624 0.022307 0.240257
O18   O     O_2   0.240119 0.618608 0.405174 -0.450352
O19   O     O_2   0.217184 0.684673 0.095472 -0.494553
C71   C     C_R   0.230095 0.609738 0.459502 -0.117293
C72   C     C_R   0.216034 0.678603 0.040996 -0.137744
C73   C     C_R   0.179959 0.604809 0.543318 -0.124293
C74   C     C_R   0.160157 0.663232 0.956989 -0.136301
C75   C     C_R   0.163728 0.599535 0.570483 0.275794
C76   C     C_R   0.138784 0.655143 0.929971 0.285803
O20   O     O_2   0.130077 0.568815 0.624362 -0.520423
O21   O     O_2   0.097039 0.623742 0.876322 -0.484933
C77   C     C_R   0.219032 0.603500 0.486852 -0.140158
C78   C     C_R   0.207781 0.672762 0.013511 -0.148649
C79   C     C_R   0.349305 0.856918 0.412248 0.448213
C80   C     C_R   0.363139 0.928337 0.095093 0.412503
O22   O     O_2   0.282969 0.820252 0.399976 -0.475585
O23   O     O_2   0.299240 0.871537 0.104946 -0.505723
N5    N     N_R   0.425279 0.894499 0.398862 -0.370920
N6    N     N_R   0.433631 0.975346 0.110735 -0.379343
C81   C     C_R   0.500390 0.932835 0.413065 0.424276
C82   C     C_R   0.504904 0.041713 0.099892 0.416747
C83   C     C_R   0.483625 0.864730 0.359444 -0.049996
C84   C     C_R   0.498816 0.933230 0.146255 -0.077338
C85   C     C_R   0.488590 0.856650 0.332254 0.193172
C86   C     C_R   0.498355 0.903265 0.171826 0.214237
C87   C     C_R   0.373138 0.885240 0.325689 0.197955
C88   C     C_R   0.366297 0.900463 0.180569 0.195218
C89   C     C_R   0.373976 0.899583 0.353045 -0.058232
C90   C     C_R   0.372826 0.938495 0.155624 -0.073191
C91   C     C_R   0.427558 0.886927 0.370288 0.139186
C92   C     C_R   0.435547 0.949890 0.137826 0.140896
C93   C     C_R   0.424206 0.893121 0.454399 -0.033335
C94   C     C_R   0.440624 0.004936 0.055993 -0.041140
C95   C     C_R   0.348022 0.859752 0.440129 0.023204
C96   C     C_R   0.365491 0.943440 0.067632 0.017856
C97   C     C_R   0.272457 0.828012 0.454147 -0.129487
C98   C     C_R   0.295690 0.895179 0.051442 -0.154777
C99   C     C_R   0.500538 0.926045 0.440736 0.043199
C100  C     C_R   0.510059 0.056053 0.072383 0.027751
C101  C     C_R   0.427883 0.859053 0.315207 -0.000344
C102  C     C_R   0.428290 0.879349 0.188410 0.020029
H3    H     H_    0.331437 0.918977 0.360795 0.165417
H4    H     H_    0.327813 0.957273 0.149562 0.141529
C103  C     C_R   0.554145 0.125558 0.688457 -0.047457
C104  C     C_R   0.553569 0.122392 0.811292 -0.080830
C105  C     C_R   0.355118 0.898479 0.523238 0.022996
C106  C     C_R   0.383803 0.973319 0.983262 0.020145
C107  C     C_R   0.497815 0.916665 0.524673 0.021251
C108  C     C_R   0.536787 0.069504 0.988897 0.024927
C109  C     C_R   0.428525 0.914313 0.537743 -0.008072
C110  C     C_R   0.465904 0.021245 0.972302 -0.008280
C111  C     C_R   0.293580 0.911688 0.535952 0.233743
C112  C     C_R   0.313850 0.936708 0.965307 0.240322
C113  C     C_R   0.306541 0.938983 0.562445 -0.121459
C114  C     C_R   0.327705 0.932523 0.938263 -0.103587
C115  C     C_R   0.374944 0.946947 0.577426 -0.019287
C116  C     C_R   0.408176 0.975870 0.927560 -0.015051
C117  C     C_R   0.435305 0.932836 0.565160 -0.041317
C118  C     C_R   0.477514 0.021667 0.944446 -0.044652
C119  C     C_R   0.505415 0.942375 0.579852 0.036518
C120  C     C_R   0.558650 0.067809 0.933460 0.040326
C121  C     C_R   0.514575 0.966820 0.606488 0.461723
C122  C     C_R   0.568526 0.070349 0.905834 0.464236
N7    N     N_R   0.458357 0.986696 0.617727 -0.322351
N8    N     N_R   0.499184 0.028240 0.889515 -0.344029
C123  C     C_R   0.388040 0.975246 0.603889 0.419539
C124  C     C_R   0.420062 0.979022 0.899988 0.434416
C125  C     C_R   0.452235 0.996228 0.666507 0.254068
C126  C     C_R   0.482206 0.106877 0.853111 0.243941
C127  C     C_R   0.486197 0.043386 0.689778 -0.222190
C128  C     C_R   0.506260 0.143452 0.828000 -0.207061
C129  C     C_R   0.589061 0.161392 0.663863 0.224058
C130  C     C_R   0.570752 0.058008 0.818907 0.210479
C131  C     C_R   0.546547 0.119720 0.640390 0.251080
C132  C     C_R   0.548414 0.022336 0.844382 0.257222
C133  C     C_R   0.483181 0.034915 0.641802 0.234514
C134  C     C_R   0.507397 0.049838 0.861815 0.204844
O24   O     O_2   0.338077 0.991449 0.614434 -0.572166
O25   O     O_2   0.359852 0.940021 0.885167 -0.533726
C135  C     C_R   0.349780 0.876515 0.495980 0.026769
C136  C     C_R   0.375954 0.964303 0.011478 0.018523
C137  C     C_R   0.424393 0.895366 0.482444 0.021409
C138  C     C_R   0.447093 0.014042 0.027910 0.015095
C139  C     C_R   0.499548 0.918287 0.496693 0.017602
C140  C     C_R   0.525778 0.070823 0.016588 0.020660
C141  C     C_R   0.273415 0.837014 0.481584 -0.113139
C142  C     C_R   0.301178 0.903978 0.024040 -0.139250
H5    H     H_    0.213531 0.809657 0.491325 0.149112
H6    H     H_    0.247000 0.857831 0.013397 0.186185
O26   O     O_2   0.567310 0.973326 0.401546 -0.555034
O27   O     O_2   0.564303 0.087344 0.114204 -0.534948
C143  C     C_R   0.575491 0.952172 0.454998 -0.139203
C144  C     C_R   0.583994 0.118846 0.060881 -0.114351
H7    H     H_    0.524006 0.852313 0.372196 0.221433
H8    H     H_    0.548695 0.943122 0.132841 0.148295
H9    H     H_    0.635118 0.976758 0.444917 0.151120
H10   H     H_    0.637461 0.161130 0.072979 0.162498
C145  C     C_R   0.564689 0.921222 0.539996 -0.154105
C146  C     C_R   0.617427 0.112843 0.977309 -0.146305
C147  C     C_R   0.567519 0.932377 0.567222 -0.140452
C148  C     C_R   0.627963 0.112297 0.950185 -0.117693
O28   O     O_2   0.574472 0.973865 0.619482 -0.548817
O29   O     O_2   0.638450 0.112057 0.896196 -0.528579
C149  C     C_R   0.574780 0.946149 0.482476 -0.168585
C150  C     C_R   0.591844 0.125893 0.033547 -0.141871
H11   H     H_    0.615332 0.915768 0.531271 0.090820
H12   H     H_    0.674435 0.145903 0.988813 0.108910
H13   H     H_    0.634863 0.968752 0.492254 0.097390
H14   H     H_    0.650696 0.175448 0.026202 0.109456
C151  C     C_R   0.471040 0.662779 0.413155 0.457016
C152  C     C_R   0.585867 0.558839 0.103196 0.473307
O30   O     O_2   0.508567 0.729990 0.401645 -0.479977
O31   O     O_2   0.644251 0.613078 0.116073 -0.505806
N9    N     N_R   0.423446 0.588622 0.399101 -0.363932
N10   N     N_R   0.511525 0.502953 0.115627 -0.340591
C153  C     C_R   0.354337 0.526566 0.412543 0.471900
C154  C     C_R   0.451709 0.432965 0.102085 0.439174
C155  C     C_R   0.390861 0.500028 0.357271 0.247617
C156  C     C_R   0.461261 0.464401 0.162197 0.272623
C157  C     C_R   0.382684 0.501358 0.329756 -0.198672
C158  C     C_R   0.434958 0.485145 0.185786 -0.223039
C159  C     C_R   0.505657 0.638375 0.328192 0.262399
C160  C     C_R   0.490732 0.628182 0.170521 0.215992
C161  C     C_R   0.509184 0.639663 0.356189 0.307182
C162  C     C_R   0.501698 0.604316 0.145205 0.238324
C163  C     C_R   0.440063 0.577361 0.371095 0.147453
C164  C     C_R   0.492314 0.523923 0.141313 0.207069
C165  C     C_R   0.417778 0.587333 0.454806 -0.059878
C166  C     C_R   0.530037 0.486957 0.061461 -0.055194
C167  C     C_R   0.472950 0.661599 0.441155 0.014589
C168  C     C_R   0.593211 0.555282 0.075614 0.034655
C169  C     C_R   0.529273 0.732299 0.455696 -0.121699
C170  C     C_R   0.661109 0.619049 0.061863 -0.114522
C171  C     C_R   0.356164 0.520176 0.440328 -0.033326
C172  C     C_R   0.463498 0.421690 0.075301 -0.024176
C173  C     C_R   0.434524 0.573901 0.315192 -0.095230
C174  C     C_R   0.446866 0.566006 0.189625 -0.069890
C175  C     C_R   0.568019 0.442945 0.687855 -0.025519
C176  C     C_R   0.574203 0.437397 0.813670 -0.026643
C177  C     C_R   0.506029 0.638066 0.523294 -0.022656
C178  C     C_R   0.593858 0.555151 0.991457 -0.026508
C179  C     C_R   0.371995 0.504004 0.524831 0.054842
C180  C     C_R   0.467702 0.414323 0.991563 0.040350
C181  C     C_R   0.448418 0.564684 0.537198 -0.036983
C182  C     C_R   0.531795 0.484265 0.977580 -0.039178
C183  C     C_R   0.582139 0.695428 0.535944 -0.127019
C184  C     C_R   0.647032 0.628248 0.976844 -0.131908
C185  C     C_R   0.601781 0.681984 0.561706 0.268457
C186  C     C_R   0.646260 0.629680 0.949095 0.276789
C187  C     C_R   0.545569 0.608261 0.575569 0.046627
C188  C     C_R   0.590735 0.556052 0.935115 0.044108
C189  C     C_R   0.467800 0.551232 0.563541 -0.091774
C190  C     C_R   0.531906 0.484487 0.949408 -0.097494
C191  C     C_R   0.410157 0.479204 0.577541 -0.022957
C192  C     C_R   0.471916 0.413178 0.935548 -0.018225
C193  C     C_R   0.432461 0.461350 0.602551 0.440204
C194  C     C_R   0.479019 0.408775 0.908057 0.447516
N11   N     N_R   0.509147 0.516037 0.613941 -0.379120
N12   N     N_R   0.538600 0.477635 0.894156 -0.369857
C195  C     C_R   0.564947 0.589395 0.601093 0.412932
C196  C     C_R   0.591765 0.551765 0.907150 0.428525
C197  C     C_R   0.597284 0.477560 0.641232 -0.148727
C198  C     C_R   0.628850 0.481324 0.858052 -0.124885
C199  C     C_R   0.615312 0.451337 0.665251 -0.186157
C200  C     C_R   0.640632 0.466049 0.831986 -0.151833
C201  C     C_R   0.502240 0.461200 0.686235 -0.124983
C202  C     C_R   0.496753 0.428139 0.821425 -0.149662
C203  C     C_R   0.485009 0.489595 0.662329 0.311183
C204  C     C_R   0.484277 0.443972 0.847831 0.325242
C205  C     C_R   0.531437 0.495628 0.639418 0.231312
C206  C     C_R   0.550871 0.469512 0.866329 0.253941
O32   O     O_2   0.631222 0.638103 0.611998 -0.514574
O33   O     O_2   0.641012 0.613214 0.894309 -0.480415
C207  C     C_R   0.488426 0.649821 0.496670 0.021270
C208  C     C_R   0.596699 0.553560 0.019543 0.021828
C209  C     C_R   0.422543 0.581550 0.482788 -0.021651
C210  C     C_R   0.532891 0.483953 0.033481 -0.020741
C211  C     C_R   0.363980 0.506974 0.496482 0.045354
C212  C     C_R   0.471769 0.411603 0.019779 0.032086
C213  C     C_R   0.537129 0.726576 0.482970 -0.136756
C214  C     C_R   0.662678 0.618606 0.034332 -0.143289
O34   O     O_2   0.289644 0.479729 0.400637 -0.482277
O35   O     O_2   0.386896 0.382024 0.113018 -0.554796
C215  C     C_R   0.300116 0.446268 0.453379 -0.136824
C216  C     C_R   0.411514 0.346144 0.062299 -0.139424
C217  C     C_R   0.307176 0.443747 0.541464 0.315899
C218  C     C_R   0.397521 0.354152 0.976634 0.301246
C219  C     C_R   0.330067 0.427704 0.566798 -0.129598
C220  C     C_R   0.404065 0.349297 0.949281 -0.102599
O36   O     O_2   0.384050 0.396455 0.614118 -0.531571
O37   O     O_2   0.433616 0.342861 0.896558 -0.547331
C221  C     C_R   0.304813 0.436239 0.481097 0.300982
C222  C     C_R   0.419562 0.337920 0.034851 0.291284
O38   O     O_R   0.524710 0.338410 0.721160 -0.499832
O39   O     O_R   0.524710 0.338410 0.778840 -0.518120
O40   O     O_R   0.551550 0.209270 0.723310 -0.490639
O41   O     O_R   0.551550 0.209270 0.776690 -0.507347
C223  C     C_R   0.590058 0.174177 0.712719 0.582090
C224  C     C_R   0.590398 0.173974 0.787366 0.571171
O42   O     O_R   0.661590 0.186300 0.721160 -0.502898
O43   O     O_R   0.661590 0.186300 0.778840 -0.483587
O44   O     O_R   0.790730 0.342280 0.723310 -0.456914
O45   O     O_R   0.790730 0.342280 0.776690 -0.500221
C225  C     C_R   0.827801 0.416960 0.713013 0.572516
C226  C     C_R   0.825897 0.415992 0.787416 0.608429
O46   O     O_R   0.813700 0.475290 0.721160 -0.462735
O47   O     O_R   0.813700 0.475290 0.778840 -0.480316
O48   O     O_R   0.657720 0.448450 0.723310 -0.492367
O49   O     O_R   0.657720 0.448450 0.776690 -0.492378
C227  C     C_R   0.583774 0.409026 0.712392 0.542648
C228  C     C_R   0.584489 0.408734 0.787648 0.541896
Cr4   Cr    Cr6+3 0.543450 0.275740 0.750000 1.009729
Cr5   Cr    Cr6+3 0.724260 0.267710 0.750000 1.021626
Cr6   Cr    Cr6+3 0.732290 0.456550 0.750000 1.053157
O50   O     O_3   0.666667 0.333333 0.750000 -0.236820
H15   H     H_    0.123624 0.440556 0.312217 0.126125
H16   H     H_    0.245802 0.539186 0.175514 0.153322
O51   O     O_3   0.130553 0.669584 0.375917 -0.502294
C229  C     C_3   0.048748 0.656770 0.379620 0.013072
H17   H     H_    0.002529 0.589779 0.384223 0.141006
H18   H     H_    0.027843 0.676163 0.361412 0.126055
C230  C     C_3   0.050503 0.710287 0.402902 -0.237444
H19   H     H_    0.071995 0.691316 0.421033 0.171221
H20   H     H_    0.095717 0.777556 0.398731 0.193863
C231  C     C_3   0.963717 0.699668 0.407876 -0.499333
H21   H     H_    0.941417 0.719411 0.390130 0.142711
H22   H     H_    0.967226 0.739298 0.424886 0.145384
H23   H     H_    0.917878 0.633068 0.412631 0.154435
O52   O     O_3   0.011196 0.591926 0.132598 -0.539557
C232  C     C_3   0.992650 0.648967 0.145489 0.015756
H24   H     H_    0.984851 0.687732 0.129894 0.159800
H25   H     H_    0.044350 0.694920 0.158477 0.108224
C233  C     C_3   0.909061 0.600452 0.160230 -0.257058
H26   H     H_    0.857787 0.564810 0.145634 0.193007
H27   H     H_    0.911267 0.554466 0.174198 0.166219
C234  C     C_3   0.888772 0.659279 0.175634 -0.482928
H28   H     H_    0.935398 0.690025 0.191845 0.136481
H29   H     H_    0.825371 0.622655 0.184543 0.160097
H30   H     H_    0.889223 0.707996 0.162290 0.156381
H31   H     H_    0.290578 0.656594 0.451790 0.165103
H32   H     H_    0.266392 0.735490 0.049507 0.155857
H33   H     H_    0.231787 0.663077 0.536164 0.115668
H34   H     H_    0.192660 0.726002 0.965053 0.140718
O53   O     O_3   0.897397 0.568977 0.681218 -0.538696
C235  C     C_3   0.840997 0.574515 0.663013 0.021995
H35   H     H_    0.786676 0.567619 0.674544 0.169558
H36   H     H_    0.815350 0.524612 0.647489 0.107174
C236  C     C_3   0.883334 0.661330 0.649885 -0.288173
H37   H     H_    0.907493 0.710611 0.665427 0.178869
H38   H     H_    0.937369 0.669783 0.637860 0.149536
C237  C     C_3   0.821746 0.672408 0.632032 -0.450013
H39   H     H_    0.797178 0.624204 0.616173 0.169300
H40   H     H_    0.854262 0.735630 0.622656 0.153403
H41   H     H_    0.768335 0.666697 0.643849 0.188079
O54   O     O_3   0.997978 0.540606 0.786763 -0.545483
C238  C     C_3   0.066304 0.534339 0.776701 0.003409
H42   H     H_    0.052489 0.467937 0.776633 0.112535
H43   H     H_    0.124043 0.573244 0.788651 0.135354
C239  C     C_3   0.082863 0.567762 0.748233 -0.244415
H44   H     H_    0.024567 0.533112 0.736166 0.169627
H45   H     H_    0.100871 0.635273 0.748176 0.180650
C240  C     C_3   0.153064 0.558403 0.735589 -0.501019
H46   H     H_    0.213055 0.596171 0.746597 0.148719
H47   H     H_    0.161808 0.580944 0.714755 0.147595
H48   H     H_    0.136921 0.491491 0.735641 0.130797
O55   O     O_3   0.211421 0.669293 0.586126 -0.530885
C241  C     C_3   0.172284 0.719283 0.586358 0.023495
H49   H     H_    0.102371 0.682087 0.583796 0.113247
H50   H     H_    0.198540 0.765731 0.570025 0.118136
C242  C     C_3   0.190694 0.765977 0.612686 -0.234986
H51   H     H_    0.170470 0.720296 0.629297 0.207926
H52   H     H_    0.259340 0.809622 0.614739 0.194244
C243  C     C_3   0.143399 0.814641 0.614736 -0.471731
H53   H     H_    0.158679 0.858676 0.597860 0.150981
H54   H     H_    0.161292 0.851352 0.633358 0.160369
H55   H     H_    0.074498 0.770550 0.614848 0.128959
O56   O     O_3   0.156696 0.726270 0.915256 -0.513586
C244  C     C_3   0.100774 0.755470 0.922193 0.024597
H56   H     H_    0.127330 0.820530 0.914440 0.145077
H57   H     H_    0.095403 0.759452 0.944032 0.127273
C245  C     C_3   0.013400 0.701860 0.909564 -0.250422
H58   H     H_    0.019260 0.702969 0.887670 0.217389
H59   H     H_    0.984725 0.635801 0.916606 0.153684
C246  C     C_3   0.954552 0.734771 0.916601 -0.511585
H60   H     H_    0.946622 0.733570 0.938412 0.139190
H61   H     H_    0.892223 0.693957 0.907248 0.149531
H62   H     H_    0.979780 0.799993 0.909117 0.145987
H63   H     H_    0.973205 0.563421 0.637504 0.137317
H64   H     H_    0.084400 0.552114 0.831727 0.162962
H65   H     H_    0.272883 0.644863 0.498822 0.117490
H66   H     H_    0.252768 0.725939 0.002040 0.114851
O57   O     O_3   0.313412 0.890248 0.309978 -0.553884
C247  C     C_3   0.352178 0.964085 0.294253 0.022336
H67   H     H_    0.313675 0.951743 0.275937 0.165035
H68   H     H_    0.416762 0.981292 0.287646 0.101022
C248  C     C_3   0.353958 0.037739 0.308938 -0.276641
H69   H     H_    0.289242 0.019819 0.315286 0.173473
H70   H     H_    0.394515 0.052823 0.326879 0.152460
C249  C     C_3   0.388018 0.115860 0.291370 -0.483842
H71   H     H_    0.453204 0.135589 0.285100 0.148230
H72   H     H_    0.388805 0.168057 0.302593 0.144291
H73   H     H_    0.347471 0.103076 0.273528 0.144899
O58   O     O_3   0.305464 0.891245 0.198676 -0.565965
C250  C     C_3   0.223616 0.853892 0.187393 0.020826
H74   H     H_    0.181300 0.799930 0.200178 0.167352
H75   H     H_    0.218268 0.827225 0.167204 0.145042
C251  C     C_3   0.192334 0.917350 0.187372 -0.274788
H76   H     H_    0.190265 0.936250 0.208094 0.167053
H77   H     H_    0.236268 0.974682 0.176158 0.158415
C252  C     C_3   0.104825 0.880336 0.175017 -0.492582
H78   H     H_    0.105407 0.861447 0.154204 0.155557
H79   H     H_    0.084326 0.928022 0.175138 0.148031
H80   H     H_    0.059239 0.824844 0.186594 0.138373
H81   H     H_    0.212367 0.797997 0.443902 0.146702
H82   H     H_    0.236881 0.847464 0.059886 0.172338
O59   O     O_3   0.089953 0.391354 0.363176 -0.536024
C253  C     C_3   0.148914 0.366039 0.356509 0.046137
H83   H     H_    0.171517 0.351818 0.375286 0.215925
H84   H     H_    0.205718 0.414918 0.346025 0.158597
C254  C     C_3   0.105607 0.285462 0.340130 -0.283445
H85   H     H_    0.051791 0.236071 0.351476 0.178887
H86   H     H_    0.080760 0.297063 0.321368 0.156957
C255  C     C_3   0.166265 0.253854 0.333645 -0.475281
H87   H     H_    0.218717 0.300655 0.321302 0.153837
H88   H     H_    0.132403 0.194178 0.322413 0.139910
H89   H     H_    0.192299 0.242097 0.352137 0.165937
O60   O     O_3   0.233045 0.526797 0.123895 -0.585038
C256  C     C_3   0.201986 0.439481 0.121907 -0.001607
H90   H     H_    0.131847 0.401798 0.122691 0.159155
H91   H     H_    0.228593 0.419079 0.138403 0.141859
C257  C     C_3   0.229815 0.421786 0.095437 -0.238210
H92   H     H_    0.206142 0.445351 0.078986 0.163288
H93   H     H_    0.299595 0.455744 0.094588 0.188357
C258  C     C_3   0.196271 0.327936 0.091619 -0.459521
H94   H     H_    0.216460 0.302003 0.108300 0.180222
H95   H     H_    0.220996 0.317575 0.072908 0.137908
H96   H     H_    0.126477 0.293938 0.090484 0.146205
H97   H     H_    0.463632 0.014434 0.708969 0.105346
H98   H     H_    0.493563 0.193275 0.822439 0.155623
O61   O     O_3   0.399638 0.910057 0.667757 -0.551673
C259  C     C_3   0.320441 0.890960 0.677824 0.009847
H99   H     H_    0.286356 0.907955 0.662857 0.172334
H100  H     H_    0.325849 0.924691 0.696617 0.117361
C260  C     C_3   0.269850 0.796602 0.683525 -0.267898
H101  H     H_    0.266582 0.761202 0.665417 0.178498
H102  H     H_    0.302341 0.780274 0.699238 0.164239
C261  C     C_3   0.180772 0.769890 0.692588 -0.477262
H103  H     H_    0.182711 0.802254 0.711297 0.149021
H104  H     H_    0.145695 0.701015 0.696127 0.163565
H105  H     H_    0.146708 0.785100 0.677173 0.152141
O62   O     O_3   0.445368 0.135290 0.871116 -0.534344
C262  C     C_3   0.368820 0.125393 0.860910 0.036999
H106  H     H_    0.335355 0.069032 0.847899 0.135283
H107  H     H_    0.381515 0.182545 0.849446 0.135076
C263  C     C_3   0.311110 0.114540 0.884065 -0.236090
H108  H     H_    0.299021 0.058046 0.895782 0.180655
H109  H     H_    0.342288 0.170135 0.897263 0.209186
C264  C     C_3   0.227352 0.104156 0.874366 -0.497142
H110  H     H_    0.237394 0.161938 0.863906 0.142718
H111  H     H_    0.185735 0.092559 0.891562 0.138216
H112  H     H_    0.195663 0.049697 0.860757 0.154886
H113  H     H_    0.264636 0.957753 0.571024 0.150989
H114  H     H_    0.274082 0.897954 0.925325 0.176940
O63   O     O_3   0.231860 0.916425 0.521087 -0.570249
C265  C     C_3   0.151030 0.859429 0.530986 -0.010506
H115  H     H_    0.140860 0.880081 0.550546 0.123874
H116  H     H_    0.142227 0.794945 0.532763 0.107872
C266  C     C_3   0.084535 0.856249 0.511752 -0.251661
H117  H     H_    0.091408 0.919826 0.510006 0.174077
H118  H     H_    0.093856 0.836941 0.491834 0.161042
C267  C     C_3   0.995851 0.794235 0.521173 -0.482693
H119  H     H_    0.987104 0.729882 0.522565 0.149526
H120  H     H_    0.949094 0.793498 0.506842 0.149268
H121  H     H_    0.984471 0.813067 0.540880 0.149550
O64   O     O_3   0.231745 0.903809 0.973989 -0.613303
C268  C     C_3   0.192921 0.947398 0.962781 -0.003705
H122  H     H_    0.123801 0.906047 0.964673 0.142066
H123  H     H_    0.204800 0.960495 0.941232 0.108705
C269  C     C_3   0.218540 0.029012 0.977716 -0.256294
H124  H     H_    0.199247 0.013862 0.998745 0.158099
H125  H     H_    0.287942 0.070411 0.977067 0.182044
C270  C     C_3   0.176976 0.075878 0.965450 -0.489310
H126  H     H_    0.197766 0.093620 0.944638 0.148486
H127  H     H_    0.195068 0.134064 0.976766 0.171964
H128  H     H_    0.107403 0.035951 0.965847 0.136782
O65   O     O_3   0.544895 0.833366 0.323073 -0.482872
C271  C     C_3   0.628534 0.901066 0.325154 0.051078
H129  H     H_    0.669396 0.874308 0.330558 0.183898
H130  H     H_    0.638214 0.947437 0.340914 0.119331
C272  C     C_3   0.657002 0.946053 0.298406 -0.263529
H131  H     H_    0.648329 0.899823 0.282859 0.181991
H132  H     H_    0.617877 0.974858 0.293068 0.153390
C273  C     C_3   0.749302 0.014492 0.299218 -0.500436
H133  H     H_    0.759473 0.062293 0.314361 0.160278
H134  H     H_    0.767743 0.045889 0.279569 0.143246
H135  H     H_    0.789746 0.986746 0.303959 0.141279
O66   O     O_3   0.565092 0.893432 0.179862 -0.547040
C274  C     C_3   0.625601 0.966870 0.193139 0.009006
H136  H     H_    0.650949 0.946843 0.210025 0.145658
H137  H     H_    0.599423 0.004750 0.201925 0.116086
C275  C     C_3   0.698082 0.021591 0.174478 -0.273808
H138  H     H_    0.722564 0.982944 0.165493 0.160061
H139  H     H_    0.674993 0.046581 0.158315 0.187912
C276  C     C_3   0.769528 0.095185 0.189194 -0.476064
H140  H     H_    0.746683 0.135281 0.198102 0.155482
H141  H     H_    0.820771 0.133906 0.175123 0.160322
H142  H     H_    0.795255 0.071844 0.205073 0.136772
O67   O     O_3   0.666301 0.235122 0.663387 -0.583657
C277  C     C_3   0.728239 0.222241 0.650921 0.049980
H143  H     H_    0.788267 0.282578 0.651841 0.189026
H144  H     H_    0.714843 0.208750 0.629514 0.196616
C278  C     C_3   0.742189 0.154259 0.664502 -0.254375
H145  H     H_    0.767352 0.174673 0.684832 0.221507
H146  H     H_    0.682231 0.093775 0.666051 0.170707
C279  C     C_3   0.802863 0.137398 0.648765 -0.427329
H147  H     H_    0.776627 0.113547 0.628717 0.179360
H148  H     H_    0.812675 0.089348 0.659183 0.134310
H149  H     H_    0.864395 0.195507 0.646707 0.245727
O68   O     O_3   0.618483 0.036896 0.803035 -0.543333
C280  C     C_3   0.567138 0.983436 0.782551 0.027006
H150  H     H_    0.531511 0.009661 0.771957 0.112260
H151  H     H_    0.521765 0.920745 0.790860 0.123364
C281  C     C_3   0.622999 0.972901 0.762471 -0.248693
H152  H     H_    0.669298 0.035519 0.754362 0.179579
H153  H     H_    0.658109 0.945439 0.772527 0.169155
C282  C     C_3   0.571299 0.915896 0.739662 -0.481883
H154  H     H_    0.525274 0.852504 0.747248 0.142602
H155  H     H_    0.613748 0.909506 0.725510 0.152735
H156  H     H_    0.537142 0.943141 0.728958 0.157567
H157  H     H_    0.621098 0.937909 0.578141 0.135126
H158  H     H_    0.691128 0.147242 0.942340 0.164610
O69   O     O_3   0.573567 0.155989 0.615602 -0.584546
C283  C     C_3   0.564223 0.227786 0.612557 -0.005832
H159  H     H_    0.614118 0.271844 0.598900 0.144138
H160  H     H_    0.572915 0.263234 0.631244 0.160449
C284  C     C_3   0.478411 0.203128 0.600230 -0.276661
H161  H     H_    0.470313 0.168461 0.581476 0.183226
H162  H     H_    0.428008 0.161324 0.614127 0.202165
C285  C     C_3   0.469938 0.280416 0.594490 -0.460731
H163  H     H_    0.476789 0.315068 0.613122 0.190799
H164  H     H_    0.406969 0.260694 0.585766 0.177636
H165  H     H_    0.518745 0.322814 0.580245 0.142596
O70   O     O_3   0.576618 0.968877 0.853079 -0.535931
C286  C     C_3   0.508300 0.885797 0.853748 0.020034
H166  H     H_    0.471909 0.868927 0.834778 0.115430
H167  H     H_    0.465564 0.877935 0.870336 0.174401
C287  C     C_3   0.542235 0.825528 0.858181 -0.253169
H168  H     H_    0.584911 0.832414 0.841666 0.179631
H169  H     H_    0.578891 0.841659 0.877014 0.193700
C288  C     C_3   0.471190 0.734396 0.859568 -0.461337
H170  H     H_    0.428485 0.725768 0.876242 0.167005
H171  H     H_    0.498015 0.692419 0.862824 0.187980
H172  H     H_    0.434610 0.716354 0.840733 0.146767
O71   O     O_3   0.570413 0.702842 0.314189 -0.487476
C289  C     C_3   0.616275 0.671361 0.300823 0.018341
H173  H     H_    0.576612 0.624664 0.285521 0.116315
H174  H     H_    0.640259 0.641205 0.315026 0.098601
C290  C     C_3   0.691182 0.744232 0.287077 -0.248673
H175  H     H_    0.668051 0.774390 0.272645 0.158077
H176  H     H_    0.731267 0.791798 0.302068 0.159482
C291  C     C_3   0.743915 0.714198 0.272508 -0.494289
H177  H     H_    0.766827 0.682809 0.286511 0.145176
H178  H     H_    0.799228 0.768795 0.263446 0.142911
H179  H     H_    0.706040 0.669579 0.256563 0.145266
O72   O     O_3   0.521376 0.712153 0.176164 -0.511885
C292  C     C_3   0.610773 0.753964 0.177428 0.080309
H180  H     H_    0.635650 0.814752 0.166785 0.194288
H181  H     H_    0.639817 0.720531 0.167437 0.140094
C293  C     C_3   0.640710 0.769849 0.206321 -0.257605
H182  H     H_    0.610572 0.800648 0.216863 0.212557
H183  H     H_    0.622088 0.708895 0.216317 0.144170
C294  C     C_3   0.736011 0.825825 0.208202 -0.514964
H184  H     H_    0.767807 0.794169 0.199106 0.153986
H185  H     H_    0.755394 0.838798 0.229309 0.139485
H186  H     H_    0.756241 0.886728 0.197978 0.146091
O73   O     O_3   0.584038 0.696496 0.368250 -0.497428
C295  C     C_3   0.635393 0.659538 0.372181 0.011633
H187  H     H_    0.698237 0.703242 0.363788 0.148509
H188  H     H_    0.612323 0.597813 0.362042 0.073485
C296  C     C_3   0.645424 0.648340 0.401823 -0.252436
H189  H     H_    0.666512 0.708882 0.412197 0.188103
H190  H     H_    0.583907 0.600699 0.410091 0.150667
C297  C     C_3   0.709257 0.619281 0.406913 -0.492053
H191  H     H_    0.688825 0.558236 0.396987 0.142883
H192  H     H_    0.714534 0.611102 0.428540 0.152088
H193  H     H_    0.772079 0.666711 0.399392 0.144989
O74   O     O_3   0.528440 0.662401 0.124731 -0.544069
C298  C     C_3   0.459363 0.669543 0.115352 0.029779
H194  H     H_    0.432812 0.690671 0.131387 0.187091
H195  H     H_    0.409271 0.608031 0.107485 0.150933
C299  C     C_3   0.488944 0.734566 0.093008 -0.271121
H196  H     H_    0.540931 0.795523 0.100390 0.180086
H197  H     H_    0.513114 0.713107 0.076448 0.172782
C300  C     C_3   0.417594 0.747603 0.082763 -0.450394
H198  H     H_    0.364831 0.687379 0.075289 0.177048
H199  H     H_    0.440606 0.794099 0.066291 0.143157
H200  H     H_    0.394627 0.771941 0.098836 0.211242
H201  H     H_    0.570282 0.791378 0.445885 0.157082
H202  H     H_    0.712086 0.671142 0.072301 0.155047
H203  H     H_    0.663957 0.434183 0.665979 0.126522
H204  H     H_    0.700611 0.472540 0.826489 0.151502
H205  H     H_    0.632819 0.481261 0.623770 0.126000
H206  H     H_    0.680062 0.500144 0.872110 0.121018
O75   O     O_3   0.680369 0.736961 0.572148 -0.530263
C301  C     C_3   0.682365 0.811733 0.579920 0.027699
H207  H     H_    0.627043 0.797969 0.592438 0.143577
H208  H     H_    0.683176 0.848415 0.562134 0.107314
C302  C     C_3   0.762446 0.864673 0.596131 -0.249208
H209  H     H_    0.762168 0.828624 0.613993 0.191404
H210  H     H_    0.818228 0.878301 0.584045 0.166539
C303  C     C_3   0.769598 0.947518 0.604825 -0.491519
H211  H     H_    0.772821 0.985929 0.587267 0.146254
H212  H     H_    0.827816 0.983633 0.616800 0.148792
H213  H     H_    0.714805 0.935548 0.617135 0.182795
O76   O     O_3   0.690823 0.705604 0.935676 -0.521627
C304  C     C_3   0.778456 0.743744 0.940535 0.019062
H214  H     H_    0.809267 0.752574 0.921056 0.172949
H215  H     H_    0.797703 0.705570 0.953079 0.099809
C305  C     C_3   0.810588 0.830488 0.952878 -0.259197
H216  H     H_    0.794009 0.869015 0.939684 0.186855
H217  H     H_    0.780033 0.823918 0.972306 0.156289
C306  C     C_3   0.905830 0.876156 0.956943 -0.496667
H218  H     H_    0.924117 0.838899 0.970084 0.142632
H219  H     H_    0.926725 0.938066 0.966311 0.146600
H220  H     H_    0.938102 0.886891 0.937620 0.142697
H221  H     H_    0.630598 0.749354 0.525684 0.108752
H222  H     H_    0.686648 0.687132 0.986575 0.108703
O77   O     O_3   0.899387 0.310089 0.702294 -0.545420
C307  C     C_3   0.950665 0.333498 0.725231 0.026980
H223  H     H_    0.946912 0.383662 0.736327 0.126669
H224  H     H_    0.017257 0.355975 0.719824 0.117040
C308  C     C_3   0.919886 0.256539 0.743290 -0.242627
H225  H     H_    0.851265 0.228793 0.746726 0.183429
H226  H     H_    0.930374 0.208614 0.733417 0.158114
C309  C     C_3   0.965383 0.279052 0.770008 -0.497240
H227  H     H_    0.034508 0.309974 0.767215 0.138617
H228  H     H_    0.944651 0.221036 0.781972 0.144659
H229  H     H_    0.949902 0.321665 0.781038 0.141068
O78   O     O_3   0.763565 0.321700 0.834411 -0.578879
C310  C     C_3   0.759972 0.247158 0.844354 0.064282
H230  H     H_    0.693201 0.197296 0.844166 0.177181
H231  H     H_    0.779207 0.252662 0.865447 0.223326
C311  C     C_3   0.810260 0.217594 0.827610 -0.276619
H232  H     H_    0.785578 0.205032 0.807020 0.212292
H233  H     H_    0.877654 0.266842 0.826966 0.151884
C312  C     C_3   0.805285 0.138240 0.839268 -0.429446
H234  H     H_    0.834241 0.151152 0.859363 0.187130
H235  H     H_    0.839903 0.117103 0.826389 0.138217
H236  H     H_    0.738967 0.087113 0.840636 0.235816
H237  H     H_    0.582135 0.783367 0.492929 0.104035
H238  H     H_    0.717394 0.669487 0.025153 0.100561
H239  H     H_    0.335612 0.445251 0.319841 0.150119
H240  H     H_    0.408013 0.439694 0.201675 0.129137
O79   O     O_3   0.351156 0.422074 0.369594 -0.552194
C313  C     C_3   0.411244 0.404875 0.381593 0.015014
H241  H     H_    0.377515 0.353618 0.396265 0.153045
H242  H     H_    0.460607 0.459122 0.392947 0.115278
C314  C     C_3   0.451470 0.374967 0.360992 -0.284104
H243  H     H_    0.401330 0.319983 0.350201 0.167329
H244  H     H_    0.487230 0.426033 0.346427 0.142260
C315  C     C_3   0.511481 0.350201 0.374075 -0.482641
H245  H     H_    0.562819 0.404819 0.384629 0.143697
H246  H     H_    0.539723 0.329103 0.358697 0.149204
H247  H     H_    0.477127 0.297923 0.388373 0.150355
O80   O     O_3   0.465260 0.390898 0.159745 -0.523234
C316  C     C_3   0.391269 0.318326 0.168452 0.046375
H248  H     H_    0.370660 0.270958 0.152387 0.179871
H249  H     H_    0.336900 0.328354 0.172006 0.117691
C317  C     C_3   0.410948 0.281580 0.193062 -0.276367
H250  H     H_    0.461660 0.267307 0.188359 0.184506
H251  H     H_    0.433679 0.328069 0.209398 0.155491
C318  C     C_3   0.333552 0.201100 0.202333 -0.490540
H252  H     H_    0.282419 0.214103 0.207604 0.144314
H253  H     H_    0.349979 0.175972 0.220114 0.149430
H254  H     H_    0.310877 0.152805 0.186512 0.146157
H255  H     H_    0.256704 0.394864 0.441082 0.138108
H256  H     H_    0.368735 0.292902 0.074181 0.140421
O81   O     O_3   0.223630 0.407491 0.532552 -0.534709
C319  C     C_3   0.160961 0.357824 0.551289 0.008550
H257  H     H_    0.102305 0.356007 0.544921 0.151919
H258  H     H_    0.174003 0.386524 0.571348 0.116514
C320  C     C_3   0.142015 0.266281 0.551204 -0.268128
H259  H     H_    0.109528 0.236034 0.532424 0.156523
H260  H     H_    0.200848 0.263016 0.552364 0.179656
C321  C     C_3   0.084977 0.216338 0.574115 -0.487927
H261  H     H_    0.118745 0.239945 0.593214 0.144970
H262  H     H_    0.066742 0.149113 0.572235 0.149703
H263  H     H_    0.027026 0.221442 0.573975 0.182549
O82   O     O_3   0.320419 0.302361 0.988223 -0.561499
C322  C     C_3   0.267312 0.337622 0.985240 -0.018033
H264  H     H_    0.201400 0.284783 0.985153 0.136566
H265  H     H_    0.276141 0.371803 0.966077 0.119356
C323  C     C_3   0.278388 0.395289 0.008584 -0.267217
H266  H     H_    0.272526 0.361462 0.027491 0.165027
H267  H     H_    0.341820 0.452033 0.007899 0.158462
C324  C     C_3   0.212595 0.423110 0.007875 -0.471884
H268  H     H_    0.217543 0.457696 0.989191 0.161373
H269  H     H_    0.222913 0.465348 0.024858 0.152353
H270  H     H_    0.148409 0.367721 0.009381 0.148919
H271  H     H_    0.464257 0.453322 0.703481 0.119470
H272  H     H_    0.446345 0.408397 0.807005 0.109813
H273  H     H_    0.285462 0.375958 0.578768 0.136930
H274  H     H_    0.352540 0.298213 0.938658 0.147984
O83   O     O_3   0.417589 0.503624 0.660871 -0.555650
C325  C     C_3   0.447404 0.591007 0.661643 -0.004978
H275  H     H_    0.505485 0.628070 0.649705 0.152477
H276  H     H_    0.461211 0.612806 0.682546 0.126360
C326  C     C_3   0.379296 0.607900 0.650439 -0.258066
H277  H     H_    0.364376 0.584483 0.629732 0.186336
H278  H     H_    0.321246 0.573525 0.662441 0.169760
C327  C     C_3   0.407618 0.701508 0.650498 -0.445132
H279  H     H_    0.420642 0.726063 0.671068 0.155472
H280  H     H_    0.357126 0.711302 0.641864 0.187807
H281  H     H_    0.465184 0.737082 0.638386 0.164886
O84   O     O_3   0.410920 0.442308 0.855510 -0.551724
C328  C     C_3   0.338409 0.363873 0.850028 0.032700
H282  H     H_    0.305580 0.338003 0.869071 0.175976
H283  H     H_    0.351479 0.315363 0.841675 0.118326
C329  C     C_3   0.279202 0.377038 0.831571 -0.278650
H284  H     H_    0.265074 0.423939 0.840400 0.182390
H285  H     H_    0.310145 0.401758 0.812178 0.155583
C330  C     C_3   0.196847 0.295086 0.827150 -0.488160
H286  H     H_    0.209236 0.247517 0.817959 0.144093
H287  H     H_    0.155253 0.306659 0.813709 0.151513
H288  H     H_    0.163968 0.270197 0.846277 0.149537
O85   O     O_3   0.263725 0.356946 0.493234 -0.532774
C331  C     C_3   0.192338 0.293368 0.479678 0.024731
H289  H     H_    0.169703 0.234833 0.491489 0.145104
H290  H     H_    0.209238 0.277604 0.460346 0.108112
C332  C     C_3   0.119390 0.312427 0.477458 -0.261651
H291  H     H_    0.102580 0.324094 0.497366 0.194955
H292  H     H_    0.137418 0.369372 0.465289 0.169919
C333  C     C_3   0.041676 0.239296 0.464913 -0.492415
H293  H     H_    0.056076 0.227569 0.444595 0.159873
H294  H     H_    0.990232 0.254566 0.463662 0.148916
H295  H     H_    0.019890 0.181553 0.477115 0.136568
O86   O     O_3   0.391119 0.259630 0.023037 -0.523799
C334  C     C_3   0.315268 0.194193 0.033692 0.035376
H296  H     H_    0.276142 0.155943 0.016888 0.168881
H297  H     H_    0.275934 0.216471 0.043620 0.108986
C335  C     C_3   0.333594 0.137080 0.051538 -0.279199
H298  H     H_    0.361009 0.106645 0.039366 0.184950
H299  H     H_    0.380265 0.174428 0.067121 0.172782
C336  C     C_3   0.253731 0.069293 0.064699 -0.480413
H300  H     H_    0.224898 0.098442 0.076840 0.144755
H301  H     H_    0.269316 0.030141 0.077885 0.170700
H302  H     H_    0.207771 0.028195 0.049475 0.146448
O87   O     O_3   0.993445 0.331873 0.658428 -0.535265
C337  C     C_3   0.082070 0.370170 0.660123 0.014350
H303  H     H_    0.099508 0.358551 0.680237 0.124807
H304  H     H_    0.116096 0.439515 0.656683 0.152120
C338  C     C_3   0.111477 0.330020 0.639581 -0.278595
H305  H     H_    0.082581 0.261650 0.643799 0.171425
H306  H     H_    0.090499 0.338086 0.619564 0.177235
C339  C     C_3   0.206941 0.369755 0.639745 -0.443687
H307  H     H_    0.236609 0.436380 0.633261 0.173337
H308  H     H_    0.225196 0.335290 0.625817 0.185436
H309  H     H_    0.230243 0.366347 0.659865 0.184756
O88   O     O_3   0.857115 0.388680 0.882633 -0.549201
C340  C     C_3   0.814462 0.432430 0.889108 0.011343
H310  H     H_    0.756872 0.409869 0.876597 0.169074
H311  H     H_    0.855654 0.501615 0.886278 0.117977
C341  C     C_3   0.788777 0.415950 0.918225 -0.254505
H312  H     H_    0.749868 0.347127 0.921698 0.192950
H313  H     H_    0.846207 0.440388 0.930866 0.161923
C342  C     C_3   0.738535 0.458243 0.926179 -0.485358
H314  H     H_    0.775495 0.527047 0.922496 0.145872
H315  H     H_    0.723463 0.447477 0.947595 0.147613
H316  H     H_    0.678538 0.431252 0.914813 0.164259
O89   O     O_3   0.870303 0.239347 0.569064 -0.545921
C343  C     C_3   0.790112 0.194913 0.556702 0.022735
H317  H     H_    0.755158 0.133632 0.567203 0.157707
H318  H     H_    0.793787 0.178532 0.535877 0.098259
C344  C     C_3   0.738992 0.240242 0.559117 -0.256260
H319  H     H_    0.737613 0.256488 0.580188 0.195282
H320  H     H_    0.768813 0.299236 0.547277 0.171301
C345  C     C_3   0.648929 0.184932 0.549145 -0.461432
H321  H     H_    0.648851 0.167394 0.528124 0.144234
H322  H     H_    0.613954 0.219766 0.550528 0.149303
H323  H     H_    0.616157 0.126937 0.561369 0.188264
O90   O     O_3   0.980002 0.271438 0.928577 -0.517661
C346  C     C_3   0.033575 0.237795 0.933831 0.017969
H324  H     H_    0.994505 0.168295 0.932626 0.155959
H325  H     H_    0.061564 0.251826 0.954141 0.090486
C347  C     C_3   0.103237 0.267697 0.913068 -0.255400
H326  H     H_    0.074646 0.252964 0.892913 0.200576
H327  H     H_    0.145072 0.336820 0.914597 0.156672
C348  C     C_3   0.155692 0.224816 0.917014 -0.502591
H328  H     H_    0.186325 0.239845 0.936824 0.147583
H329  H     H_    0.205274 0.247042 0.901710 0.149381
H330  H     H_    0.115166 0.155652 0.915247 0.142547
H331  H     H_    0.905127 0.275227 0.517557 0.134697
H332  H     H_    0.990858 0.304548 0.978858 0.171791
O91   O     O_3   0.850341 0.331632 0.485260 -0.579964
C349  C     C_3   0.797822 0.252760 0.473208 -0.011769
H333  H     H_    0.773730 0.204552 0.489171 0.132582
H334  H     H_    0.830326 0.232500 0.458958 0.111383
C350  C     C_3   0.722649 0.253608 0.459986 -0.261311
H335  H     H_    0.692269 0.275188 0.474504 0.180712
H336  H     H_    0.744291 0.298143 0.443002 0.162266
C351  C     C_3   0.657641 0.166539 0.450194 -0.467320
H337  H     H_    0.686642 0.142317 0.436103 0.174207
H338  H     H_    0.605488 0.169866 0.439918 0.159734
H339  H     H_    0.631250 0.122728 0.467261 0.154942
O92   O     O_3   0.907065 0.315151 0.012097 -0.589609
C352  C     C_3   0.850139 0.337721 0.000493 0.008278
H340  H     H_    0.805569 0.284265 0.987956 0.153055
H341  H     H_    0.881511 0.392950 0.986968 0.133446
C353  C     C_3   0.800033 0.353760 0.021598 -0.279294
H342  H     H_    0.773853 0.301207 0.036125 0.171842
H343  H     H_    0.842379 0.412583 0.032436 0.167626
C354  C     C_3   0.728579 0.362661 0.009095 -0.474670
H344  H     H_    0.754313 0.417053 0.995243 0.145952
H345  H     H_    0.693016 0.373247 0.024838 0.169105
H346  H     H_    0.684641 0.304746 0.998124 0.154123
H347  H     H_    0.156631 0.686990 0.325068 0.181739
H348  H     H_    0.052457 0.603168 0.186178 0.112187

loop_
_geom_bond_atom_site_label_1
_geom_bond_atom_site_label_2
_geom_bond_distance
_ccdc_geom_bond_type
C248  C249  1.526194 S    
C327  H280  1.110527 S    
C294  H184  1.110845 S    
C296  H190  1.110263 S    
C12   C14   1.421476 A    
C311  H232  1.108341 S    
C16   H16   1.083675 S    
C332  C333  1.524716 S    
C33   C37   1.411599 A    
C348  H330  1.110289 S    
C131  C133  1.406063 A    
C290  H175  1.111550 S    
C106  C110  1.427008 A    
C146  C148  1.385518 A    
C284  H161  1.111854 S    
C333  H295  1.110744 S    
O63   C265  1.415432 S    
C132  O70   1.382883 S    
C335  H298  1.110290 S    
C41   C43   1.415864 A    
O81   C319  1.418093 S    
C328  H282  1.109735 S    
O48   C227  1.295959 A    
C300  H198  1.111343 S    
C259  H99   1.112275 S    
C136  C142  1.415151 A    
C339  H309  1.110772 S    
C337  H304  1.116514 S    
C240  H46   1.110707 S    
C329  H285  1.110763 S    
C322  C323  1.533534 S    
C225  O46   1.290411 A    
O10   Cr3   1.986014 S    
C351  H337  1.110823 S    
C125  C127  1.407995 A    
C60   C62   1.404485 A    
C83   C85   1.390486 A    
C287  H168  1.111795 S    
C278  H146  1.110165 S    
C327  H281  1.111128 S    
C119  C121  1.402806 A    
C276  H140  1.110878 S    
N2    C20   1.441188 S    
O38   C227  1.285028 A    
C340  H310  1.113485 S    
C304  H214  1.108937 S    
C160  O72   1.383122 S    
C288  H172  1.110891 S    
C7    C23   1.408137 A    
O56   C244  1.419786 S    
C305  C306  1.526888 S    
C295  H188  1.118977 S    
C314  H243  1.111663 S    
C39   C41   1.405316 A    
C169  C213  1.391174 A    
C74   H34   1.080421 S    
N12   C196  1.383187 Am   
C156  C164  1.414863 A    
C120  C122  1.405497 A    
C323  C324  1.524833 S    
C59   H63   1.081573 S    
C283  H159  1.110502 S    
C292  H181  1.117635 S    
C349  C350  1.531129 S    
N4    C52   1.382174 Am   
C152  C168  1.405330 A    
C184  C186  1.400707 A    
C216  H256  1.080047 S    
O3    Cr1   1.864811 S    
O74   C298  1.412140 S    
C354  H346  1.110813 S    
C153  C171  1.407793 A    
O44   Cr5   1.874970 S    
C293  C294  1.525858 S    
C105  C109  1.422646 A    
C324  H270  1.110774 S    
C321  H262  1.110293 S    
O42   Cr5   1.991368 S    
C196  O33   1.221991 D    
C73   C75   1.398500 A    
Cr3   O13   1.955521 S    
C318  H254  1.111084 S    
N3    C51   1.380871 Am   
C113  C115  1.401337 A    
C192  C220  1.398195 A    
C345  H323  1.110911 S    
C243  H53   1.106546 S    
C190  C192  1.406726 A    
C256  C257  1.528797 S    
C319  H258  1.112884 S    
C53   C55   1.402615 A    
C28   C72   1.402269 A    
C180  C182  1.423761 A    
C53   O87   1.381745 S    
O39   C228  1.286999 A    
C266  H117  1.111657 S    
C231  H23   1.111018 S    
C100  C144  1.397380 A    
C197  C205  1.402980 A    
C235  H35   1.109655 S    
C135  C137  1.414675 A    
C244  C245  1.536442 S    
C49   N3    1.376651 Am   
C303  H213  1.110862 S    
O3    C1    1.299845 A    
C229  H17   1.116076 S    
O43   Cr5   1.990005 S    
C249  H73   1.111010 S    
C275  C276  1.525729 S    
C172  C216  1.395926 A    
C42   C44   1.416188 A    
C264  H112  1.110746 S    
C176  C200  1.400422 A    
C262  H107  1.112430 S    
C165  C209  1.420502 A    
C343  H317  1.111546 S    
C3    C29   1.480686 S    
C106  C112  1.430225 A    
C166  C210  1.416409 A    
C319  C320  1.536301 S    
C64   C66   1.415237 A    
C110  C118  1.423737 A    
C317  C318  1.526423 S    
C308  C309  1.525764 S    
C44   C52   1.409399 A    
C284  C285  1.525776 S    
C66   C68   1.418072 A    
O88   C340  1.412411 S    
N8    C134  1.438784 S    
O9    Cr3   1.994444 S    
C54   O88   1.384721 S    
C87   C101  1.418270 A    
C303  H212  1.110355 S    
C88   C102  1.421888 A    
O72   C292  1.423060 S    
C304  H215  1.117276 S    
C193  N11   1.379423 Am   
C50   O21   1.220302 D    
C240  H48   1.110262 S    
C58   C60   1.413134 A    
C274  H137  1.118294 S    
C211  C221  1.436381 A    
C290  C291  1.526146 S    
C208  C210  1.417618 A    
C242  C243  1.526664 S    
C35   C37   1.417052 A    
C212  C222  1.425632 A    
O57   C247  1.416114 S    
C335  C336  1.525112 S    
C32   C226  1.473045 S    
C256  H90   1.117351 S    
C12   C20   1.409530 A    
C16   C30   1.403719 A    
C277  H143  1.107427 S    
C175  C201  1.403544 A    
C300  H200  1.111296 S    
C15   C17   1.411763 A    
C250  H75   1.116405 S    
C339  H307  1.110057 S    
N12   C206  1.445467 S    
C111  C113  1.407921 A    
O2    Cr1   1.982218 S    
C351  H339  1.109962 S    
C175  C227  1.470260 S    
C315  H245  1.110940 S    
C298  C299  1.527984 S    
C148  H158  1.083967 S    
C281  H152  1.112104 S    
O38   Cr4   1.977476 S    
C271  C272  1.530798 S    
C306  H218  1.110890 S    
C279  H149  1.106263 S    
C55   O77   1.383727 S    
C214  H238  1.078361 S    
O41   C224  1.288356 A    
N7    C123  1.380717 Am   
C326  C327  1.526852 S    
C218  O82   1.383512 S    
C270  H127  1.109081 S    
C316  H248  1.111193 S    
C3    O9    1.287084 A    
C269  H124  1.110873 S    
C41   O89   1.396164 S    
C170  C214  1.390499 A    
C283  C284  1.530079 S    
C183  H221  1.078219 S    
C273  H133  1.110847 S    
C122  O29   1.223016 D    
C22   C66   1.418454 A    
C115  C117  1.405520 A    
O54   C238  1.412841 S    
C84   C86   1.396880 A    
C78   H66   1.080271 S    
C87   C89   1.406452 A    
C310  H231  1.107474 S    
C249  H71   1.110886 S    
C105  C111  1.425334 A    
C15   H15   1.081767 S    
C324  H268  1.110921 S    
C97   H81   1.083080 S    
C26   C70   1.396211 A    
C301  H207  1.116682 S    
C299  C300  1.525712 S    
C33   C63   1.418526 A    
C267  H119  1.111042 S    
C294  H186  1.110736 S    
C197  C199  1.396225 A    
C318  H252  1.110845 S    
C328  H283  1.116814 S    
C285  H163  1.110366 S    
C193  O36   1.222126 D    
C45   C47   1.412786 A    
C242  H51   1.108105 S    
C192  C194  1.401891 A    
C243  H55   1.110391 S    
C268  C269  1.530748 S    
N8    C124  1.379503 Am   
C136  C138  1.423887 A    
N5    C81   1.388647 Am   
C147  H157  1.080875 S    
C263  H109  1.111188 S    
C188  C190  1.413742 A    
C320  H259  1.108927 S    
N10   C164  1.451158 S    
C2    C174  1.474089 S    
N1    C9    1.384533 Am   
C84   H8    1.082949 S    
C198  C200  1.388834 A    
C238  H42   1.113965 S    
C235  C236  1.529914 S    
C280  C281  1.527889 S    
C281  C282  1.526246 S    
C238  C239  1.530233 S    
C145  H11   1.080151 S    
C129  C131  1.413948 A    
C56   O78   1.389561 S    
C258  H94   1.110490 S    
C187  C195  1.417804 A    
C159  O71   1.383462 S    
C334  H296  1.105937 S    
C299  H197  1.112082 S    
C9    C27   1.408642 A    
C10   C28   1.407870 A    
C353  H342  1.110067 S    
O40   C223  1.289741 A    
C112  C114  1.400866 A    
C268  H123  1.112080 S    
C199  H203  1.082874 S    
C289  H173  1.113203 S    
N6    C92   1.446756 S    
C156  C158  1.413250 A    
C297  H193  1.110809 S    
C108  C146  1.414145 A    
C241  H49   1.119094 S    
C114  H114  1.080821 S    
C250  H74   1.110734 S    
C286  H167  1.111150 S    
C113  H113  1.080770 S    
C334  H297  1.114241 S    
C27   C71   1.403027 A    
C85   O65   1.383148 S    
C230  H20   1.111723 S    
C344  H319  1.110976 S    
C232  H25   1.113707 S    
C17   O59   1.389042 S    
C309  H227  1.110876 S    
C177  C183  1.411993 A    
C279  H148  1.110310 S    
C37   C45   1.419425 A    
C204  O84   1.388474 S    
C248  H70   1.111097 S    
C108  C140  1.416518 A    
O90   C346  1.417126 S    
C137  C139  1.413886 A    
C285  H165  1.110839 S    
C5    C101  1.487761 S    
C40   C42   1.400281 A    
C254  H86   1.110411 S    
C6    C102  1.494092 S    
C159  C173  1.411039 A    
C107  C139  1.412754 A    
C63   C65   1.417814 A    
C346  H324  1.111016 S    
C80   N6    1.385013 Am   
C121  O28   1.223305 D    
O46   Cr6   1.997544 S    
C259  C260  1.529484 S    
O39   Cr4   1.997692 S    
O48   Cr6   1.861824 S    
C352  H340  1.110235 S    
C323  H267  1.110387 S    
C53   C61   1.405652 A    
C151  O30   1.217887 D    
O91   C349  1.417035 S    
C86   O66   1.378280 S    
C286  C287  1.527881 S    
O44   C225  1.295264 A    
C232  H24   1.110965 S    
C315  H247  1.110834 S    
C129  O67   1.389196 S    
C307  H223  1.112553 S    
C57   C59   1.402280 A    
Cr5   O50   1.955692 S    
O65   C271  1.417254 S    
C255  H88   1.110279 S    
C47   C75   1.413629 A    
C316  C317  1.531187 S    
C167  C169  1.398391 A    
C306  H220  1.110339 S    
C72   C78   1.393284 A    
C289  C290  1.527072 S    
C345  H322  1.110157 S    
C313  H241  1.110913 S    
C252  H80   1.108975 S    
O8    Cr2   1.860562 S    
O64   C268  1.419131 S    
O52   C232  1.415452 S    
C246  H62   1.110593 S    
C276  H141  1.110351 S    
C350  H335  1.111933 S    
C171  C215  1.393174 A    
C273  H135  1.110981 S    
C186  O76   1.389063 S    
C325  H275  1.115807 S    
C309  H229  1.110249 S    
C215  C221  1.416800 A    
C158  C174  1.402549 A    
C93   C95   1.406777 A    
C272  H131  1.111358 S    
C140  C150  1.412797 A    
C125  O61   1.384201 S    
C94   C100  1.409809 A    
C241  H50   1.107025 S    
C255  H89   1.111059 S    
C234  H29   1.110427 S    
C152  N10   1.385202 Am   
C237  H40   1.110446 S    
C301  C302  1.528886 S    
C150  H14   1.074542 S    
C160  C174  1.400802 A    
C275  H139  1.110589 S    
O85   C331  1.420431 S    
C21   C27   1.409464 A    
C22   C28   1.408494 A    
C347  H326  1.111413 S    
C305  H217  1.110063 S    
C23   C25   1.400633 A    
N3    C61   1.444450 S    
O41   Cr4   1.862756 S    
C83   H7    1.080935 S    
C191  C193  1.408089 A    
C204  C206  1.412543 A    
C21   C65   1.418992 A    
C317  H251  1.110187 S    
O76   C304  1.416238 S    
C320  C321  1.524525 S    
N10   C154  1.384640 Am   
C236  H38   1.109622 S    
C79   C95   1.409643 A    
O60   C256  1.412179 S    
C338  C339  1.524253 S    
C349  H334  1.115320 S    
C126  C134  1.402865 A    
C183  C185  1.397842 A    
Cr2   O13   1.962163 S    
C88   C90   1.411057 A    
C280  H150  1.115152 S    
C198  C206  1.402277 A    
C209  C211  1.428359 A    
O82   C322  1.417194 S    
C237  H41   1.110826 S    
C90   C92   1.396918 A    
C251  H76   1.111736 S    
C169  H201  1.083082 S    
C258  H96   1.110780 S    
C51   O16   1.221015 D    
C348  H329  1.108826 S    
C341  H312  1.111991 S    
C323  H266  1.110285 S    
C311  H233  1.110550 S    
C287  C288  1.526480 S    
C253  C254  1.529406 S    
C179  C211  1.440190 A    
C8    N2    1.380666 Am   
C116  C118  1.405275 A    
C233  H26   1.111735 S    
C335  H299  1.110003 S    
N6    C82   1.382020 Am   
O67   C277  1.422675 S    
C245  C246  1.520542 S    
C64   C70   1.423211 A    
C312  H234  1.110984 S    
C217  C219  1.415055 A    
C329  C330  1.526483 S    
C35   C73   1.411292 A    
C89   H3    1.082402 S    
C331  H290  1.110011 S    
C12   O52   1.395722 S    
Cr4   O50   1.960144 S    
C194  O37   1.221814 D    
C312  H236  1.108410 S    
C351  H338  1.110301 S    
O68   C280  1.412688 S    
C155  C157  1.396672 A    
C1    O5    1.290559 A    
C287  H169  1.111819 S    
C188  C196  1.415286 A    
C87   O57   1.383857 S    
C247  C248  1.532570 S    
C33   C39   1.407069 A    
O47   Cr6   1.978687 S    
C130  C132  1.406858 A    
C288  H171  1.110648 S    
C186  C188  1.411530 A    
C203  O83   1.382497 S    
C346  C347  1.533258 S    
C80   O23   1.222366 D    
C98   H82   1.083704 S    
C99   C143  1.401701 A    
C296  H189  1.111706 S    
C13   H347  1.083379 S    
C155  O79   1.385751 S    
C176  C202  1.402505 A    
C336  H302  1.110517 S    
C283  H160  1.114660 S    
C292  H180  1.108546 S    
C353  C354  1.527106 S    
C202  H272  1.082496 S    
C286  H166  1.115242 S    
C261  H103  1.110682 S    
C83   C91   1.397273 A    
C176  C228  1.467323 S    
C307  C308  1.529143 S    
C324  H269  1.110563 S    
C341  C342  1.527596 S    
C25   C69   1.406489 A    
C332  H292  1.107838 S    
C149  H13   1.079688 S    
C220  H274  1.084185 S    
C318  H253  1.110568 S    
C242  H52   1.109655 S    
C21   C23   1.407616 A    
C253  H84   1.114822 S    
C297  H192  1.110350 S    
C54   C62   1.406455 A    
C243  H54   1.108841 S    
C1    C173  1.487056 S    
C161  O73   1.382184 S    
C246  H60   1.110657 S    
C256  H91   1.112747 S    
N9    C163  1.486805 S    
C293  H182  1.108527 S    
C350  C351  1.524381 S    
C103  C127  1.400226 A    
O70   C286  1.412031 S    
O12   Cr3   1.876843 S    
N7    C133  1.439798 S    
C325  C326  1.529489 S    
C165  C167  1.407680 A    
C90   H4    1.080545 S    
C120  C148  1.396622 A    
C235  H36   1.117939 S    
C131  O69   1.387213 S    
C334  C335  1.532310 S    
C314  H244  1.111374 S    
C81   O26   1.222887 D    
C48   C76   1.417163 A    
C317  H250  1.111693 S    
C89   C91   1.407140 A    
C82   C100  1.406376 A    
C257  H92   1.112124 S    
C88   O58   1.392111 S    
C13   C29   1.404823 A    
C348  H328  1.109088 S    
C146  H12   1.076838 S    
C352  C353  1.535980 S    
O66   C274  1.417114 S    
C181  C189  1.423487 A    
C352  H341  1.113522 S    
C229  H18   1.113610 S    
C264  H111  1.108944 S    
C343  H318  1.107705 S    
C98   C142  1.390041 A    
C155  C163  1.429803 A    
C24   C26   1.401115 A    
C43   C45   1.415974 A    
C112  O64   1.387938 S    
C266  C267  1.526408 S    
C338  H305  1.111672 S    
C151  C167  1.413656 A    
C36   C74   1.408094 A    
C117  C119  1.410453 A    
C125  C133  1.406965 A    
C118  C120  1.411512 A    
C177  C207  1.418179 A    
C229  C230  1.527645 S    
C111  O63   1.388450 S    
C327  H279  1.110883 S    
C72   H32   1.080258 S    
C296  C297  1.526047 S    
O73   C295  1.418438 S    
C121  N7    1.380266 Am   
C274  H136  1.110280 S    
C122  N8    1.379371 Am   
C126  C128  1.397810 A    
C290  H176  1.111731 S    
C260  H102  1.111786 S    
C278  H145  1.109451 S    
C330  H287  1.110571 S    
O45   C226  1.294451 A    
C233  C234  1.525293 S    
C170  H202  1.083580 S    
C226  O47   1.285075 A    
C198  H206  1.082270 S    
C32   C56   1.406287 A    
C189  C191  1.404477 A    
C104  C128  1.402130 A    
O49   Cr6   1.880912 S    
C339  H308  1.108451 S    
O1    Cr1   1.996138 S    
C329  H284  1.111813 S    
C301  H208  1.112862 S    
C262  H106  1.117673 S    
C93   C137  1.416466 A    
C248  H69   1.111565 S    
C50   N4    1.380043 Am   
C141  H5    1.075796 S    
C217  O81   1.402321 S    
C354  H344  1.110657 S    
C298  H195  1.115198 S    
C345  H321  1.111226 S    
C310  C311  1.542303 S    
C2    O6    1.287579 A    
C81   C99   1.401262 A    
C330  H286  1.110913 S    
C82   O27   1.222815 D    
O5    Cr2   1.975782 S    
C281  H153  1.111679 S    
C326  H277  1.112087 S    
C215  H255  1.077576 S    
C295  H187  1.111208 S    
C153  O34   1.218957 D    
C250  C251  1.531724 S    
C231  H22   1.110402 S    
C63   C69   1.421872 A    
C96   C98   1.397173 A    
C268  H122  1.111186 S    
C326  H278  1.111846 S    
O71   C289  1.412789 S    
C58   O54   1.389126 S    
C166  C172  1.400024 A    
C259  H100  1.113499 S    
C127  H97   1.082823 S    
O7    Cr2   1.881151 S    
C269  H125  1.111427 S    
O53   C235  1.416012 S    
C77   H65   1.079561 S    
C292  C293  1.531101 S    
C42   O90   1.386589 S    
C39   H331  1.076728 S    
O6    Cr2   1.998173 S    
C249  H72   1.110533 S    
C124  O25   1.223025 D    
C108  C110  1.420911 A    
C321  H261  1.108147 S    
C59   C61   1.396816 A    
C340  H311  1.116809 S    
C267  H120  1.110364 S    
C187  C189  1.415708 A    
O40   Cr4   1.880524 S    
C8    C24   1.407690 A    
C285  H164  1.110407 S    
C314  C315  1.525491 S    
O4    C2    1.295633 A    
C159  C161  1.413851 A    
C302  H210  1.111709 S    
C331  C332  1.543295 S    
C32   C58   1.410976 A    
C291  H177  1.110848 S    
C158  H240  1.081368 S    
C269  C270  1.527558 S    
C194  N12   1.381762 Am   
C319  H257  1.103040 S    
O55   C241  1.417382 S    
O11   C5    1.300669 A    
C10   O19   1.222044 D    
C253  H83   1.110180 S    
C191  C219  1.397819 A    
C284  H162  1.110529 S    
C76   O56   1.386966 S    
C177  C181  1.416033 A    
C332  H291  1.107408 S    
C93   C99   1.403587 A    
C333  H294  1.109823 S    
C280  H151  1.112578 S    
C313  C314  1.534172 S    
C94   C96   1.405171 A    
C252  H78   1.110970 S    
C300  H199  1.110813 S    
C138  C140  1.415713 A    
C238  H43   1.111653 S    
C9    O18   1.222753 D    
C267  H121  1.110988 S    
C71   C77   1.392935 A    
C311  C312  1.525450 S    
C144  H10   1.083714 S    
C160  C162  1.402772 A    
C184  H222  1.075650 S    
C239  H45   1.111697 S    
C344  C345  1.527355 S    
C353  H343  1.111071 S    
C262  C263  1.528654 S    
O83   C325  1.413809 S    
C17   C19   1.409098 A    
C234  H28   1.109871 S    
C231  H21   1.110856 S    
C302  C303  1.526786 S    
C289  H174  1.113954 S    
C97   C141  1.395055 A    
C115  C123  1.411671 A    
O51   C229  1.411334 S    
O89   C343  1.418270 S    
C139  C149  1.410915 A    
C162  O74   1.384019 S    
N2    C10   1.381412 Am   
C337  H303  1.111426 S    
C80   C96   1.408089 A    
C54   C56   1.410491 A    
C126  O62   1.387167 S    
C293  H183  1.111460 S    
C303  H211  1.110892 S    
C31   C57   1.415532 A    
C85   C101  1.416789 A    
C282  H155  1.110343 S    
C119  C147  1.399933 A    
C263  C264  1.525196 S    
C34   C38   1.411367 A    
C298  H194  1.115046 S    
C304  C305  1.531190 S    
N5    C91   1.453224 S    
C265  H115  1.110681 S    
C38   C46   1.417170 A    
C247  H68   1.116439 S    
C271  H129  1.111012 S    
C274  C275  1.530790 S    
C143  C149  1.390102 A    
O59   C253  1.416000 S    
C182  C190  1.422002 A    
C144  C150  1.386981 A    
C132  C134  1.411487 A    
C86   C102  1.413436 A    
C180  C212  1.427126 A    
C322  H265  1.116527 S    
C116  C124  1.407206 A    
C308  H225  1.112188 S    
O45   Cr5   1.873644 S    
C241  C242  1.528631 S    
C156  O80   1.392637 S    
C104  C130  1.414313 A    
C157  H239  1.082088 S    
C130  O68   1.383352 S    
C236  H37   1.111649 S    
C22   C24   1.408590 A    
C60   H64   1.080863 S    
O62   C262  1.413745 S    
C69   O91   1.393297 S    
C230  C231  1.526216 S    
O77   C307  1.411422 S    
C221  O85   1.401007 S    
C260  H101  1.109596 S    
C162  C164  1.412301 A    
C310  H230  1.104941 S    
C75   O55   1.384093 S    
Cr6   O50   1.962583 S    
C306  H219  1.110399 S    
C68   C78   1.409331 A    
C342  H314  1.111160 S    
C270  H126  1.110839 S    
C195  O32   1.221361 D    
C230  H19   1.112056 S    
C295  C296  1.529994 S    
C157  C173  1.397934 A    
C325  H276  1.112816 S    
C31   C55   1.424303 A    
O75   C301  1.412529 S    
C201  C203  1.403986 A    
C270  H128  1.110860 S    
C316  H249  1.115749 S    
C104  C224  1.473622 S    
C246  H61   1.110128 S    
C252  H79   1.110286 S    
C65   C67   1.420816 A    
C25   H1    1.080920 S    
C178  C184  1.410719 A    
O69   C283  1.416646 S    
C107  C145  1.409146 A    
C179  C181  1.426024 A    
C26   H2    1.083756 S    
C123  O24   1.221989 D    
C18   O60   1.381493 S    
C165  C171  1.393439 A    
C47   C49   1.412195 A    
C57   O53   1.386199 S    
C79   O22   1.221470 D    
C70   O92   1.385815 S    
O4    Cr1   1.879904 S    
C321  H263  1.111246 S    
C336  H300  1.110820 S    
N1    C19   1.446040 S    
C145  C147  1.387849 A    
C328  C329  1.529043 S    
O80   C316  1.418234 S    
C11   C13   1.396839 A    
C49   O20   1.220756 D    
O84   C328  1.417904 S    
C7    N1    1.381110 Am   
C213  H237  1.078979 S    
C179  C217  1.427218 A    
C282  H154  1.110827 S    
C52   O17   1.222205 D    
C143  H9    1.083490 S    
C291  H179  1.110991 S    
C79   N5    1.388326 Am   
C223  O42   1.284070 A    
C109  C117  1.417272 A    
C276  H142  1.111031 S    
C34   C64   1.418487 A    
C263  H108  1.111881 S    
C344  H320  1.111008 S    
C320  H260  1.109856 S    
C18   C20   1.402163 A    
C35   C67   1.423672 A    
C338  H306  1.111796 S    
C305  H216  1.111698 S    
C106  C136  1.432838 A    
C273  H134  1.110476 S    
O86   C334  1.416903 S    
C234  H30   1.110967 S    
C36   C38   1.412791 A    
C251  H77   1.109910 S    
C258  H95   1.109637 S    
C341  H313  1.112297 S    
C14   C30   1.403044 A    
C308  H226  1.111566 S    
C299  H196  1.112322 S    
C207  C213  1.415455 A    
C185  O75   1.384855 S    
C208  C214  1.415865 A    
C291  H178  1.109976 S    
Cr1   O13   1.960732 S    
C333  H293  1.110776 S    
C233  H27   1.110365 S    
C260  C261  1.526528 S    
C302  H209  1.111885 S    
C103  C223  1.465162 S    
C309  H228  1.110382 S    
C247  H67   1.111172 S    
C202  C204  1.411574 A    
C343  C344  1.536772 S    
N11   C205  1.446706 S    
C201  H271  1.083398 S    
C337  C338  1.525635 S    
C178  C182  1.415459 A    
C245  H59   1.110830 S    
C240  H47   1.110250 S    
C232  C233  1.532651 S    
C103  C129  1.402484 A    
C15   C29   1.404891 A    
C279  H147  1.111271 S    
C161  C163  1.429122 A    
C251  C252  1.524713 S    
C154  C172  1.404537 A    
C216  C222  1.412164 A    
N11   C195  1.381109 Am   
C254  H85   1.111691 S    
C265  C266  1.528260 S    
C151  N9    1.392245 Am   
C340  C341  1.529167 S    
C178  C208  1.418692 A    
C288  H170  1.110964 S    
C354  H345  1.110500 S    
C40   H332  1.080240 S    
N4    C62   1.449982 S    
C74   C76   1.403459 A    
C200  H204  1.083867 S    
C346  H325  1.114655 S    
O8    C4    1.290815 A    
C218  C220  1.394607 A    
C210  C212  1.419784 A    
C180  C218  1.422201 A    
C336  H301  1.109786 S    
C4    O10   1.286507 A    
C239  H44   1.110816 S    
C168  C170  1.398222 A    
O7    C3    1.296058 A    
C114  C116  1.393572 A    
C94   C138  1.425131 A    
C31   C225  1.490155 S    
C261  H104  1.110012 S    
C175  C199  1.400608 A    
O87   C337  1.414858 S    
C265  H116  1.114274 S    
C245  H58   1.110533 S    
C266  H118  1.111510 S    
C255  H87   1.109903 S    
C219  H273  1.078474 S    
C330  H288  1.111194 S    
C107  C109  1.418392 A    
C322  H264  1.110952 S    
C342  H316  1.110550 S    
C71   H31   1.083874 S    
C142  H6    1.073250 S    
C73   H33   1.079794 S    
O58   C250  1.417765 S    
C347  H327  1.111398 S    
O2    C6    1.296508 A    
C166  C168  1.406006 A    
C277  C278  1.545261 S    
C294  H185  1.109179 S    
C128  H98   1.083210 S    
C44   C46   1.413923 A    
C350  H336  1.110096 S    
C239  C240  1.526480 S    
C84   C92   1.399122 A    
O79   C313  1.416372 S    
C271  H130  1.116497 S    
C43   C51   1.411223 A    
C135  C141  1.410898 A    
C307  H224  1.112772 S    
C278  C279  1.525602 S    
O92   C352  1.419237 S    
C261  H105  1.109816 S    
C207  C209  1.418089 A    
C36   C68   1.420033 A    
C272  C273  1.525326 S    
C272  H132  1.111500 S    
C203  C205  1.413696 A    
C244  H56   1.110131 S    
C67   C77   1.412866 A    
C16   C18   1.393481 A    
C224  O43   1.286443 A    
C8    O15   1.222602 D    
C11   O51   1.380704 S    
C237  H39   1.110967 S    
C257  H93   1.110653 S    
O49   C228  1.293860 A    
C275  H138  1.111499 S    
N9    C153  1.389690 Am   
C244  H57   1.114053 S    
C11   C19   1.408157 A    
C297  H191  1.110820 S    
C34   C40   1.404567 A    
C7    O14   1.222791 D    
C197  H205  1.082890 S    
C264  H110  1.110900 S    
C282  H156  1.110024 S    
C315  H246  1.110369 S    
C347  C348  1.525277 S    
C222  O86   1.397714 S    
O61   C259  1.412049 S    
C342  H315  1.110032 S    
O11   Cr3   1.871357 S    
C14   H348  1.080949 S    
O1    C5    1.282355 A    
C277  H144  1.108061 S    
O12   C6    1.293226 A    
C331  H289  1.109684 S    
C236  C237  1.526365 S    
C105  C135  1.425675 A    
C46   C48   1.414214 A    
C349  H333  1.110381 S    
C313  H242  1.113952 S    
C48   C50   1.415818 A    
C185  C187  1.411742 A    
C312  H235  1.110365 S    
O78   C310  1.422828 S    
C152  O31   1.222792 D    
C4    C30   1.474395 S    
C254  C255  1.526431 S    
C95   C97   1.403212 A    
C257  C258  1.526228 S    
C154  O35   1.220511 D    
