data_mof_unit_25679.cif
_audit_creation_date              2012-12-10T20:38:15-0500
_audit_creation_method            fapswitch 2.2
_symmetry_space_group_name_H-M    P1
_symmetry_Int_Tables_number       1
_space_group_crystal_system       triclinic
_cell_length_a                    9.844763
_cell_length_b                    10.67685
_cell_length_c                    16.777033
_cell_angle_alpha                 90.073056
_cell_angle_beta                  84.595512
_cell_angle_gamma                 89.98601
_cell_volume                      1755.61087559

loop_
_atom_site_label
_atom_site_type_symbol
_atom_type_description
_atom_site_fract_x
_atom_site_fract_y
_atom_site_fract_z
_atom_type_partial_charge
C1    C     C_R   0.500317 0.740126 0.497639 0.878460
C2    C     C_R   0.344566 0.465326 0.784165 -0.214566
C3    C     C_R   0.428594 0.510646 0.135459 0.050022
C4    C     C_R   0.423247 0.526974 0.218030 -0.337478
C5    C     C_R   0.653075 0.443693 0.218491 0.617994
C6    C     C_R   0.658548 0.425078 0.136551 -0.284121
C7    C     C_R   0.545695 0.453506 0.095433 0.054818
C8    C     C_2   0.451902 0.362287 0.979278 -0.216097
C9    C     C_2   0.554009 0.421358 0.010917 -0.214650
C10   C     C_R   0.533522 0.491580 0.259857 -0.186008
C11   C     C_R   0.378727 0.936202 0.486175 0.146558
C12   C     C_R   0.480545 0.493053 0.652972 0.855747
C13   C     C_R   0.501641 0.871467 0.484946 -0.109226
C14   C     C_R   0.625670 0.935158 0.468336 -0.225714
C15   C     C_R   0.625707 0.064691 0.468163 -0.211925
C16   C     C_R   0.501722 0.128571 0.484642 -0.104479
C17   C     C_R   0.378764 0.063945 0.485963 0.132143
C18   C     C_3   0.254212 0.071512 0.544099 -0.478957
C19   C     C_3   0.254338 0.929542 0.544469 -0.494557
C20   C     C_R   0.922546 0.592889 0.538315 0.217430
C21   C     C_R   0.935015 0.415089 0.456157 -0.094871
C22   C     C_R   0.079146 0.415044 0.456176 -0.137060
C23   C     C_R   0.500417 0.259901 0.497463 0.883163
C24   C     C_R   0.065252 0.592803 0.538370 0.222396
C25   C     C_3   0.056812 0.622251 0.625560 -0.530038
C26   C     C_3   0.902694 0.622872 0.625431 -0.508939
C27   C     C_R   0.519748 0.499457 0.346694 0.915041
C28   C     C_R   0.468267 0.453038 0.736060 -0.028866
C29   C     C_R   0.577978 0.389194 0.765062 -0.213014
C30   C     C_R   0.567318 0.345336 0.842857 -0.168367
C31   C     C_R   0.447981 0.367500 0.893003 0.186325
C32   C     C_R   0.334426 0.422212 0.862703 -0.160905
H1    H     H_    0.672523 0.373640 0.727863 0.152250
H2    H     H_    0.749290 0.383865 0.105453 0.158516
H3    H     H_    0.722370 0.886049 0.461058 0.173014
H4    H     H_    0.722419 0.113701 0.460774 0.170421
H5    H     H_    0.274981 0.113385 0.602474 0.205569
H6    H     H_    0.165772 0.112269 0.516606 0.203137
H7    H     H_    0.275565 0.888861 0.603022 0.196632
H8    H     H_    0.165799 0.888157 0.517366 0.205929
H9    H     H_    0.885964 0.345076 0.422066 0.174136
H10   H     H_    0.139132 0.344962 0.422121 0.152946
H11   H     H_    0.094890 0.544453 0.661349 0.213773
H12   H     H_    0.333200 0.568624 0.249689 0.189354
H13   H     H_    0.099703 0.715886 0.637501 0.197479
H14   H     H_    0.852179 0.545901 0.661613 0.216338
H15   H     H_    0.856735 0.717077 0.636757 0.201313
H16   H     H_    0.643838 0.452810 0.973649 0.152162
H17   H     H_    0.241805 0.439610 0.901303 0.146101
H18   H     H_    0.257744 0.511369 0.761965 0.141853
H19   H     H_    0.361132 0.333532 0.016653 0.162923
H20   H     H_    0.655062 0.301328 0.865566 0.132556
N1    N     N_R   0.857140 0.500860 0.500530 -0.112152
N2    N     N_R   0.142780 0.500820 0.500530 -0.107656
O1    O     O_R   0.385310 0.683210 0.499990 -0.614385
O2    O     O_R   0.614650 0.683240 0.500000 -0.623043
O3    O     O_R   0.371780 0.500000 0.615800 -0.618054
O4    O     O_R   0.601120 0.500040 0.615800 -0.623904
O5    O     O_R   0.385350 0.316760 0.500000 -0.621006
O6    O     O_R   0.614690 0.316790 0.500010 -0.626014
O7    O     O_R   0.398880 0.499960 0.384200 -0.627990
O8    O     O_R   0.628220 0.500000 0.384200 -0.554066
Zn1   Zn    Zn3+2 0.346870 0.499980 0.499990 0.943342
Zn2   Zn    Zn3+2 0.653130 0.500020 0.500010 0.967739
F1    F     F_    0.761963 0.408940 0.257362 -0.679762
C33   C     C_R   0.313136 0.557653 0.092938 0.117634
C34   C     C_R   0.178831 0.519641 0.117139 -0.169706
C35   C     C_R   0.070172 0.563913 0.077088 -0.123529
C36   C     C_R   0.094498 0.646882 0.012985 -0.137525
C37   C     C_R   0.227485 0.686109 0.988993 -0.148257
C38   C     C_R   0.336475 0.642040 0.028837 -0.121923
H21   H     H_    0.158505 0.454814 0.166428 0.151174
H22   H     H_    0.967097 0.533828 0.095726 0.149851
H23   H     H_    0.010289 0.680880 0.981969 0.128305
H24   H     H_    0.246181 0.750503 0.939404 0.132863
H25   H     H_    0.438912 0.673666 0.009795 0.131400

loop_
_geom_bond_atom_site_label_1
_geom_bond_atom_site_label_2
_ccdc_geom_bond_type
C10   C27   S    
C25   H11   S    
C22   N2    A    
C23   O5    A    
C11   C19   S    
C12   C28   S    
C5    C6    A    
C28   C29   A    
C18   H5    S    
C34   H21   S    
C3    C7    A    
C30   C31   A    
N1    Zn2   S    
N2    Zn1   S    
C24   N2    A    
C15   C16   A    
C29   H1    S    
C2    C32   A    
C18   C19   S    
O7    Zn1   S    
O8    Zn2   S    
C2    H18   S    
C35   C36   A    
C31   C32   A    
C16   C17   A    
O1    Zn1   S    
O2    Zn2   S    
C37   C38   A    
C27   O7    A    
C12   O4    A    
C35   H22   S    
C33   C34   A    
C21   C22   A    
O3    Zn1   S    
O4    Zn2   S    
C23   O6    A    
C34   C35   A    
C20   C24   A    
C24   C25   S    
C5    F1    S    
C14   H3    S    
C8    C9    D    
C4    H12   S    
C25   C26   S    
C6    H2    S    
C29   C30   A    
C27   O8    A    
C33   C38   A    
C17   C18   S    
C36   H23   S    
C8    H19   S    
C19   H7    S    
C26   H15   S    
C21   H9    S    
C12   O3    A    
C16   C23   S    
C3    C33   S    
C1    C13   S    
C4    C10   A    
C3    C4    A    
C25   H13   S    
C15   H4    S    
C7    C9    S    
C30   H20   S    
C11   C17   A    
C8    C31   S    
C1    O2    A    
C20   N1    A    
C38   H25   S    
C6    C7    A    
O5    Zn1   S    
O6    Zn2   S    
C1    O1    A    
C5    C10   A    
C21   N1    A    
C11   C13   A    
C22   H10   S    
C20   C26   S    
C18   H6    S    
C36   C37   A    
C32   H17   S    
C19   H8    S    
C26   H14   S    
C9    H16   S    
C37   H24   S    
C14   C15   A    
C2    C28   A    
C13   C14   A    
