data_mof_unit_63513.cif
_audit_creation_date              2012-12-10T22:10:07-0500
_audit_creation_method            fapswitch 2.2
_symmetry_space_group_name_H-M    P1
_symmetry_Int_Tables_number       1
_space_group_crystal_system       triclinic
_cell_length_a                    16.450821
_cell_length_b                    16.610975
_cell_length_c                    28.454893
_cell_angle_alpha                 91.139996
_cell_angle_beta                  90.14573
_cell_angle_gamma                 89.794514
_cell_volume                      7774.0900732

loop_
_atom_site_label
_atom_site_type_symbol
_atom_type_description
_atom_site_fract_x
_atom_site_fract_y
_atom_site_fract_z
_atom_type_partial_charge
Br1   Br    Br    0.430475 0.095412 0.346811 -0.460141
Br2   Br    Br    0.155274 0.758416 0.793768 -0.438127
Br3   Br    Br    0.563272 0.921957 0.656985 -0.447863
Br4   Br    Br    0.858441 0.838686 0.347010 -0.436045
Br5   Br    Br    0.220506 0.156984 0.702743 -0.424229
Br6   Br    Br    0.880680 0.916514 0.105462 -0.436822
Br7   Br    Br    0.120501 0.084312 0.893634 -0.424028
Br8   Br    Br    0.099302 0.739904 0.225203 -0.430458
Br9   Br    Br    0.899290 0.260162 0.775085 -0.437418
Br10  Br    Br    0.845078 0.242919 0.206717 -0.455735
C1    C     C_R   0.615282 0.998968 0.562068 0.922474
C2    C     C_R   0.064222 0.741735 0.835267 0.263481
C3    C     C_R   0.934172 0.321719 0.132576 -0.094605
C4    C     C_R   0.066025 0.679037 0.867639 -0.096362
C5    C     C_R   0.183276 0.959725 0.378815 -0.026791
C6    C     C_R   0.820202 0.032529 0.618216 -0.016667
C7    C     C_R   0.246308 0.959450 0.412105 -0.099206
C8    C     C_R   0.756961 0.032646 0.585029 -0.098997
C9    C     C_R   0.755683 0.071226 0.343747 -0.166829
C10   C     C_R   0.215303 0.926962 0.637910 -0.171466
C11   C     C_R   0.694394 0.068958 0.377133 -0.135584
C12   C     C_R   0.384773 0.001023 0.437789 0.926073
C13   C     C_R   0.277223 0.929593 0.605031 -0.145265
C14   C     C_3   0.998723 0.009432 0.247959 -0.058276
C15   C     C_3   0.001048 0.991023 0.751761 -0.059362
C16   C     C_R   0.615401 0.000174 0.438129 0.889227
C17   C     C_R   0.386402 0.999685 0.562965 0.890805
C18   C     C_R   0.193179 0.001608 0.336737 -0.014809
C19   C     C_R   0.807292 0.998516 0.662492 -0.015526
C20   C     C_R   0.319005 0.001245 0.403104 -0.164394
C21   C     C_R   0.681267 0.998648 0.596417 -0.159471
C22   C     C_R   0.804041 0.003484 0.335321 0.044538
C23   C     C_R   0.942669 0.755705 0.085047 -0.094945
C24   C     C_R   0.198425 0.994305 0.666163 0.054483
C25   C     C_R   0.680968 0.999002 0.402897 -0.129355
C26   C     C_R   0.323025 0.999968 0.599551 -0.124742
C27   C     C_R   0.003671 0.207559 0.166521 0.006462
C28   C     C_R   0.996216 0.792979 0.833542 0.004957
C29   C     C_R   0.000375 0.331610 0.101532 -0.143678
C30   C     C_R   0.999630 0.668668 0.898499 -0.143804
C31   C     C_R   0.990676 0.815328 0.158448 -0.043385
C32   C     C_R   0.009203 0.185084 0.841276 -0.040350
C33   C     C_R   0.989970 0.686446 0.093683 -0.210484
C34   C     C_R   0.057760 0.244657 0.914568 -0.096201
C35   C     C_R   0.010004 0.313721 0.906202 -0.210388
C36   C     C_1   0.070143 0.006210 0.277677 0.021189
C37   C     C_1   0.929850 0.994237 0.721879 0.008700
C38   C     C_1   0.000816 0.081417 0.220361 0.031829
C39   C     C_1   0.998829 0.919040 0.779472 0.037457
C40   C     C_R   0.265797 0.042811 0.327528 -0.054080
C41   C     C_R   0.731669 0.964863 0.673894 -0.054314
C42   C     C_1   0.927090 0.010231 0.277359 0.071707
C43   C     C_1   0.072885 0.990215 0.722508 0.070043
C44   C     C_1   0.996425 0.939548 0.216776 0.081691
C45   C     C_R   0.036154 0.745936 0.167956 0.240179
C46   C     C_1   0.003256 0.060946 0.782908 0.085129
C47   C     C_1   0.127248 0.004031 0.303736 0.016173
C48   C     C_1   0.872982 0.996363 0.695651 0.016250
C49   C     C_1   0.993789 0.882520 0.190459 0.130380
C50   C     C_1   0.005960 0.117958 0.809230 0.135712
C51   C     C_1   0.002383 0.139756 0.196504 0.063311
C52   C     C_1   0.997310 0.860768 0.803446 0.061477
C53   C     C_1   0.869687 0.008537 0.303017 0.059102
C54   C     C_1   0.130973 0.991273 0.697339 0.063300
C55   C     C_R   0.993454 0.620279 0.058758 0.881675
C56   C     C_R   0.963254 0.254279 0.832035 0.238924
C57   C     C_R   0.006543 0.379745 0.941223 0.881634
C58   C     C_R   0.999618 0.392352 0.064695 0.874878
C59   C     C_R   0.000382 0.607734 0.935309 0.874571
C60   C     C_R   0.329005 0.042492 0.360693 0.211098
C61   C     C_R   0.668408 0.965009 0.640800 0.206005
C62   C     C_R   0.791490 0.932382 0.360034 0.257250
C63   C     C_R   0.244459 0.064849 0.662522 0.264550
C64   C     C_R   0.730483 0.930046 0.394386 -0.100767
C65   C     C_R   0.307466 0.067888 0.629311 -0.097876
C66   C     C_R   0.070796 0.219635 0.137161 -0.023309
C67   C     C_R   0.035801 0.681246 0.135610 -0.097410
C68   C     C_R   0.928982 0.780508 0.862770 -0.023272
C69   C     C_R   0.068904 0.281717 0.105155 -0.203815
C70   C     C_R   0.930914 0.718292 0.894722 -0.202914
C71   C     C_R   0.943343 0.820332 0.117485 0.232071
C72   C     C_R   0.057088 0.180176 0.882031 0.236916
C73   C     C_1   0.141470 0.167708 0.138450 0.217394
C74   C     C_1   0.858118 0.832160 0.861407 0.215851
C75   C     C_1   0.107905 0.917734 0.388110 0.231739
C76   C     C_1   0.898732 0.066544 0.606712 0.221192
C77   C     C_1   0.722062 0.857820 0.421552 0.302846
C78   C     C_R   0.963700 0.318870 0.864441 -0.095751
C79   C     C_1   0.356425 0.139907 0.627253 0.317942
C80   C     C_1   0.895452 0.762123 0.042291 0.303995
C81   C     C_1   0.105407 0.238257 0.957169 0.304934
C82   C     C_1   0.080923 0.608759 0.146231 0.292960
C83   C     C_1   0.918163 0.391206 0.854041 0.294525
C84   C     C_1   0.865428 0.376335 0.132497 0.303096
C85   C     C_1   0.135072 0.624807 0.867861 0.303395
C86   C     C_1   0.235239 0.918076 0.456071 0.213085
C87   C     C_1   0.770447 0.065558 0.538812 0.200805
C88   C     C_1   0.275517 0.085614 0.284053 0.283157
C89   C     C_R   0.935901 0.259103 0.164971 0.264191
C90   C     C_1   0.718879 0.930012 0.719528 0.285851
H1    H     H_    0.765788 0.126149 0.324698 0.187557
H2    H     H_    0.179664 0.872530 0.640838 0.172996
H3    H     H_    0.120463 0.289804 0.082104 0.188116
H4    H     H_    0.879196 0.709877 0.917607 0.188245
H5    H     H_    0.657383 0.122320 0.382806 0.195336
H6    H     H_    0.288368 0.876471 0.583296 0.190187
N1    N     N_1   0.197989 0.126093 0.139470 -0.142047
N2    N     N_1   0.881902 0.449085 0.845772 -0.153799
N3    N     N_1   0.810474 0.420045 0.132491 -0.139096
N4    N     N_1   0.190273 0.581407 0.867981 -0.135906
N5    N     N_1   0.226193 0.884979 0.491059 -0.192210
N6    N     N_1   0.781239 0.091735 0.501965 -0.177891
N7    N     N_1   0.283161 0.119807 0.249307 -0.140984
N8    N     N_1   0.708753 0.902166 0.756000 -0.136194
N9    N     N_1   0.801443 0.873558 0.860342 -0.140730
N10   N     N_1   0.047882 0.884283 0.395587 -0.116253
N11   N     N_1   0.961357 0.093581 0.597605 -0.158337
N12   N     N_1   0.715514 0.800026 0.443272 -0.140939
N13   N     N_1   0.395574 0.197550 0.625697 -0.135836
N14   N     N_1   0.857532 0.767409 0.008182 -0.172700
N15   N     N_1   0.143655 0.232999 0.991160 -0.171812
N16   N     N_1   0.116851 0.550758 0.154673 -0.154096
O1    O     O_R   0.588360 0.066690 0.547410 -0.608484
O2    O     O_R   0.936440 0.406120 0.954720 -0.603020
O3    O     O_R   0.931210 0.414910 0.046840 -0.609544
O4    O     O_R   0.068790 0.585090 0.953160 -0.609407
O5    O     O_R   0.067840 0.419730 0.049340 -0.610742
O6    O     O_R   0.932160 0.580270 0.950660 -0.610645
O7    O     O_R   0.926930 0.589050 0.042780 -0.606835
O8    O     O_R   0.073070 0.410950 0.957220 -0.605993
O9    O     O_R   0.411640 0.933310 0.452590 -0.609832
O10   O     O_R   0.586040 0.933310 0.452590 -0.619412
O11   O     O_R   0.413960 0.066690 0.547410 -0.622591
O12   O     O_R   0.587420 0.068270 0.453900 -0.599940
O13   O     O_R   0.412580 0.931730 0.546100 -0.598311
O14   O     O_R   0.586980 0.931730 0.546100 -0.585763
O15   O     O_R   0.413020 0.068270 0.453900 -0.581122
O16   O     O_R   0.063560 0.593880 0.045280 -0.602751
Zn1   Zn    Zn3+2 0.500930 0.090750 0.500880 1.052528
Zn2   Zn    Zn3+2 0.499070 0.909250 0.499120 1.053158
Zn3   Zn    Zn3+2 0.091890 0.503230 0.001680 1.029295
Zn4   Zn    Zn3+2 0.908110 0.496770 0.998320 1.028460

loop_
_geom_bond_atom_site_label_1
_geom_bond_atom_site_label_2
_ccdc_geom_bond_type
C14   C42   S    
C67   C82   S    
C12   O9    A    
C29   C58   S    
C32   C72   A    
C15   C46   S    
C27   C89   A    
O14   Zn2   S    
O2    Zn4   S    
C57   O2    A    
C38   C51   T    
C22   C62   A    
C18   C47   S    
O15   Zn1   S    
C12   O15   A    
C29   C69   A    
C70   H4    S    
C9    C11   A    
C15   C43   S    
C34   C72   A    
C83   N2    T    
C56   C78   A    
C45   C67   A    
C43   C54   T    
C68   C70   A    
C10   H2    S    
C14   C44   S    
O1    Zn1   S    
C66   C73   S    
O5    Zn3   S    
O8    Zn3   S    
Br9   C56   S    
C31   C45   A    
O9    Zn2   S    
C18   C40   A    
C85   N4    T    
C79   N13   T    
C59   O6    A    
C84   N3    T    
C35   C57   S    
C66   C69   A    
C8    C87   S    
C64   C77   S    
C15   C37   S    
C5    C75   S    
C10   C24   A    
C21   C61   A    
C1    C21   S    
Br6   C71   S    
C6    C76   S    
C7    C20   A    
C63   C65   A    
C69   H3    S    
C41   C61   A    
C9    C22   A    
Br8   C45   S    
C24   C54   S    
C20   C60   A    
C44   C49   T    
O13   Zn2   S    
C86   N5    T    
C40   C88   S    
C30   C59   S    
C14   C38   S    
C35   C78   A    
C90   N8    T    
C31   C49   S    
C77   N12   T    
C62   C64   A    
C32   C50   S    
O12   Zn1   S    
C87   N6    T    
C88   N7    T    
O7    Zn4   S    
C28   C68   A    
C6    C19   A    
C13   H6    S    
O16   Zn3   S    
C46   C50   T    
C17   O11   A    
C3    C89   A    
Br3   C61   S    
C16   O12   A    
C26   C65   A    
C82   N16   T    
C27   C51   S    
C10   C13   A    
O3    Zn4   S    
C33   C55   S    
C25   C64   A    
C31   C71   A    
C30   C70   A    
C7    C86   S    
C58   O5    A    
C34   C81   S    
C55   O16   A    
C27   C66   A    
C2    C4    A    
C59   O4    A    
O11   Zn1   S    
C74   N9    T    
C36   C47   T    
C57   O8    A    
O10   Zn2   S    
C4    C85   S    
Br4   C62   S    
C16   O10   A    
C34   C35   A    
Br2   C2    S    
C19   C41   A    
C41   C90   S    
C5    C7    A    
C78   C83   S    
C39   C52   T    
C12   C20   S    
C75   N10   T    
C1    O1    A    
C22   C53   S    
C42   C53   T    
C55   O7    A    
C11   C25   A    
C17   C26   S    
C33   C67   A    
Br5   C63   S    
O4    Zn3   S    
Br1   C60   S    
C3    C84   S    
C14   C36   S    
C40   C60   A    
C17   O13   A    
C1    O14   A    
C37   C48   T    
C9    H1    S    
C5    C18   A    
O6    Zn4   S    
C73   N1    T    
C76   N11   T    
C2    C28   A    
Br10  C89   S    
C15   C39   S    
C3    C29   A    
C65   C79   S    
C24   C63   A    
C4    C30   A    
C68   C74   S    
C16   C25   S    
Br7   C72   S    
C19   C48   S    
C6    C8    A    
C13   C26   A    
C81   N15   T    
C32   C56   A    
C8    C21   A    
C23   C80   S    
C23   C33   A    
C23   C71   A    
C58   O3    A    
C11   H5    S    
C80   N14   T    
C28   C52   S    
