data_mof_unit_62863.cif
_audit_creation_date              2012-12-10T17:04:52-0500
_audit_creation_method            fapswitch 2.2
_symmetry_space_group_name_H-M    P1
_symmetry_Int_Tables_number       1
_space_group_crystal_system       triclinic
_cell_length_a                    13.886522
_cell_length_b                    10.81889
_cell_length_c                    9.786777
_cell_angle_alpha                 109.454801
_cell_angle_beta                  93.498792
_cell_angle_gamma                 91.380625
_cell_volume                      1382.25795358

loop_
_atom_site_label
_atom_site_type_symbol
_atom_type_description
_atom_site_fract_x
_atom_site_fract_y
_atom_site_fract_z
_atom_type_partial_charge
C1    C     C_R   0.490072 0.253495 0.444496 0.812491
C2    C     C_R   0.501211 0.746520 0.556458 0.801345
C3    C     C_R   0.319712 0.503310 0.523835 0.817581
C4    C     C_R   0.680309 0.496813 0.476190 0.842026
C5    C     C_1   0.781868 0.496798 0.461332 -0.098347
C6    C     C_1   0.218221 0.503638 0.538790 -0.086435
C7    C     C_2   0.970454 0.499611 0.442901 0.115646
C8    C     C_2   0.029726 0.501416 0.557526 0.115361
C9    C     C_2   0.507347 0.512810 0.080218 0.000602
C10   C     C_2   0.490208 0.491638 0.921754 -0.004902
C11   C     C_1   0.132466 0.502973 0.548815 0.056114
C12   C     C_1   0.867667 0.497760 0.451459 0.053916
C13   C     C_2   0.481364 0.112817 0.421106 0.200101
C14   C     C_2   0.492758 0.886923 0.580668 0.187518
C15   C     C_2   0.428958 0.066992 0.507498 0.087581
C16   C     C_2   0.429392 0.928622 0.496206 0.108388
Cu1   Cu    Cu3+1 0.516510 0.521490 0.642840 1.041431
Cu2   Cu    Cu3+1 0.483490 0.478510 0.357160 1.037423
H1    H     H_    0.594708 0.619902 0.920033 0.228893
H2    H     H_    0.407607 0.376986 0.078625 0.227657
H3    H     H_    0.433389 0.422293 0.858847 0.182604
H4    H     H_    0.561983 0.585690 0.144823 0.174892
N1    N     N_2   0.458660 0.446210 0.142550 -0.267696
N2    N     N_2   0.541340 0.553790 0.857450 -0.269584
O1    O     O_R   0.508810 0.332170 0.576290 -0.568060
O2    O     O_R   0.491190 0.667830 0.423710 -0.577566
O3    O     O_R   0.480920 0.295870 0.335040 -0.532473
O4    O     O_R   0.519080 0.704130 0.664960 -0.526353
O5    O     O_R   0.378070 0.520740 0.637680 -0.571674
O6    O     O_R   0.621930 0.479260 0.362320 -0.565863
O7    O     O_R   0.350180 0.484440 0.396440 -0.553446
O8    O     O_R   0.649820 0.515560 0.603560 -0.549684
I1    I     I_    0.978554 0.501052 0.757700 -0.197027
I2    I     I_    0.021888 0.500337 0.242951 -0.197280
I3    I     I_    0.318247 0.806900 0.348646 -0.203121
I4    I     I_    0.330087 0.180941 0.650562 -0.284137
Cl1   Cl    Cl    0.570714 0.998797 0.718012 -0.509050
Cl2   Cl    Cl    0.546625 0.007124 0.283342 -0.528873

loop_
_geom_bond_atom_site_label_1
_geom_bond_atom_site_label_2
_ccdc_geom_bond_type
C1    O1    A    
Cu2   O6    S    
Cu1   O5    S    
C9    C10   S    
Cu2   O2    S    
H2    N1    S    
C3    C6    S    
Cu1   O1    S    
Cu1   Cu2   S    
C7    C8    D    
C2    O2    A    
C14   Cl1   S    
C3    O7    A    
C13   Cl2   S    
C4    O8    A    
C8    C11   S    
C16   I3    S    
H1    N2    S    
C8    I1    S    
C13   C15   D    
C10   H3    S    
C7    C12   S    
C2    C14   S    
C7    I2    S    
C14   C16   D    
C9    H4    S    
Cu1   N2    S    
C1    C13   S    
Cu2   N1    S    
C15   I4    S    
C5    C12   T    
C3    O5    A    
C6    C11   T    
C1    O3    A    
Cu1   O8    S    
C9    N1    D    
C2    O4    A    
Cu2   O7    S    
C10   N2    D    
Cu1   O4    S    
C4    O6    A    
Cu2   O3    S    
C15   C16   S    
C4    C5    S    
