data_mof_unit_19645.cif
_audit_creation_date              2012-12-11T14:38:22-0500
_audit_creation_method            fapswitch 2.2
_symmetry_space_group_name_H-M    P1
_symmetry_Int_Tables_number       1
_space_group_crystal_system       triclinic
_cell_length_a                    19.49415
_cell_length_b                    11.162725
_cell_length_c                    19.634052
_cell_angle_alpha                 90.06407
_cell_angle_beta                  96.708424
_cell_angle_gamma                 90.116699
_cell_volume                      4243.25890518

loop_
_atom_site_label
_atom_site_type_symbol
_atom_type_description
_atom_site_fract_x
_atom_site_fract_y
_atom_site_fract_z
_atom_type_partial_charge
C1    C     C_R   0.724937 0.954063 0.360371 0.604275
C2    C     C_3   0.178101 0.482859 0.468708 -0.241935
C3    C     C_2   0.873917 0.931233 0.430675 0.558899
C4    C     C_3   0.321938 0.983180 0.531500 -0.241926
C5    C     C_3   0.678094 0.982862 0.468709 -0.242828
C6    C     C_3   0.763127 0.291757 0.553754 -0.269129
C7    C     C_3   0.236689 0.291849 0.446012 -0.268821
C8    C     C_3   0.263127 0.791753 0.553755 -0.269039
C9    C     C_3   0.736694 0.791860 0.446019 -0.268539
C10   C     C_3   0.760908 0.425947 0.567056 0.046475
C11   C     C_3   0.239065 0.426068 0.432976 0.045763
C12   C     C_3   0.260907 0.925944 0.567057 0.045502
C13   C     C_R   0.275032 0.953970 0.639675 0.596125
C14   C     C_3   0.739063 0.926077 0.432980 0.042829
C15   C     C_3   0.746208 0.391338 0.435349 0.020753
C16   C     C_3   0.253839 0.391252 0.564646 0.020864
C17   C     C_3   0.246208 0.891331 0.435350 0.021316
C18   C     C_3   0.753832 0.891269 0.564652 0.023883
C19   C     C_3   0.805466 0.480143 0.453206 -0.264772
C20   C     C_3   0.194615 0.479701 0.546995 -0.264628
C21   C     C_3   0.305465 0.980137 0.453207 -0.264898
C22   C     C_3   0.694600 0.979701 0.546998 -0.264790
C23   C     C_3   0.765535 0.275328 0.476829 -0.245597
C24   C     C_R   0.224937 0.454061 0.360370 0.595132
C25   C     C_3   0.234466 0.275192 0.522945 -0.245819
C26   C     C_3   0.265537 0.775321 0.476830 -0.245556
C27   C     C_3   0.734470 0.775204 0.522952 -0.244939
C28   C     C_3   0.449153 0.300526 0.969673 -0.235543
C29   C     C_3   0.467574 0.296876 0.046760 -0.229357
C30   C     C_3   0.055066 0.729941 0.953309 -0.245594
C31   C     C_3   0.071945 0.730148 0.031258 -0.221399
C32   C     C_3   0.420505 0.080030 0.973539 -0.240179
C33   C     C_3   0.563283 0.151278 0.027056 -0.234394
C34   C     C_3   0.927948 0.742067 0.969335 -0.221733
C35   C     C_R   0.775032 0.453971 0.639674 0.592837
C36   C     C_3   0.002921 0.540647 0.040079 -0.235921
C37   C     C_3   0.539204 0.147572 0.949882 -0.217542
C38   C     C_3   0.446726 0.075173 0.051321 -0.236273
C39   C     C_3   0.985547 0.540952 0.961640 -0.233456
C40   C     C_3   0.944764 0.740795 0.047438 -0.245982
C41   C     C_R   0.536323 0.180350 0.338631 0.527211
C42   C     C_R   0.463650 0.180377 0.661351 0.533480
C43   C     C_R   0.036327 0.680350 0.338633 0.528864
C44   C     C_R   0.963651 0.680377 0.661350 0.527555
C45   C     C_3   0.461291 0.176559 0.937302 0.045239
C46   C     C_3   0.678082 0.441644 0.457474 -0.220035
C47   C     C_3   0.501536 0.174523 0.068737 0.056148
C48   C     C_3   0.983778 0.672079 0.934396 0.050990
C49   C     C_3   0.012556 0.671591 0.066634 0.053772
C50   C     C_1   0.757142 0.412985 0.900485 -0.010156
C51   C     C_1   0.241547 0.415162 0.098914 -0.012190
C52   C     C_1   0.257485 0.913971 0.900668 -0.014040
C53   C     C_1   0.720255 0.972547 0.085751 -0.021963
C54   C     C_1   0.735228 0.362696 0.026438 -0.048539
C55   C     C_1   0.261142 0.368027 0.972266 -0.055132
C56   C     C_1   0.236336 0.865381 0.026910 -0.052547
C57   C     C_3   0.321962 0.442035 0.542581 -0.219918
C58   C     C_1   0.742207 0.934230 0.958637 -0.045227
C59   C     C_1   0.745122 0.387505 0.957637 -0.044387
C60   C     C_1   0.252273 0.391479 0.041256 -0.049803
C61   C     C_1   0.245861 0.889448 0.958020 -0.048262
C62   C     C_1   0.730882 0.956134 0.027221 -0.048709
C63   C     C_1   0.728950 0.341620 0.085689 -0.018475
C64   C     C_1   0.268045 0.346535 0.913297 -0.023482
C65   C     C_1   0.229949 0.844048 0.086062 -0.022269
C66   C     C_1   0.751628 0.907542 0.900986 -0.012452
C67   C     C_R   0.738696 0.359766 0.362255 0.554236
C68   C     C_3   0.178082 0.941636 0.457476 -0.219818
C69   C     C_R   0.261354 0.359694 0.637712 0.554128
C70   C     C_R   0.238696 0.859763 0.362256 0.552187
C71   C     C_R   0.761350 0.859706 0.637715 0.543671
C72   C     C_R   0.705765 0.995533 0.154515 0.536407
C73   C     C_R   0.277203 0.952730 0.836042 0.539780
C74   C     C_R   0.222683 0.452751 0.163939 0.546451
C75   C     C_R   0.777194 0.452686 0.836074 0.549598
C76   C     C_R   0.529955 0.179241 0.141811 0.524855
C77   C     C_R   0.438781 0.182438 0.862946 0.527097
C78   C     C_R   0.033230 0.678856 0.140547 0.534970
C79   C     C_3   0.821950 0.942075 0.542593 -0.218956
C80   C     C_R   0.964630 0.679230 0.860307 0.542642
C81   C     C_R   0.722690 0.312024 0.155940 0.535552
C82   C     C_R   0.276473 0.313995 0.844148 0.533534
C83   C     C_R   0.223007 0.812939 0.155889 0.547733
C84   C     C_R   0.763200 0.860700 0.835308 0.543946
C85   C     C_1   0.484969 0.172748 0.594203 -0.013338
C86   C     C_1   0.514944 0.172778 0.405751 -0.011047
C87   C     C_1   0.984976 0.672748 0.594206 -0.010818
C88   C     C_1   0.014954 0.672778 0.405756 -0.010827
C89   C     C_1   0.504462 0.169553 0.464913 -0.012956
C90   C     C_3   0.821938 0.483183 0.531500 -0.241920
C91   C     C_1   0.495423 0.169532 0.535029 -0.013410
C92   C     C_1   0.004473 0.669552 0.464918 -0.013418
C93   C     C_1   0.995433 0.669531 0.535034 -0.013120
C94   C     C_3   0.687997 0.471499 0.534517 -0.055359
C95   C     C_3   0.312041 0.471899 0.465574 -0.055248
C96   C     C_3   0.187995 0.971492 0.534519 -0.055539
C97   C     C_3   0.812035 0.971925 0.465585 -0.056441
C98   C     C_2   0.626078 0.430505 0.569368 0.559130
C99   C     C_2   0.373911 0.431191 0.430647 0.559321
C100  C     C_2   0.126079 0.930496 0.569372 0.559047
Cr1   Cr    Cr6+3 0.765780 0.160710 0.267420 1.047438
Cr2   Cr    Cr6+3 0.383970 0.323720 0.751490 1.024674
Cr3   Cr    Cr6+3 0.116030 0.823720 0.248510 1.027711
Cr4   Cr    Cr6+3 0.883970 0.823720 0.751490 1.025985
Cr5   Cr    Cr6+3 0.234220 0.160710 0.732580 1.042231
Cr6   Cr    Cr6+3 0.265780 0.660710 0.267420 1.044610
Cr7   Cr    Cr6+3 0.734220 0.660710 0.732580 1.051599
Cr8   Cr    Cr6+3 0.612200 0.009560 0.248850 1.018118
Cr9   Cr    Cr6+3 0.387800 0.009560 0.751150 1.018070
Cr10  Cr    Cr6+3 0.112200 0.509560 0.248850 1.019674
Cr11  Cr    Cr6+3 0.887800 0.509560 0.751150 1.022580
Cr12  Cr    Cr6+3 0.616030 0.323720 0.248510 1.024333
H1    H     H_    0.687443 0.567937 0.539448 0.102508
H2    H     H_    0.130695 0.427666 0.455274 0.152158
H3    H     H_    0.369309 0.928246 0.544844 0.152041
H4    H     H_    0.630689 0.927667 0.455269 0.151946
H5    H     H_    0.852475 0.453340 0.429764 0.143965
H6    H     H_    0.147604 0.452503 0.570387 0.143771
H7    H     H_    0.352474 0.953335 0.429764 0.143471
H8    H     H_    0.647589 0.952481 0.570385 0.142974
H9    H     H_    0.395051 0.328496 0.957763 0.119670
H10   H     H_    0.502856 0.373883 0.060672 0.156101
H11   H     H_    0.055552 0.823674 0.934005 0.143244
H12   H     H_    0.312718 0.568345 0.460828 0.102218
H13   H     H_    0.120863 0.680020 0.045358 0.106293
H14   H     H_    0.481538 0.370630 0.948592 0.154864
H15   H     H_    0.420416 0.310629 0.072810 0.130535
H16   H     H_    0.095234 0.679177 0.929488 0.123672
H17   H     H_    0.080727 0.824529 0.048539 0.147485
H18   H     H_    0.364449 0.101868 0.966551 0.105424
H19   H     H_    0.602759 0.222988 0.037679 0.113179
H20   H     H_    0.924934 0.837031 0.951962 0.150395
H21   H     H_    0.051080 0.488140 0.053623 0.150541
H22   H     H_    0.402698 0.087781 0.081910 0.125760
H23   H     H_    0.187438 0.067930 0.539449 0.102587
H24   H     H_    0.569551 0.213371 0.923006 0.141258
H25   H     H_    0.949544 0.834679 0.066640 0.147142
H26   H     H_    0.024792 0.487950 0.937797 0.133350
H27   H     H_    0.549288 0.057113 0.929343 0.140560
H28   H     H_    0.469554 0.985653 0.064363 0.140817
H29   H     H_    0.934468 0.496888 0.948098 0.148375
H30   H     H_    0.901885 0.697589 0.071214 0.125611
H31   H     H_    0.588297 0.064601 0.042636 0.122433
H32   H     H_    0.426731 0.990318 0.950342 0.149700
H33   H     H_    0.960784 0.495834 0.064202 0.130898
H34   H     H_    0.812704 0.068367 0.460832 0.102017
H35   H     H_    0.876071 0.701278 0.954929 0.117902
H36   H     H_    0.636418 0.373545 0.445977 0.165516
H37   H     H_    0.363610 0.374212 0.553971 0.165449
H38   H     H_    0.136418 0.873536 0.445980 0.165408
H39   H     H_    0.863606 0.874270 0.553991 0.165960
H40   H     H_    0.662025 0.523653 0.427602 0.127429
H41   H     H_    0.338051 0.524117 0.572590 0.126902
H42   H     H_    0.162024 0.023645 0.427604 0.127058
H43   H     H_    0.838025 0.024166 0.572599 0.126284
H44   H     H_    0.339484 0.072118 0.550549 0.104620
H45   H     H_    0.819700 0.252493 0.469502 0.154299
H46   H     H_    0.660530 0.071717 0.449901 0.104519
H47   H     H_    0.839483 0.572122 0.550548 0.104685
H48   H     H_    0.160535 0.571713 0.449899 0.104611
H49   H     H_    0.289795 0.067743 0.432400 0.117801
H50   H     H_    0.710303 0.067333 0.568056 0.116927
H51   H     H_    0.789796 0.567750 0.432400 0.118633
H52   H     H_    0.210333 0.567330 0.568048 0.118047
H53   H     H_    0.808664 0.247920 0.582928 0.134314
H54   H     H_    0.191009 0.247943 0.416861 0.135036
H55   H     H_    0.308664 0.747915 0.582931 0.135088
H56   H     H_    0.180342 0.251858 0.530344 0.154244
H57   H     H_    0.691017 0.747945 0.416869 0.135747
H58   H     H_    0.716116 0.250655 0.569257 0.164030
H59   H     H_    0.283538 0.250936 0.430202 0.164453
H60   H     H_    0.216115 0.750654 0.569258 0.164467
H61   H     H_    0.783546 0.750950 0.430215 0.165079
H62   H     H_    0.730987 0.203836 0.457290 0.115044
H63   H     H_    0.269119 0.203982 0.542199 0.115015
H64   H     H_    0.230993 0.703826 0.457291 0.115245
H65   H     H_    0.769127 0.704001 0.542208 0.115244
H66   H     H_    0.589198 0.343711 0.647657 0.346824
H67   H     H_    0.319702 0.752485 0.469504 0.154313
H68   H     H_    0.410738 0.344320 0.352336 0.345956
H69   H     H_    0.089203 0.843718 0.647670 0.346320
H70   H     H_    0.910777 0.844321 0.352401 0.347589
H71   H     H_    0.680347 0.751860 0.530348 0.154312
H72   H     H_    0.869309 0.428249 0.544843 0.152202
O1    O     O_R   0.783100 0.287550 0.345460 -0.520746
O2    O     O_R   0.454350 0.284910 0.836260 -0.521542
O3    O     O_R   0.045650 0.784910 0.163740 -0.527439
O4    O     O_R   0.954350 0.784910 0.836260 -0.522230
O5    O     O_R   0.677950 0.374280 0.185410 -0.481402
O6    O     O_R   0.322050 0.374280 0.814590 -0.497467
O7    O     O_R   0.177950 0.874280 0.185410 -0.489264
O8    O     O_R   0.822050 0.874280 0.814590 -0.499943
O9    O     O_3   0.664670 0.164660 0.254930 -0.306484
O10   O     O_3   0.335330 0.164660 0.745070 -0.303302
O11   O     O_3   0.164670 0.664660 0.254930 -0.289532
O12   O     O_R   0.216900 0.287550 0.654540 -0.519903
O13   O     O_3   0.835330 0.664660 0.745070 -0.271184
O14   O     O_R   0.760020 0.037400 0.337700 -0.483503
O15   O     O_R   0.239980 0.037400 0.662300 -0.486366
O16   O     O_R   0.260020 0.537400 0.337700 -0.487510
O17   O     O_R   0.739980 0.537400 0.662300 -0.488304
O18   O     O_R   0.666600 0.921990 0.332020 -0.521282
O19   O     O_R   0.333400 0.921990 0.667980 -0.524701
O20   O     O_R   0.166600 0.421990 0.332020 -0.525485
O21   O     O_R   0.833400 0.421990 0.667980 -0.527296
O22   O     O_R   0.557260 0.082670 0.312540 -0.500026
O23   O     O_R   0.283100 0.787550 0.345460 -0.521104
O24   O     O_R   0.442740 0.082670 0.687460 -0.495514
O25   O     O_R   0.057260 0.582670 0.312540 -0.498908
O26   O     O_R   0.942740 0.582670 0.687460 -0.499983
O27   O     O_R   0.548410 0.285740 0.316480 -0.503394
O28   O     O_R   0.451590 0.285740 0.683520 -0.500248
O29   O     O_R   0.048410 0.785740 0.316480 -0.502865
O30   O     O_R   0.951590 0.785740 0.683520 -0.503706
O31   O     O_R   0.680500 0.375040 0.327000 -0.497228
O32   O     O_R   0.319500 0.375040 0.673000 -0.498638
O33   O     O_R   0.180500 0.875040 0.327000 -0.499219
O34   O     O_R   0.716900 0.787550 0.654540 -0.524881
O35   O     O_R   0.819500 0.875040 0.673000 -0.504594
O36   O     O_R   0.780350 0.286720 0.192720 -0.501935
O37   O     O_R   0.219650 0.286720 0.807280 -0.495009
O38   O     O_R   0.280350 0.786720 0.192720 -0.499490
O39   O     O_R   0.719650 0.786720 0.807280 -0.505275
O40   O     O_R   0.757470 0.036630 0.196110 -0.490229
O41   O     O_R   0.242530 0.036630 0.803890 -0.504023
O42   O     O_R   0.257470 0.536630 0.196110 -0.503817
O43   O     O_R   0.742530 0.536630 0.803890 -0.487293
O44   O     O_R   0.663840 0.921160 0.179280 -0.491258
O45   O     O_R   0.554710 0.081900 0.170950 -0.520626
O46   O     O_R   0.336160 0.921160 0.820720 -0.513719
O47   O     O_R   0.163840 0.421160 0.179280 -0.509151
O48   O     O_R   0.836160 0.421160 0.820720 -0.513442
O49   O     O_2   0.568281 0.464136 0.546498 -0.473943
O50   O     O_R   0.634375 0.359670 0.628487 -0.715647
O51   O     O_2   0.431744 0.465084 0.453560 -0.473970
O52   O     O_R   0.365552 0.360283 0.371443 -0.715362
O53   O     O_2   0.068280 0.964115 0.546500 -0.474043
O54   O     O_R   0.134378 0.859676 0.628497 -0.714624
O55   O     O_2   0.931740 0.965174 0.453588 -0.474243
O56   O     O_R   0.445290 0.081900 0.829050 -0.501499
O57   O     O_R   0.865582 0.860278 0.371491 -0.709076
O58   O     O_R   0.054710 0.581900 0.170950 -0.508712
O59   O     O_R   0.945290 0.581900 0.829050 -0.507343
O60   O     O_R   0.545650 0.284910 0.163740 -0.529439

loop_
_geom_bond_atom_site_label_1
_geom_bond_atom_site_label_2
_ccdc_geom_bond_type
C95   H12   S    
C58   C62   S    
Cr5   O12   S    
C46   H40   S    
C77   O2    A    
C7    H59   S    
C8    C26   S    
C32   C45   S    
C87   C93   T    
C4    H3    S    
C9    H57   S    
C1    O14   A    
Cr1   O36   S    
C51   C74   S    
C36   H21   S    
C27   H71   S    
C32   H18   S    
C85   C91   T    
Cr3   O7    S    
C23   H62   S    
C26   H67   S    
C33   H31   S    
C7    C11   S    
C41   C86   S    
C78   O58   A    
C71   O34   A    
C63   C81   S    
C44   O30   A    
C17   C26   S    
C83   O7    A    
C28   C29   S    
C76   O60   A    
C4    C21   S    
C47   C76   S    
Cr7   O17   S    
C68   H42   S    
C52   C61   T    
C3    O57   S    
C30   C31   S    
C22   H50   S    
C95   C99   S    
C65   C83   S    
C54   C63   T    
C10   C94   S    
C11   C95   S    
C40   C49   S    
C72   O40   A    
C23   H45   S    
C11   C24   S    
C18   C71   S    
C71   O35   A    
C49   C78   S    
C20   H52   S    
Cr10  O20   S    
Cr4   O13   S    
Cr12  O31   S    
C41   O22   A    
C3    C97   S    
Cr8   O18   S    
Cr9   O56   S    
Cr12  O5    S    
C83   O38   A    
C67   O31   A    
C58   C66   T    
C46   H36   S    
C5    C22   S    
C39   H29   S    
C28   H14   S    
C18   C79   S    
C57   H37   S    
C40   H30   S    
C64   C82   S    
C77   O56   A    
Cr6   O42   S    
C9    H61   S    
C10   C35   S    
Cr5   O41   S    
C89   C91   S    
C44   C87   S    
C4    C12   S    
Cr11  O21   S    
C38   H22   S    
C8    C12   S    
C54   C59   S    
C33   H19   S    
C15   C23   S    
C6    H53   S    
C34   H20   S    
C17   C70   S    
C55   C60   S    
C82   O6    A    
Cr11  O48   S    
C69   O32   A    
Cr3   O11   S    
C5    H4    S    
C31   C49   S    
Cr1   O1    S    
C1    O18   A    
Cr2   O10   S    
C20   H6    S    
C73   O46   A    
C94   H1    S    
Cr1   O9    S    
C96   H23   S    
Cr7   O39   S    
Cr8   O45   S    
C25   H56   S    
Cr5   O10   S    
Cr4   O4    S    
C30   H16   S    
C28   C45   S    
C70   O33   A    
C21   H49   S    
C16   C69   S    
C2    C20   S    
Cr5   O15   S    
Cr12  O27   S    
C88   C92   T    
Cr9   O19   S    
Cr3   O3    S    
C25   H63   S    
Cr8   O22   S    
C52   C73   S    
Cr6   O23   S    
C82   O37   A    
Cr1   O14   S    
C35   O17   A    
C19   H51   S    
Cr8   O44   S    
C35   O21   A    
C70   O23   A    
C81   O36   A    
C57   H41   S    
C86   C89   T    
C69   O12   A    
C33   C37   S    
C13   O19   A    
Cr7   O43   S    
C66   C84   S    
C2    H48   S    
Cr9   O24   S    
C15   C19   S    
C9    C14   S    
Cr2   O2    S    
Cr4   O35   S    
C15   C67   S    
C8    H55   S    
Cr7   O34   S    
C99   O51   D    
C53   C62   T    
Cr10  O58   S    
C98   O50   S    
C26   H64   S    
C16   C20   S    
C81   O5    A    
C29   H10   S    
C38   C47   S    
C80   O4    A    
C37   H24   S    
C100  O53   D    
C43   C88   S    
C42   C85   S    
C68   C96   S    
C12   C13   S    
C42   O24   A    
C100  O54   S    
H68   O52   S    
C5    C14   S    
Cr3   O33   S    
C40   H25   S    
Cr9   O10   S    
Cr1   O40   S    
Cr2   O32   S    
C4    H44   S    
C7    H54   S    
C29   C47   S    
Cr6   O16   S    
Cr7   O13   S    
C29   H15   S    
H69   O54   S    
C57   C95   S    
C33   C47   S    
C34   C40   S    
C51   C60   T    
Cr10  O25   S    
C34   H35   S    
C50   C59   T    
C56   C65   T    
C37   C45   S    
C43   O29   A    
H70   O57   S    
Cr10  O11   S    
C19   H5    S    
C42   O28   A    
C9    C27   S    
C31   H13   S    
H66   O50   S    
C6    H58   S    
C79   H39   S    
C30   C48   S    
C16   C25   S    
Cr3   O29   S    
C24   O20   A    
C17   C68   S    
Cr11  O59   S    
C13   O15   A    
C18   C22   S    
C79   C97   S    
C36   C39   S    
C18   C27   S    
C27   H65   S    
C90   H72   S    
C74   O47   A    
C84   O39   A    
C14   C97   S    
C22   H8    S    
C6    C10   S    
C45   C77   S    
Cr6   O11   S    
C1    C14   S    
C55   C64   T    
C38   H28   S    
C72   O44   A    
C32   C38   S    
C7    C25   S    
C80   O59   A    
C32   H32   S    
C48   C80   S    
C75   O43   A    
Cr11  O26   S    
Cr4   O30   S    
C74   O42   A    
C19   C90   S    
C50   C75   S    
Cr11  O13   S    
C73   O41   A    
C99   O52   S    
C2    H2    S    
Cr9   O46   S    
Cr2   O28   S    
Cr6   O38   S    
C98   O49   D    
Cr5   O37   S    
C6    C23   S    
C96   C100  S    
C92   C93   S    
Cr2   O6    S    
C84   O8    A    
C44   O26   A    
C16   C57   S    
C46   C94   S    
C90   H47   S    
C75   O48   A    
C43   O25   A    
C17   C21   S    
Cr12  O9    S    
C39   H26   S    
C68   H38   S    
Cr10  O47   S    
C79   H43   S    
C41   O27   A    
C97   H34   S    
C8    H60   S    
C36   H33   S    
Cr12  O60   S    
C10   C90   S    
C34   C48   S    
C30   H11   S    
C24   O16   A    
C21   H7    S    
C5    H46   S    
C37   H27   S    
C76   O45   A    
C94   C98   S    
C56   C61   S    
C12   C96   S    
C2    C11   S    
C78   O3    A    
C28   H9    S    
C15   C46   S    
Cr8   O9    S    
C53   C72   S    
C36   C49   S    
C67   O1    A    
C3    O55   D    
C39   C48   S    
C31   H17   S    
Cr4   O8    S    
