data_mof_unit_47246.cif
_audit_creation_date              2013-03-05T15:59:34-0500
_audit_creation_method            fapswitch 2.2
_symmetry_space_group_name_H-M    P1
_symmetry_Int_Tables_number       1
_space_group_crystal_system       triclinic
_cell_length_a                    8.234048
_cell_length_b                    12.857334
_cell_length_c                    17.375778
_cell_angle_alpha                 99.031167
_cell_angle_beta                  96.3556
_cell_angle_gamma                 98.782281
_cell_volume                      1778.26102962

loop_
_atom_site_label
_atom_site_type_symbol
_atom_site_description
_atom_site_fract_x
_atom_site_fract_y
_atom_site_fract_z
_atom_type_partial_charge
P1    P     P_3+3 0.996360 0.395990 0.320310 0.495090
O1    O     O_2   0.825360 0.427200 0.308020 -0.369451
O2    O     O_3   0.099050 0.435020 0.406000 -0.420485
O3    O     O_3   0.623690 0.628090 0.355970 -0.400565
O4    O     O_2   0.745622 0.564875 0.226007 -0.326773
O5    O     O_3   0.947506 0.256624 0.301701 -0.507360
O6    O     O_3   0.573197 0.715399 0.216466 -0.460620
H1    H     H_    0.727459 0.821436 0.306752 0.154086
C1    C     C_3   0.553220 0.899804 0.244214 0.048840
H2    H     H_    0.555446 0.967799 0.292470 0.079073
P2    P     P_3+3 0.688190 0.753610 0.561600 0.408895
P3    P     P_3+3 0.108097 0.823152 0.398251 0.460311
O7    O     O_2   0.857620 0.767930 0.537920 -0.369339
O8    O     O_3   0.055170 0.686660 0.395490 -0.394741
O9    O     O_2   0.984531 0.877462 0.444405 -0.392034
O10   O     O_3   0.761586 0.784669 0.663034 -0.580753
O11   O     O_3   0.057002 0.843742 0.302242 -0.465815
C2    C     C_3   0.108164 0.764435 0.249843 0.403057
H3    H     H_    0.032515 0.685015 0.249036 0.142845
H4    H     H_    0.240698 0.760371 0.266067 -0.003752
C3    C     C_3   0.084188 0.790630 0.167461 -0.690660
H5    H     H_    0.949698 0.780158 0.145716 0.312091
H6    H     H_    0.141660 0.874629 0.167749 0.260724
C4    C     C_3   0.219004 0.790375 0.635163 0.358815
H7    H     H_    0.332543 0.791463 0.607469 0.022776
H8    H     H_    0.115139 0.747398 0.591092 0.163343
C5    C     C_3   0.192762 0.904883 0.657690 -0.838658
H9    H     H_    0.299158 0.952301 0.699778 0.247923
H10   H     H_    0.181418 0.941402 0.604106 0.243047
H11   H     H_    0.078019 0.906543 0.685553 0.270963
Ba1   Ba    Ba6+2 0.843240 0.548600 0.461650 1.562826
C6    C     C_3   0.945433 0.218673 0.372908 0.266788
H12   H     H_    0.834681 0.237204 0.398736 0.024815
H13   H     H_    0.057280 0.253912 0.415511 0.128615
C7    C     C_3   0.940749 0.098793 0.357422 0.100107
H14   H     H_    0.815210 0.058265 0.330266 0.131178
H15   H     H_    0.971208 0.070600 0.413471 0.096713
C8    C     C_3   0.633572 0.772392 0.708978 0.344601
H16   H     H_    0.667225 0.723557 0.753650 0.099810
H17   H     H_    0.516866 0.731244 0.674434 0.143906
C9    C     C_3   0.614276 0.880703 0.751946 -0.964634
H18   H     H_    0.729975 0.916504 0.792483 0.270110
H19   H     H_    0.509920 0.872009 0.787111 0.268693
H20   H     H_    0.589788 0.933302 0.708670 0.235861
P4    P     P_3+3 0.193350 0.604100 0.679700 0.482950
O12   O     O_2   0.364350 0.572830 0.692030 -0.399119
O13   O     O_3   0.090660 0.565070 0.594010 -0.392575
O14   O     O_3   0.566030 0.372000 0.644040 -0.363933
O15   O     O_3   0.235046 0.744403 0.703147 -0.569541
P5    P     P_3+3 0.089288 0.175841 0.605237 0.447170
O16   O     O_3   0.601410 0.366560 0.460070 -0.415165
O17   O     O_3   0.134540 0.313430 0.604520 -0.363523
O18   O     O_2   0.205778 0.122231 0.554096 -0.388256
O19   O     O_3   0.154528 0.153080 0.699464 -0.516352
Ba2   Ba    Ba6+2 0.346590 0.451490 0.538360 1.566037
P6    P     P_3+3 0.585928 0.597609 0.254136 0.553839
C10   C     C_3   0.596518 0.803435 0.277982 0.314694
H21   H     H_    0.513293 0.788486 0.322530 -0.020441
H22   H     H_    0.426613 0.880010 0.211142 0.137252
O20   O     O_3   0.588300 0.633530 0.539940 -0.461223
C11   C     C_3   0.423877 0.263186 0.297930 0.464800
H23   H     H_    0.301535 0.277318 0.314442 0.108040
H24   H     H_    0.513838 0.339484 0.312198 0.092687
C12   C     C_3   0.404625 0.223509 0.209539 -0.858127
H25   H     H_    0.329942 0.141774 0.194114 0.300428
H26   H     H_    0.340664 0.276911 0.177330 0.194086
H27   H     H_    0.528669 0.221395 0.190491 0.263383
P7    P     P_3+3 0.510301 0.230029 0.438220 0.441207
O21   O     O_2   0.332090 0.232110 0.462130 -0.373126
O22   O     O_3   0.480842 0.184922 0.336461 -0.556744
H28   H     H_    0.143378 0.736820 0.127221 0.219333
C13   C     C_3   0.121961 0.236272 0.755102 0.481208
H29   H     H_    0.204404 0.312442 0.753199 0.148031
H30   H     H_    0.990898 0.247370 0.744351 0.008197
C14   C     C_3   0.155240 0.208943 0.836866 -0.938261
H31   H     H_    0.289632 0.209610 0.852963 0.294860
H32   H     H_    0.114373 0.268224 0.880716 0.211447
H33   H     H_    0.086326 0.128297 0.838599 0.264374
P8    P     P_3+3 0.601336 0.383539 0.746568 0.500657
C15   C     C_3   0.617780 0.182922 0.737254 0.460161
H34   H     H_    0.702608 0.210547 0.696151 0.048883
O23   O     O_2   0.486603 0.458101 0.780946 -0.375673
O24   O     O_3   0.526104 0.258978 0.769004 -0.498089
H35   H     H_    0.529214 0.113005 0.702859 0.098751
H36   H     H_    0.793931 0.217137 0.844184 0.266340
C16   C     C_3   0.716862 0.147034 0.804198 -1.054243
H37   H     H_    0.799701 0.093953 0.779728 0.240624
H38   H     H_    0.631751 0.103516 0.838357 0.290723
C17   C     C_2   0.272915 0.494185 0.271529 -0.556471
C18   C     C_3   0.399458 0.492446 0.214321 0.125174
C19   C     C_2   0.324842 0.505791 0.132958 0.365895
C20   C     C_2   0.156415 0.486148 0.112363 -0.204045
C21   C     C_2   0.049683 0.452883 0.173069 -0.214904
C22   C     C_1   0.115041 0.453107 0.246873 0.302027
C23   C     C_R   0.888509 0.448133 0.860827 -0.274426
C24   C     C_R   0.822106 0.440897 0.782750 0.082020
C25   C     C_R   0.082662 0.537922 0.754521 0.195486
C26   C     C_R   0.150609 0.543892 0.834005 -0.303665
C27   C     C_R   0.054543 0.496174 0.886965 0.146244
C28   C     C_2   0.072941 0.504800 0.034783 0.494369
C29   C     C_2   0.133065 0.481710 0.965208 -0.231927
C30   C     C_R   0.922860 0.480269 0.730039 0.212756
H39   H     H_    0.239725 0.442203 0.962944 0.174865
H40   H     H_    0.917024 0.427637 0.155844 0.208378
H41   H     H_    0.813313 0.411142 0.899777 0.207229
H42   H     H_    0.277597 0.582990 0.854104 0.211766
H43   H     H_    0.314561 0.524674 0.333584 0.189823
C31   C     C_R   0.770653 0.182511 0.534997 -0.496244
C32   C     C_R   0.423260 0.810552 0.473166 -0.495279
C33   C     C_R   0.389454 0.985116 0.447172 -0.192425
C34   C     C_R   0.325039 0.877371 0.442281 0.191771
C35   C     C_R   0.581676 0.851019 0.515095 0.283901
C36   C     C_R   0.646991 0.962444 0.522935 -0.058079
C37   C     C_R   0.549466 0.029695 0.487173 -0.071222
C38   C     C_R   0.613945 0.140162 0.493167 0.258795
C39   C     C_R   0.870441 0.117241 0.566573 0.183681
C40   C     C_R   0.807320 0.008551 0.562990 -0.213393
H44   H     H_    0.311142 0.033442 0.420757 0.220707
H45   H     H_    0.885778 0.960949 0.590047 0.189554
H46   H     H_    0.820096 0.266342 0.538416 0.196619
H47   H     H_    0.372219 0.726576 0.467710 0.173507
Cl1   Cl    Cl    0.086186 0.066030 0.292865 -0.555119
Cl2   Cl    Cl    0.693047 0.937402 0.178035 -0.493604
Cl3   Cl    Cl    0.891680 0.562507 0.037541 -0.579396
Cl4   Cl    Cl    0.464892 0.549604 0.069124 -0.528601
O25   O     O_3   0.864814 0.460004 0.652096 -0.646833
C41   C     C_3   0.776318 0.540826 0.637385 0.164574
H48   H     H_    0.857892 0.615725 0.634660 0.127674
H49   H     H_    0.690479 0.560524 0.680308 0.058251
H50   H     H_    0.701237 0.506331 0.580948 0.234537

loop_
_geom_bond_atom_site_label_1
_geom_bond_atom_site_label_2
_geom_bond_distance
_ccdc_geom_bond_type
C11   O22   1.402474 S    
O14   Ba2   2.846008 S    
O5    C6    1.400310 S    
C21   C22   1.334063 D    
C24   C30   1.403187 A    
C5    H10   1.107901 S    
C2    C3    1.520052 S    
C9    H18   1.109648 S    
C31   H46   1.082395 S    
O4    P6    1.546528 D    
C23   C24   1.388785 A    
C4    C5    1.517380 S    
O8    Ba1   2.767044 S    
C15   H35   1.109839 S    
C33   H44   1.076515 S    
C41   H49   1.109967 S    
C25   C26   1.417357 A    
C18   C19   1.523697 S    
P4    O12   1.524201 D    
C20   C28   1.514518 S    
P5    O19   1.748875 S    
C3    H28   1.109777 S    
C31   C38   1.394023 A    
O13   Ba2   2.907926 S    
C7    H15   1.107831 S    
C4    H8    1.095907 S    
P1    O1    1.523818 D    
C40   H45   1.075549 S    
C8    H16   1.109975 S    
C23   C27   1.404794 A    
P1    Ba1   3.376270 S    
C39   C40   1.403795 A    
C2    H4    1.107717 S    
C2    H3    1.109167 S    
C17   C22   1.322253 D    
C11   H24   1.110670 S    
C33   C34   1.391528 A    
C20   C21   1.516572 S    
C15   C16   1.518194 S    
C23   H41   1.082364 S    
O2    Ba2   2.857646 S    
C7    H14   1.101376 S    
P1    C22   1.863774 S    
P8    O24   1.745597 S    
O12   Ba2   2.849742 S    
P5    O17   1.753601 S    
C1    H2    1.108704 S    
C33   C37   1.410360 A    
O16   Ba2   2.882815 S    
C25   C30   1.393215 A    
O17   Ba2   2.767614 S    
C13   H29   1.110480 S    
P6    C18   1.871233 S    
P2    Ba1   3.416913 S    
C29   H39   1.080964 S    
Ba1   O13   2.857038 S    
C3    H5    1.110440 S    
O3    P6    1.733350 S    
C5    H11   1.109805 S    
C9    H19   1.110200 S    
O6    P6    1.754283 S    
C13   C14   1.522137 S    
C21   H40   1.084882 S    
C35   C36   1.430890 A    
C37   C38   1.421643 A    
P4    O13   1.593997 S    
P5    O18   1.543723 D    
C16   H38   1.110448 S    
P1    O5    1.745391 S    
C12   H27   1.110855 S    
C4    H7    1.097034 S    
C8    C9    1.513072 S    
C13   H30   1.109348 S    
C32   C35   1.402250 A    
C19   C20   1.367465 D    
C16   H37   1.107745 S    
P7    O21   1.571636 D    
H36   C16   1.108585 S    
O1    Ba1   2.849324 S    
C1    H22   1.105539 S    
C6    H13   1.103539 S    
Ba1   O20   2.883641 S    
P3    O11   1.745673 S    
C11   C12   1.523061 S    
C14   H31   1.109360 S    
C6    C7    1.516232 S    
H1    C10   1.110892 S    
P2    O10   1.760847 S    
P3    O9    1.545223 D    
P4    O15   1.757039 S    
C17   H43   1.085490 S    
P5    C39   1.850590 S    
O11   C2    1.403852 S    
O2    Ba1   2.907099 S    
C14   H32   1.107917 S    
C12   H26   1.108067 S    
Ba2   O21   2.900683 S    
C36   C40   1.416579 A    
C27   C29   1.490770 S    
P3    O8    1.734182 S    
C3    H6    1.109998 S    
C9    H20   1.109585 S    
C41   H48   1.097544 S    
O14   P8    1.751984 S    
C15   O24   1.406650 S    
C36   C37   1.431395 A    
C4    O15   1.403820 S    
C19   Cl4   1.777166 S    
P2    C35   1.867343 S    
O7    Ba1   2.900472 S    
C7    Cl1   1.781264 S    
Ba1   O16   2.826397 S    
C15   H34   1.112852 S    
C30   O25   1.355879 S    
P8    O23   1.545994 D    
C26   H42   1.082372 S    
Ba1   Ba2   4.497684 S    
C6    H12   1.101455 S    
C31   C39   1.391290 A    
C32   C34   1.393183 A    
C41   H50   1.089068 S    
P8    C24   1.853554 S    
P4    C25   1.902009 S    
C12   H25   1.110007 S    
C8    H17   1.086735 S    
P2    O7    1.490611 D    
C32   H47   1.082528 S    
C10   H21   1.108885 S    
O25   C41   1.396258 S    
C28   C29   1.363608 D    
C1    Cl2   1.783053 S    
C1    C10   1.524285 S    
O16   P7    1.764661 S    
C11   H23   1.110681 S    
C14   H33   1.109937 S    
O3    Ba1   2.846568 S    
P7    C38   1.855251 S    
O19   C13   1.403903 S    
P4    Ba2   3.376804 S    
P7    O22   1.749754 S    
C26   C27   1.427978 A    
C5    H9    1.108637 S    
P1    O2    1.593996 S    
C17   C18   1.517807 S    
Ba2   O20   2.825828 S    
C28   Cl3   1.767255 S    
O6    C10   1.403191 S    
P3    C34   1.847136 S    
P2    O20   1.600962 S    
O10   C8    1.395838 S    
