data_mof_unit_15875.cif
_audit_creation_date              2013-03-05T15:46:25-0500
_audit_creation_method            fapswitch 2.2
_symmetry_space_group_name_H-M    P1
_symmetry_Int_Tables_number       1
_space_group_crystal_system       triclinic
_cell_length_a                    15.901221
_cell_length_b                    10.920783
_cell_length_c                    9.864839
_cell_angle_alpha                 111.422694
_cell_angle_beta                  97.302838
_cell_angle_gamma                 90.711654
_cell_volume                      1578.56112937

loop_
_atom_site_label
_atom_site_type_symbol
_atom_site_description
_atom_site_fract_x
_atom_site_fract_y
_atom_site_fract_z
_atom_type_partial_charge
O1    O     O_R   0.507820 0.332330 0.577400 -0.599483
O2    O     O_R   0.483070 0.295500 0.332660 -0.485120
C1    C     C_R   0.492242 0.252750 0.440540 0.740054
O3    O     O_R   0.391820 0.518430 0.622420 -0.585984
O4    O     O_R   0.367070 0.481600 0.377680 -0.488668
C2    C     C_R   0.340645 0.499364 0.502289 0.833218
Cu1   Cu    Cu3+1 0.514650 0.521810 0.644910 1.075390
Cu2   Cu    Cu3+1 0.485350 0.478190 0.355090 1.154823
O5    O     O_R   0.516930 0.704500 0.667340 -0.521588
O6    O     O_R   0.492180 0.667670 0.422600 -0.578565
O7    O     O_R   0.632930 0.518400 0.622320 -0.528407
O8    O     O_R   0.608180 0.481570 0.377580 -0.595664
C3    C     C_R   0.503768 0.746910 0.559584 0.806083
C4    C     C_R   0.659339 0.500162 0.497514 0.813639
C5    C     C_3   0.053778 0.436313 0.605537 0.036272
C6    C     C_3   0.039514 0.415551 0.339198 0.080616
C7    C     C_3   0.940226 0.399463 0.342023 0.049850
H1    H     H_    0.926963 0.354734 0.590068 0.105088
H2    H     H_    0.059412 0.328014 0.551076 0.097125
H3    H     H_    0.063516 0.315028 0.309658 0.095048
H4    H     H_    0.929841 0.300100 0.346679 0.115310
C8    C     C_1   0.748138 0.500839 0.491225 -0.011990
C9    C     C_3   0.083599 0.500095 0.499549 -0.123040
C10   C     C_3   0.956814 0.455026 0.615727 0.151061
C11   C     C_3   0.915745 0.502628 0.490629 -0.192532
C12   C     C_3   0.956090 0.640713 0.508278 0.242918
C13   C     C_3   0.054136 0.643290 0.542821 -0.354262
C14   C     C_1   0.823304 0.501790 0.488129 0.149059
C15   C     C_1   0.176341 0.499997 0.507421 0.128982
C16   C     C_1   0.251764 0.499672 0.507780 -0.021606
H5    H     H_    0.075550 0.700027 0.660744 0.274084
H6    H     H_    0.083906 0.696290 0.482034 0.224482
H7    H     H_    0.943098 0.647860 0.398772 0.193784
H8    H     H_    0.451336 0.146448 0.622637 0.188768
C17   C     C_2   0.483258 0.110249 0.409618 0.197223
C18   C     C_2   0.461073 0.072971 0.517417 -0.230433
C19   C     C_2   0.504477 0.889260 0.590910 0.077672
C20   C     C_2   0.450530 0.935255 0.504278 0.273739
H9    H     H_    0.442693 0.419245 0.840820 0.207641
H10   H     H_    0.555028 0.583061 0.148040 0.118757
N1    N     N_2   0.463320 0.445430 0.137380 0.002278
C21   C     C_2   0.505860 0.509671 0.077330 0.096185
H11   H     H_    0.583880 0.621025 0.933722 0.240980
N2    N     N_2   0.536720 0.554500 0.862620 -0.285796
C22   C     C_2   0.491551 0.489425 0.916398 0.043363
N3    N     N_R   0.108325 0.476017 0.749006 0.211773
O9    O     O_R   0.135877 0.597920 0.823012 -0.252941
O10   O     O_R   0.138318 0.385298 0.794504 -0.240103
S1    S     S_3+6 0.931870 0.542986 0.799121 0.159260
O11   O     O_2   0.837782 0.554701 0.798051 -0.230815
O12   O     O_2   0.960082 0.462950 0.889703 -0.106834
O13   O     O_3   0.981948 0.693745 0.876845 -0.412079
H12   H     H_    0.968600 0.728170 0.978966 0.408188
N4    N     N_R   0.377738 0.855817 0.407605 0.151451
O14   O     O_R   0.334396 0.776906 0.448744 -0.345863
O15   O     O_R   0.344269 0.882710 0.295073 -0.255352
N5    N     N_R   0.568679 0.974769 0.704366 0.134256
O16   O     O_R   0.590365 0.952042 0.824279 -0.231564
O17   O     O_R   0.613524 0.063545 0.680646 -0.305583
N6    N     N_R   0.499994 0.016003 0.269946 0.167268
O18   O     O_R   0.490580 0.046122 0.153132 -0.231184
O19   O     O_R   0.532733 0.905227 0.261466 -0.332278
S2    S     S_3+6 0.384220 0.326000 0.030686 0.168807
O20   O     O_2   0.316568 0.387782 0.960556 -0.228655
O21   O     O_2   0.421706 0.219721 0.912892 -0.278026
O22   O     O_3   0.339544 0.257479 0.133758 -0.457969
H13   H     H_    0.293199 0.195682 0.065515 0.372591
S3    S     S_3+6 0.072432 0.473025 0.200628 0.130986
O23   O     O_2   0.018378 0.578954 0.182198 -0.170243
O24   O     O_2   0.163093 0.528108 0.239406 -0.227545
O25   O     O_3   0.065670 0.344372 0.039950 -0.368379
H14   H     H_    0.110275 0.286593 0.055912 0.355253
S4    S     S_3+6 0.868383 0.382683 0.176198 0.116330
O26   O     O_2   0.902787 0.292974 0.042517 -0.111873
O27   O     O_2   0.784704 0.319602 0.180703 -0.271649
O28   O     O_3   0.850747 0.528385 0.159312 -0.429661
H15   H     H_    0.804867 0.564744 0.218883 0.347498
S5    S     S_3+6 0.911711 0.789669 0.622132 0.076506
O29   O     O_2   0.845975 0.762839 0.706005 -0.200828
O30   O     O_2   0.980593 0.884389 0.728835 -0.211619
O31   O     O_3   0.865053 0.861641 0.510141 -0.513254
H16   H     H_    0.843018 0.943047 0.576344 0.403779

loop_
_geom_bond_atom_site_label_1
_geom_bond_atom_site_label_2
_geom_bond_distance
_ccdc_geom_bond_type
S2    O21   1.503575 D    
N1    C21   1.301666 D    
C17   C18   1.352442 D    
O31   H16   0.990668 S    
Cu1   Cu2   2.697961 S    
O13   H12   0.990422 S    
C11   C14   1.466853 S    
Cu1   O7    1.921113 S    
C12   C13   1.550603 S    
C15   C16   1.198918 T    
H1    C10   1.114906 S    
C9    C15   1.466901 S    
O4    C2    1.297839 A    
O7    C4    1.298550 A    
S5    O30   1.503680 D    
N5    O17   1.301605 A    
N6    O19   1.301665 A    
S4    O26   1.500373 D    
O5    C3    1.301444 A    
N4    O14   1.301601 A    
C6    C7    1.591260 S    
S1    O12   1.497350 D    
C6    S3    1.826765 S    
C9    C13   1.558393 S    
C3    C19   1.469719 S    
C6    H3    1.113872 S    
H9    C22   1.080459 S    
H10   C21   1.085170 S    
O22   H13   0.990651 S    
S2    O22   1.680694 S    
C8    C14   1.199510 T    
C7    S4    1.820807 S    
S4    O27   1.503885 D    
O3    Cu1   1.935828 S    
N3    O10   1.300991 A    
O28   H15   0.990445 S    
N4    O15   1.301417 A    
C13   H5    1.104832 S    
C10   C11   1.578555 S    
O3    C2    1.296266 A    
S5    O29   1.500798 D    
S3    O23   1.499558 D    
C11   C12   1.572177 S    
C7    H4    1.113897 S    
N6    O18   1.301067 A    
O1    C1    1.300750 A    
C21   C22   1.507161 S    
C5    H2    1.116320 S    
H11   N2    1.030843 S    
C19   C20   1.362517 D    
C12   H7    1.104982 S    
C20   N4    1.446331 S    
C1    C17   1.473739 S    
Cu2   O8    1.935827 S    
S1    O13   1.680086 S    
C12   S5    1.816871 S    
Cu1   N2    2.026895 S    
Cu2   N1    2.026710 S    
Cu2   O6    1.925240 S    
C5    C10   1.568889 S    
C2    C16   1.421219 S    
O8    C4    1.295574 A    
C6    C9    1.575185 S    
S4    O28   1.682577 S    
N1    S2    1.735171 S    
N2    C22   1.289173 D    
C10   S1    1.809831 S    
Cu1   O5    1.924697 S    
N3    O9    1.300555 A    
C13   H6    1.112473 S    
O1    Cu1   1.925239 S    
O2    Cu2   1.924694 S    
O6    C3    1.298995 A    
O4    Cu2   1.921114 S    
C7    C11   1.587274 S    
C4    C8    1.421275 S    
C18   C20   1.467185 S    
O2    C1    1.302677 A    
O25   H14   0.990612 S    
S5    O31   1.682014 S    
N5    O16   1.301043 A    
S3    O25   1.680508 S    
C5    C9    1.566226 S    
H8    C18   1.086635 S    
S2    O20   1.503637 D    
S3    O24   1.502209 D    
S1    O11   1.502176 D    
C17   N6    1.446614 S    
C5    N3    1.474341 S    
C19   N5    1.445428 S    
