data_mof_unit_44460.cif
_audit_creation_date              2012-12-11T16:21:23-0500
_audit_creation_method            fapswitch 2.2
_symmetry_space_group_name_H-M    P1
_symmetry_Int_Tables_number       1
_space_group_crystal_system       triclinic
_cell_length_a                    7.19051
_cell_length_b                    37.065376
_cell_length_c                    41.264152
_cell_angle_alpha                 89.958406
_cell_angle_beta                  90.076177
_cell_angle_gamma                 90.104909
_cell_volume                      10997.6477095

loop_
_atom_site_label
_atom_site_type_symbol
_atom_type_description
_atom_site_fract_x
_atom_site_fract_y
_atom_site_fract_z
_atom_type_partial_charge
O1    O     O_R   0.564240 0.782760 0.216890 -0.539108
O2    O     O_R   0.435760 0.217240 0.783110 -0.519589
O3    O     O_R   0.435760 0.217240 0.716890 -0.538982
O4    O     O_R   0.564240 0.782760 0.283110 -0.526350
O5    O     O_R   0.064240 0.717240 0.283110 -0.526365
O6    O     O_R   0.935760 0.282760 0.716890 -0.529149
O7    O     O_R   0.935760 0.282760 0.783110 -0.525950
O8    O     O_R   0.064240 0.717240 0.216890 -0.533558
O9    O     O_R   0.234510 0.787070 0.282870 -0.538525
O10   O     O_R   0.765490 0.212930 0.717130 -0.545200
O11   O     O_R   0.765490 0.212930 0.782870 -0.542051
O12   O     O_R   0.234510 0.787070 0.217130 -0.534794
O13   O     O_R   0.734510 0.712930 0.217130 -0.534511
O14   O     O_R   0.265490 0.287070 0.782870 -0.537884
O15   O     O_R   0.265490 0.287070 0.717130 -0.536458
O16   O     O_R   0.734510 0.712930 0.282870 -0.537748
C1    C     C_R   0.403127 0.794890 0.294204 0.699447
C2    C     C_R   0.596521 0.204892 0.705852 0.709480
C3    C     C_R   0.596756 0.204722 0.794043 0.701777
C4    C     C_R   0.403003 0.795611 0.206623 0.690252
C5    C     C_R   0.902870 0.704801 0.206095 0.683407
C6    C     C_R   0.097245 0.294905 0.794459 0.703048
C7    C     C_R   0.097114 0.294960 0.705871 0.689021
C8    C     C_R   0.902914 0.705062 0.294218 0.702875
O17   O     O_3   0.397750 0.727090 0.250000 -0.370524
O18   O     O_3   0.602250 0.272910 0.750000 -0.365092
O19   O     O_3   0.897750 0.772910 0.250000 -0.372430
O20   O     O_3   0.102250 0.227090 0.750000 -0.375391
V1    V     V_3+5 0.122890 0.754250 0.250000 1.441591
V2    V     V_3+5 0.877110 0.245750 0.750000 1.427808
V3    V     V_3+5 0.622890 0.745750 0.250000 1.443844
V4    V     V_3+5 0.377110 0.254250 0.750000 1.439747
C9    C     C_R   0.804057 0.597167 0.419045 0.557314
C10   C     C_R   0.192254 0.402536 0.581157 0.558546
C11   C     C_R   0.014736 0.387874 0.929640 0.562626
C12   C     C_R   0.088695 0.604954 0.080719 0.574062
C13   C     C_R   0.309775 0.900994 0.080118 0.550871
C14   C     C_R   0.701940 0.094726 0.917537 0.557800
C15   C     C_R   0.701271 0.097298 0.580523 0.560281
C16   C     C_R   0.310080 0.902364 0.418992 0.556951
O21   O     O_2   0.654996 0.619144 0.416883 -0.530911
O22   O     O_2   0.342539 0.380914 0.583625 -0.525917
O23   O     O_2   0.960548 0.353428 0.934620 -0.537976
O24   O     O_2   0.199022 0.634446 0.081671 -0.532036
O25   O     O_2   0.151686 0.881802 0.084123 -0.523948
O26   O     O_2   0.848654 0.117450 0.916023 -0.536431
O27   O     O_2   0.848901 0.119776 0.582282 -0.529195
O28   O     O_2   0.160762 0.880334 0.416926 -0.531250
N1    N     N_R   0.943845 0.600049 0.396883 -0.542933
N2    N     N_R   0.051762 0.399440 0.603134 -0.545278
N3    N     N_R   0.090186 0.397892 0.900459 -0.536852
N4    N     N_R   0.959685 0.599641 0.104444 -0.544544
N5    N     N_R   0.454443 0.896559 0.101272 -0.543133
N6    N     N_R   0.563383 0.097162 0.895014 -0.540388
N7    N     N_R   0.563149 0.099671 0.603037 -0.541714
N8    N     N_R   0.449059 0.899653 0.396692 -0.543080
C17   C     C_R   0.097476 0.578328 0.398515 0.571357
C18   C     C_R   0.896967 0.420790 0.601296 0.574468
C19   C     C_R   0.163294 0.431938 0.896642 0.533884
C20   C     C_R   0.846008 0.570001 0.104442 0.552242
C21   C     C_R   0.615005 0.916247 0.097830 0.575263
C22   C     C_R   0.412300 0.074590 0.896077 0.566587
C23   C     C_R   0.411057 0.077392 0.601791 0.569096
C24   C     C_R   0.603078 0.921373 0.398221 0.570844
C25   C     C_R   0.797397 0.624143 0.347172 -0.094276
C26   C     C_R   0.185748 0.377808 0.654684 -0.088957
C27   C     C_R   0.248285 0.367146 0.854406 -0.113044
C28   C     C_R   0.043739 0.622290 0.158621 -0.095610
C29   C     C_R   0.472346 0.881861 0.159843 -0.090948
C30   C     C_R   0.719475 0.125159 0.847778 -0.112009
C31   C     C_R   0.715833 0.125630 0.651586 -0.090856
C32   C     C_R   0.301169 0.875791 0.347061 -0.094624
C33   C     C_R   0.788308 0.649927 0.322512 -0.239079
C34   C     C_R   0.196104 0.352122 0.679409 -0.228953
C35   C     C_R   0.246351 0.342699 0.828645 -0.257014
C36   C     C_R   0.028758 0.648142 0.183075 -0.232073
C37   C     C_R   0.462494 0.857050 0.185302 -0.244083
C38   C     C_R   0.726540 0.151577 0.823638 -0.266442
C39   C     C_R   0.722008 0.151320 0.676414 -0.247989
C40   C     C_R   0.290604 0.850023 0.322454 -0.242021
C41   C     C_R   0.043723 0.683545 0.347452 0.258667
C42   C     C_R   0.972203 0.313981 0.650780 0.253543
C43   C     C_R   0.932116 0.323938 0.843087 0.267194
C44   C     C_R   0.813901 0.683170 0.149670 0.256917
C45   C     C_R   0.368887 0.810081 0.147464 0.224894
C46   C     C_R   0.437890 0.177859 0.843780 0.255400
C47   C     C_R   0.445291 0.180112 0.654330 0.242835
C48   C     C_R   0.544953 0.816175 0.347355 0.259065
C49   C     C_R   0.053426 0.656542 0.371672 -0.110572
C50   C     C_R   0.958967 0.341013 0.626668 -0.099570
C51   C     C_R   0.930146 0.351819 0.866539 -0.124524
C52   C     C_R   0.826755 0.656018 0.125677 -0.107796
C53   C     C_R   0.386739 0.834903 0.121880 -0.093561
C54   C     C_R   0.434751 0.151094 0.868169 -0.119555
C55   C     C_R   0.441964 0.154300 0.629558 -0.100324
C56   C     C_R   0.556185 0.843161 0.371512 -0.111172
C57   C     C_R   0.931331 0.627044 0.371657 0.323701
C58   C     C_R   0.065359 0.372636 0.628444 0.326071
C59   C     C_R   0.089339 0.372490 0.873456 0.319178
C60   C     C_R   0.942353 0.626038 0.129909 0.338194
C61   C     C_R   0.437488 0.870980 0.127772 0.320364
C62   C     C_R   0.573302 0.124658 0.870145 0.331126
C63   C     C_R   0.574710 0.126768 0.628159 0.314810
C64   C     C_R   0.435382 0.872755 0.371474 0.324782
C65   C     C_R   0.973013 0.549436 0.447194 -0.066079
C66   C     C_R   0.022279 0.449986 0.552827 -0.065854
C67   C     C_R   0.073438 0.447662 0.951749 -0.070928
C68   C     C_R   0.993305 0.548948 0.054595 -0.065780
C69   C     C_R   0.484135 0.947089 0.050766 -0.066141
C70   C     C_R   0.534716 0.046372 0.945185 -0.066612
C71   C     C_R   0.532515 0.049276 0.552640 -0.066192
C72   C     C_R   0.480525 0.949991 0.447076 -0.066224
C73   C     C_R   0.815168 0.571817 0.444269 -0.038876
C74   C     C_R   0.180711 0.427770 0.555855 -0.040269
C75   C     C_R   0.993400 0.413115 0.954693 -0.024037
C76   C     C_R   0.107141 0.580012 0.055371 -0.034018
C77   C     C_R   0.323337 0.925588 0.054323 -0.037423
C78   C     C_R   0.691821 0.069078 0.942516 -0.036661
C79   C     C_R   0.689825 0.071941 0.555340 -0.039545
C80   C     C_R   0.322270 0.927592 0.444242 -0.038528
C81   C     C_R   0.669735 0.568437 0.466416 -0.150046
C82   C     C_R   0.326383 0.431250 0.533774 -0.149300
C83   C     C_R   0.895771 0.404045 0.982835 -0.139487
C84   C     C_R   0.239759 0.585440 0.031116 -0.154147
C85   C     C_R   0.176160 0.929517 0.032534 -0.147887
C86   C     C_R   0.837273 0.065792 0.964732 -0.149464
C87   C     C_R   0.834122 0.068916 0.532953 -0.150240
C88   C     C_R   0.177537 0.930809 0.466511 -0.150434
C89   C     C_R   0.117325 0.552211 0.423781 -0.065527
C90   C     C_R   0.877615 0.447091 0.576169 -0.066807
C91   C     C_R   0.172203 0.456565 0.923167 -0.053218
C92   C     C_R   0.860447 0.543300 0.079617 -0.069120
C93   C     C_R   0.630680 0.943605 0.073633 -0.065617
C94   C     C_R   0.391074 0.048866 0.921588 -0.063082
C95   C     C_R   0.389267 0.051744 0.576252 -0.063487
C96   C     C_R   0.624306 0.947302 0.423571 -0.065034
C97   C     C_R   0.912234 0.679340 0.321856 -0.125099
C98   C     C_R   0.087706 0.320540 0.678250 -0.123259
C99   C     C_R   0.089962 0.320822 0.822335 -0.131259
C100  C     C_R   0.912946 0.678372 0.179243 -0.110910
C101  C     C_R   0.411557 0.821152 0.179395 -0.090324
C102  C     C_R   0.586683 0.177972 0.821011 -0.115937
C103  C     C_R   0.586233 0.178575 0.678615 -0.113927
C104  C     C_R   0.413285 0.820515 0.321818 -0.123215
H1    H     H_    0.153317 0.658215 0.391209 0.142056
H2    H     H_    0.868459 0.337689 0.605950 0.137782
H3    H     H_    0.806962 0.356909 0.880713 0.140431
H4    H     H_    0.750269 0.658084 0.103179 0.131204
H5    H     H_    0.362585 0.825960 0.097249 0.146714
H6    H     H_    0.325909 0.150569 0.886217 0.145676
H7    H     H_    0.334400 0.155606 0.611175 0.158656
H8    H     H_    0.656204 0.841401 0.391021 0.141576
H9    H     H_    0.545206 0.584682 0.464160 0.170248
H10   H     H_    0.451302 0.415131 0.536113 0.170619
H11   H     H_    0.836120 0.377406 0.985954 0.167750
H12   H     H_    0.331663 0.608631 0.031663 0.166553
H13   H     H_    0.049375 0.913951 0.035228 0.173195
H14   H     H_    0.961536 0.082214 0.962609 0.170379
H15   H     H_    0.958111 0.085435 0.534995 0.170569
H16   H     H_    0.052830 0.914514 0.464342 0.170305
C105  C     C_R   0.851559 0.497289 0.523205 0.001691
C106  C     C_R   0.143522 0.502093 0.476797 0.001880
C107  C     C_R   0.911052 0.491120 0.029146 0.008564
C108  C     C_R   0.152574 0.506125 0.976405 0.010163
C109  C     C_R   0.363559 0.999075 0.974750 0.002434
C110  C     C_R   0.655901 0.994280 0.021177 0.001441
C111  C     C_R   0.652192 0.997334 0.476570 0.002199
C112  C     C_R   0.361277 0.001864 0.523180 0.002522
C113  C     C_R   0.157813 0.477643 0.503544 0.044534
C114  C     C_R   0.837477 0.521807 0.496497 0.044434
C115  C     C_R   0.142606 0.530380 0.003272 0.045550
C116  C     C_R   0.943189 0.464489 0.004888 0.046192
C117  C     C_R   0.670084 0.018832 0.994521 0.044541
C118  C     C_R   0.348209 0.974918 0.001654 0.045270
C119  C     C_R   0.346450 0.977410 0.496486 0.044812
C120  C     C_R   0.666616 0.021928 0.503187 0.044496
C121  C     C_R   0.010097 0.474998 0.526417 0.063044
C122  C     C_R   0.985091 0.524412 0.473599 0.062702
C123  C     C_R   0.015182 0.523456 0.028919 0.055388
C124  C     C_R   0.056206 0.472895 0.977684 0.057871
C125  C     C_R   0.522444 0.021372 0.971573 0.062307
C126  C     C_R   0.496611 0.972094 0.024399 0.062938
C127  C     C_R   0.493497 0.974947 0.473481 0.062199
C128  C     C_R   0.519751 0.024312 0.526238 0.062141
C129  C     C_R   0.713176 0.495006 0.547351 -0.201421
C130  C     C_R   0.281871 0.504349 0.452649 -0.201519
C131  C     C_R   0.776018 0.486412 0.053479 -0.195463
C132  C     C_R   0.257823 0.513882 0.948400 -0.196976
C133  C     C_R   0.225415 0.001162 0.950515 -0.202145
C134  C     C_R   0.793774 0.992174 0.045482 -0.202267
C135  C     C_R   0.790819 0.994927 0.452488 -0.201191
C136  C     C_R   0.222882 0.004155 0.547305 -0.201208
C137  C     C_R   0.721884 0.470654 0.573327 0.084048
C138  C     C_R   0.273360 0.528731 0.426702 0.083777
C139  C     C_R   0.750229 0.511254 0.078686 0.087851
C140  C     C_R   0.272614 0.489753 0.922284 0.092398
C141  C     C_R   0.234087 0.025541 0.924591 0.083466
C142  C     C_R   0.784663 0.967755 0.071401 0.085385
C143  C     C_R   0.781321 0.970627 0.426522 0.083464
C144  C     C_R   0.232022 0.028498 0.573219 0.083504
O29   O     O_2   0.763880 0.416190 0.623830 -0.529168
O30   O     O_2   0.228697 0.582275 0.375554 -0.533881
O31   O     O_2   0.721053 0.566795 0.128528 -0.536208
O32   O     O_2   0.219260 0.442341 0.866959 -0.545275
O33   O     O_2   0.285345 0.077163 0.872195 -0.540308
O34   O     O_2   0.759831 0.908403 0.117273 -0.519038
O35   O     O_2   0.733234 0.917611 0.375069 -0.534607
O36   O     O_2   0.283625 0.080206 0.625510 -0.537964
C145  C     C_R   0.678870 0.543723 0.491571 -0.187810
C146  C     C_R   0.316867 0.455874 0.508557 -0.187826
C147  C     C_R   0.869166 0.429249 0.007252 -0.185864
C148  C     C_R   0.257258 0.561280 0.005627 -0.183841
C149  C     C_R   0.187070 0.953769 0.007040 -0.189611
C150  C     C_R   0.828718 0.040854 0.989711 -0.187974
C151  C     C_R   0.824571 0.044212 0.507828 -0.186767
C152  C     C_R   0.187646 0.955403 0.491696 -0.187515
H17   H     H_    0.286967 0.357219 0.699870 0.146895
H18   H     H_    0.685973 0.646497 0.303467 0.152192
H19   H     H_    0.107280 0.644450 0.205257 0.141662
H20   H     H_    0.370306 0.340555 0.813899 0.171612
H21   H     H_    0.840657 0.150940 0.806541 0.160906
H22   H     H_    0.493155 0.865937 0.209743 0.128165
H23   H     H_    0.188229 0.853541 0.303435 0.151052
H24   H     H_    0.831768 0.149445 0.694336 0.150271
H25   H     H_    0.269446 0.402057 0.656151 0.130983
H26   H     H_    0.701746 0.601550 0.346993 0.139438
H27   H     H_    0.134095 0.599244 0.162000 0.131887
H28   H     H_    0.374920 0.381984 0.859406 0.145200
H29   H     H_    0.827387 0.104852 0.848933 0.149002
H30   H     H_    0.508750 0.909617 0.165070 0.130826
H31   H     H_    0.206448 0.898462 0.346911 0.138603
H32   H     H_    0.819787 0.104550 0.650784 0.144302
H33   H     H_    0.595550 0.512804 0.547180 0.122783
H34   H     H_    0.399501 0.486546 0.452816 0.122832
H35   H     H_    0.682770 0.463625 0.052801 0.118321
H36   H     H_    0.329710 0.539212 0.945995 0.114669
H37   H     H_    0.107661 0.983282 0.950639 0.122945
H38   H     H_    0.910422 0.010292 0.045543 0.122646
H39   H     H_    0.909861 0.012439 0.452764 0.122744
H40   H     H_    0.104131 0.986559 0.547087 0.122669
H41   H     H_    0.556313 0.542467 0.506423 0.126661
H42   H     H_    0.439597 0.457224 0.493753 0.126694
H43   H     H_    0.795275 0.419799 0.028337 0.121508
H44   H     H_    0.366392 0.567238 0.988594 0.122563
H45   H     H_    0.063444 0.955544 0.992437 0.127049
H46   H     H_    0.951521 0.039543 0.004555 0.127165
H47   H     H_    0.946112 0.043379 0.492719 0.126311
H48   H     H_    0.065632 0.956458 0.506681 0.126357
N9    N     N_2   0.159938 0.715106 0.348839 -0.512450
H49   H     H_    0.102170 0.738163 0.339178 0.260774
C153  C     C_3   0.269695 0.722218 0.377605 -0.561562
H50   H     H_    0.341045 0.748631 0.375122 0.201602
H51   H     H_    0.378023 0.701166 0.380666 0.229887
H52   H     H_    0.178632 0.723516 0.399305 0.196580
N10   N     N_2   0.874669 0.280297 0.647331 -0.518325
H53   H     H_    0.921226 0.259527 0.661786 0.259206
C154  C     C_3   0.828280 0.267880 0.615015 -0.560802
H54   H     H_    0.777459 0.239580 0.616148 0.207195
H55   H     H_    0.953054 0.268617 0.599162 0.206758
H56   H     H_    0.714998 0.284547 0.604569 0.213775
N11   N     N_2   0.783367 0.298035 0.841360 -0.506431
H57   H     H_    0.826851 0.272223 0.836146 0.252910
C155  C     C_3   0.641117 0.297780 0.866190 -0.541984
H58   H     H_    0.539984 0.275880 0.861183 0.184009
H59   H     H_    0.563327 0.323511 0.866120 0.202356
H60   H     H_    0.704434 0.292916 0.890379 0.219136
N12   N     N_2   0.707392 0.715310 0.143984 -0.519874
H61   H     H_    0.734286 0.736700 0.159218 0.247394
C156  C     C_3   0.673852 0.726399 0.110769 -0.532481
H62   H     H_    0.621985 0.754564 0.110174 0.217704
H63   H     H_    0.566419 0.708845 0.099545 0.230973
H64   H     H_    0.804458 0.725460 0.096448 0.188196
N13   N     N_2   0.314657 0.773893 0.140513 -0.533434
H65   H     H_    0.356972 0.754779 0.157099 0.267777
C157  C     C_3   0.122377 0.769490 0.131061 -0.492816
H66   H     H_    0.096299 0.740751 0.125011 0.205404
H67   H     H_    0.090305 0.786049 0.109326 0.214442
H68   H     H_    0.029290 0.777402 0.151320 0.191283
N14   N     N_2   0.296803 0.205083 0.842233 -0.512465
H69   H     H_    0.345146 0.231151 0.840097 0.246810
C158  C     C_3   0.128404 0.201536 0.861166 -0.501114
H70   H     H_    0.026400 0.222140 0.853183 0.181457
H71   H     H_    0.159021 0.205911 0.887259 0.197086
H72   H     H_    0.064911 0.174534 0.857407 0.225838
N15   N     N_2   0.308002 0.207664 0.653321 -0.524373
H73   H     H_    0.224916 0.209861 0.673517 0.271185
C159  C     C_3   0.370706 0.241641 0.640021 -0.511646
H74   H     H_    0.251398 0.260307 0.637718 0.199669
H75   H     H_    0.429921 0.237469 0.615466 0.202892
H76   H     H_    0.476496 0.254190 0.656104 0.209663
N16   N     N_2   0.659872 0.784514 0.348725 -0.512206
H77   H     H_    0.600951 0.761499 0.339143 0.260876
C160  C     C_3   0.770154 0.777337 0.377409 -0.561736
H78   H     H_    0.840508 0.750881 0.374900 0.201531
H79   H     H_    0.679634 0.776098 0.399186 0.196649
H80   H     H_    0.879300 0.798323 0.380352 0.229635
C161  C     C_3   0.561491 0.472137 0.597345 -0.298524
C162  C     C_3   0.615937 0.493006 0.628037 -0.279112
C163  C     C_3   0.461173 0.491432 0.653263 -0.744016
H81   H     H_    0.330521 0.502864 0.643210 0.220023
H82   H     H_    0.436170 0.463087 0.660858 0.240037
H83   H     H_    0.502327 0.507373 0.674893 0.218236
H84   H     H_    0.745341 0.481971 0.638855 0.223405
H85   H     H_    0.642708 0.521680 0.621595 0.181332
H86   H     H_    0.439425 0.486062 0.586470 0.148810
H87   H     H_    0.507437 0.444847 0.602796 0.233855
C164  C     C_3   0.435393 0.527638 0.403007 -0.298117
C165  C     C_3   0.385256 0.506295 0.372361 -0.278033
C166  C     C_3   0.541243 0.508430 0.347394 -0.745646
H88   H     H_    0.563476 0.536843 0.339730 0.239906
H89   H     H_    0.672601 0.497616 0.357720 0.220496
H90   H     H_    0.503191 0.492213 0.325758 0.217279
H91   H     H_    0.361758 0.477551 0.378935 0.180763
H92   H     H_    0.255071 0.516623 0.361266 0.224379
H93   H     H_    0.487113 0.555088 0.397485 0.231687
H94   H     H_    0.558052 0.514271 0.414242 0.149410
C167  C     C_3   0.606476 0.501101 0.104100 -0.309789
C168  C     C_3   0.421595 0.520813 0.098509 -0.253628
C169  C     C_3   0.289582 0.514734 0.126914 -0.739342
H95   H     H_    0.257735 0.485552 0.129604 0.220503
H96   H     H_    0.352567 0.525002 0.149714 0.245155
H97   H     H_    0.157957 0.529425 0.122653 0.213795
H98   H     H_    0.443941 0.550246 0.095333 0.232173
H99   H     H_    0.355579 0.510465 0.075968 0.185910
H100  H     H_    0.576982 0.471631 0.103282 0.143091
H101  H     H_    0.662504 0.505196 0.128872 0.212738
C170  C     C_3   0.410338 0.499731 0.895714 -0.305997
C171  C     C_3   0.582348 0.475152 0.896721 -0.291828
C172  C     C_3   0.718055 0.484471 0.869590 -0.726563
H102  H     H_    0.649298 0.481498 0.845617 0.240937
H103  H     H_    0.769458 0.512578 0.872377 0.222578
H104  H     H_    0.838566 0.465874 0.870561 0.236326
H105  H     H_    0.654414 0.478427 0.920413 0.191589
H106  H     H_    0.541994 0.446363 0.894311 0.212298
H107  H     H_    0.342710 0.499838 0.871583 0.218807
H108  H     H_    0.460266 0.527943 0.898801 0.147207
C173  C     C_3   0.069040 0.025216 0.901454 -0.298211
C174  C     C_3   0.110154 0.002918 0.870997 -0.276897
C175  C     C_3   0.952339 0.006183 0.846411 -0.742578
H109  H     H_    0.819392 0.996730 0.857200 0.220599
H110  H     H_    0.936748 0.034678 0.838504 0.241704
H111  H     H_    0.983788 0.989362 0.824857 0.216370
H112  H     H_    0.241907 0.011768 0.859442 0.226890
H113  H     H_    0.126337 0.974093 0.877909 0.179451
H114  H     H_    0.945220 0.012995 0.913355 0.150456
H115  H     H_    0.022629 0.052954 0.895693 0.227506
C176  C     C_3   0.938970 0.970540 0.096635 -0.295768
C177  C     C_3   0.869005 0.987862 0.128105 -0.285935
C178  C     C_3   0.020197 0.987692 0.154094 -0.752213
H116  H     H_    0.061329 0.959543 0.159934 0.246383
H117  H     H_    0.144253 0.002897 0.145623 0.220204
H118  H     H_    0.966810 0.000670 0.176460 0.215681
H119  H     H_    0.827352 0.016208 0.123144 0.183941
H120  H     H_    0.745283 0.973349 0.137566 0.212061
H121  H     H_    0.004476 0.944064 0.101032 0.243094
H122  H     H_    0.055847 0.987443 0.087546 0.146702
C179  C     C_3   0.943596 0.971596 0.402866 -0.297544
C180  C     C_3   0.895173 0.993310 0.372340 -0.277206
C181  C     C_3   0.051227 0.991131 0.347399 -0.749547
H123  H     H_    0.183263 0.001572 0.357837 0.220972
H124  H     H_    0.071472 0.962760 0.339533 0.239476
H125  H     H_    0.014537 0.007651 0.325872 0.216198
H126  H     H_    0.764400 0.983319 0.361150 0.224092
H127  H     H_    0.873536 0.022034 0.379085 0.180668
H128  H     H_    0.067107 0.984622 0.414204 0.149357
H129  H     H_    0.993419 0.944097 0.397195 0.231761
C182  C     C_3   0.067661 0.028052 0.596437 -0.297820
C183  C     C_3   0.110116 0.005690 0.626850 -0.277447
C184  C     C_3   0.952622 0.008612 0.651455 -0.744199
H130  H     H_    0.936317 0.037033 0.659474 0.240533
H131  H     H_    0.819775 0.999073 0.640640 0.220697
H132  H     H_    0.984972 0.991693 0.672942 0.216696
H133  H     H_    0.127298 0.976918 0.619880 0.179972
H134  H     H_    0.241713 0.014693 0.638415 0.226221
H135  H     H_    0.021043 0.055738 0.602252 0.229664
H136  H     H_    0.943561 0.015813 0.584598 0.150006

loop_
_geom_bond_atom_site_label_1
_geom_bond_atom_site_label_2
_ccdc_geom_bond_type
C167  H101  S    
C69   C126  A    
C112  C119  A    
C129  H33   S    
N10   C154  S    
C151  H47   S    
C179  C180  S    
C32   H31   S    
N16   H77   S    
C10   O22   S    
C133  H37   S    
C20   C92   A    
C173  C174  S    
C21   C93   A    
O15   V4    S    
C158  H72   S    
C19   C91   A    
C168  H98   S    
C114  C122  A    
C119  C127  A    
C179  H128  S    
C120  C128  A    
C164  H93   S    
C113  C121  A    
C85   C149  A    
C17   O30   S    
C159  H75   S    
C11   C75   A    
C138  C164  S    
C66   C121  A    
C142  C176  S    
C21   O34   S    
C184  H132  S    
C86   H14   S    
C135  H39   S    
C70   C78   A    
C43   C99   A    
C170  H108  S    
O13   V3    S    
C75   C83   A    
C69   C93   A    
C39   H24   S    
C146  H42   S    
C53   C61   A    
C72   C80   A    
C6    C99   S    
C44   N12   S    
O16   V3    S    
C171  H105  S    
O10   V2    S    
O12   C4    A    
C30   C62   A    
O13   C5    A    
C107  C116  A    
O6    V2    S    
C23   O36   S    
C156  H63   S    
C11   N3    A    
C42   N10   S    
C12   O24   S    
C54   H6    S    
C162  C163  S    
C45   C101  A    
C111  C135  A    
C15   O27   S    
C133  C141  A    
C16   O28   S    
C56   C64   A    
O1    C4    A    
O2    C3    A    
C47   N15   S    
C108  C132  A    
C139  C167  S    
C29   C61   A    
C152  H48   S    
O7    C6    A    
C43   C51   A    
C112  C136  A    
C118  C149  A    
C119  C152  A    
N15   C159  S    
C40   H23   S    
C183  H134  S    
C87   C151  A    
C106  C113  A    
C33   C97   A    
O10   C2    A    
C26   H25   S    
C177  C178  S    
N14   C158  S    
C37   C101  A    
C165  H91   S    
N1    C57   S    
C13   C77   A    
C54   C62   A    
C42   C98   A    
C49   C57   A    
C181  H123  S    
C154  H55   S    
O17   V3    S    
C24   C96   A    
O18   V4    S    
C178  H116  S    
O12   V1    S    
O19   V1    S    
C29   C37   A    
C110  C126  A    
C148  H44   S    
C90   C137  A    
C118  C126  A    
C51   H3    S    
C177  H120  S    
C49   H1    S    
N9    H49   S    
C1    C104  S    
O8    V1    S    
C65   C73   A    
C2    C103  S    
N16   C160  S    
N11   H57   S    
C136  H40   S    
C36   H19   S    
C174  H112  S    
C56   H8    S    
O1    V3    S    
N1    C17   A    
O2    V4    S    
C154  H54   S    
N4    C20   A    
C45   C53   A    
C19   O32   S    
C39   C103  A    
C70   C125  A    
C40   C104  A    
N7    C23   A    
C105  C129  A    
C82   C146  A    
C180  H127  S    
C176  H122  S    
C11   O23   S    
N11   C155  S    
C12   N4    A    
C13   N5    A    
C136  C144  A    
C172  H103  S    
C115  C123  A    
C72   C96   A    
C161  H86   S    
C55   C63   A    
N13   H65   S    
C166  H89   S    
C24   O35   S    
N2    C58   S    
C157  H68   S    
C181  H124  S    
C145  H41   S    
C52   C60   A    
C66   C90   A    
C153  H52   S    
C109  C118  A    
N4    C60   S    
C68   C123  A    
C182  H136  S    
C28   C60   A    
C160  H78   S    
C143  C179  S    
C144  C182  S    
C149  H45   S    
C88   C152  A    
C173  H115  S    
C178  H118  S    
C107  C123  A    
C70   C94   A    
C27   C35   A    
C12   C76   A    
C167  H100  S    
C31   C63   A    
C106  C122  A    
C4    C101  S    
C130  C138  A    
C171  C172  S    
C10   N2    A    
N12   H61   S    
C26   C58   A    
C8    C97   S    
C158  H71   S    
C9    C73   A    
C168  H99   S    
C154  H56   S    
O14   C6    A    
C30   H29   S    
C32   C40   A    
C35   C99   A    
C115  C148  A    
C15   C79   A    
C113  C146  A    
N13   C157  S    
C45   N13   S    
C33   H18   S    
C181  H125  S    
C162  H84   S    
C163  H83   S    
C14   O26   S    
C43   N11   S    
C37   H22   S    
C175  H111  S    
C73   C81   A    
C44   C52   A    
C51   C59   A    
C77   C85   A    
C137  C161  S    
C130  H34   S    
C79   C87   A    
C94   C141  A    
C48   C56   A    
C52   H4    S    
C7    C98   S    
C53   H5    S    
C157  H66   S    
C134  H38   S    
C116  C147  A    
C170  H107  S    
C89   C138  A    
C69   C77   A    
C153  H50   S    
C83   H11   S    
C41   C97   A    
C34   C98   A    
O11   C3    A    
C81   H9    S    
C160  H80   S    
C38   C102  A    
C85   H13   S    
C141  C173  S    
C9    N1    A    
C172  H102  S    
C183  C184  S    
C171  H106  S    
C86   C150  A    
C15   N7    A    
C91   C140  A    
O11   V2    S    
N5    C61   S    
C16   N8    A    
C92   C139  A    
C109  C133  A    
N14   H69   S    
C108  C124  A    
C27   C59   A    
C41   C49   A    
C116  C124  A    
C117  C125  A    
O7    V2    S    
C156  H62   S    
C44   C100  A    
C84   C148  A    
C31   C39   A    
C72   C127  A    
C164  C165  S    
N2    C18   A    
C147  H43   S    
C182  H135  S    
N8    C64   S    
C41   N9    S    
C95   C144  A    
C32   C64   A    
C179  H129  S    
C163  H81   S    
C47   C103  A    
N15   H73   S    
C175  H109  S    
C14   N6    A    
C159  H76   S    
C165  H92   S    
O4    C1    A    
C16   C80   A    
C3    C102  S    
C28   C36   A    
C176  C177  S    
C134  C142  A    
C110  C117  A    
C76   C84   A    
N6    C62   S    
O14   V4    S    
C80   C88   A    
N6    C22   A    
C42   C50   A    
C9    O21   S    
C68   C76   A    
C117  C150  A    
C170  C171  S    
N12   C156  S    
C71   C95   A    
C35   H20   S    
C18   C90   A    
C174  H113  S    
O20   V2    S    
C25   H26   S    
O3    V4    S    
O4    V3    S    
C169  H95   S    
C14   C78   A    
C50   H2    S    
C156  H64   S    
C5    C100  S    
C176  H121  S    
C26   C34   A    
C155  H60   S    
C93   C142  A    
C13   O25   S    
C67   C124  A    
C30   C38   A    
C48   N16   S    
C161  C162  S    
C182  C183  S    
C65   C122  A    
C28   H27   S    
C166  H88   S    
O5    C8    A    
C66   C74   A    
C140  C170  S    
C17   C89   A    
C157  H67   S    
C135  C143  A    
C183  H133  S    
C153  H51   S    
N7    C63   S    
C25   C33   A    
O3    C2    A    
C107  C131  A    
C96   C143  A    
C46   C54   A    
C111  C127  A    
C159  H74   S    
C18   O29   S    
C112  C128  A    
C83   C147  A    
C31   H32   S    
C81   C145  A    
C22   O33   S    
C132  H36   S    
O9    V1    S    
C173  H114  S    
O15   C7    A    
C169  H97   S    
O16   C8    A    
C82   H10   S    
C180  C181  S    
N5    C21   A    
C177  H119  S    
O5    V1    S    
C36   C100  A    
N3    C59   S    
N9    C153  S    
C68   C92   A    
C46   C102  A    
C67   C91   A    
C106  C130  A    
C65   C89   A    
C158  H70   S    
C47   C55   A    
C110  C134  A    
C23   C95   A    
C168  C169  S    
C20   O31   S    
N8    C24   A    
O8    C5    A    
C180  H126  S    
C150  H46   S    
C162  H85   S    
C46   N14   S    
C163  H82   S    
C67   C75   A    
C105  C114  A    
C71   C79   A    
O9    C1    A    
C175  H110  S    
C84   H12   S    
C172  H104  S    
N3    C19   A    
N10   H53   S    
C87   H15   S    
C161  H87   S    
C120  C151  A    
C165  C166  S    
C88   H16   S    
C184  H130  S    
C166  H90   S    
C131  C139  A    
C129  C137  A    
C164  H94   S    
C10   C74   A    
C109  C125  A    
C22   C94   A    
C155  H58   S    
C25   C57   A    
C160  H79   S    
C155  H59   S    
C29   H30   S    
C114  C145  A    
C27   H28   S    
O6    C7    A    
C34   H17   S    
C71   C128  A    
C48   C104  A    
C167  C168  S    
C38   H21   S    
C74   C82   A    
C55   H7    S    
C132  C140  A    
C178  H117  S    
C174  C175  S    
C108  C115  A    
C169  H96   S    
C78   C86   A    
C184  H131  S    
C105  C121  A    
C50   C58   A    
C131  H35   S    
C111  C120  A    
