data_mof_unit_67906.cif
_audit_creation_date              2013-03-05T15:54:14-0500
_audit_creation_method            fapswitch 2.2
_symmetry_space_group_name_H-M    P1
_symmetry_Int_Tables_number       1
_space_group_crystal_system       triclinic
_cell_length_a                    10.616846
_cell_length_b                    10.694346
_cell_length_c                    10.075152
_cell_angle_alpha                 92.816949
_cell_angle_beta                  89.562549
_cell_angle_gamma                 93.85799
_cell_volume                      1139.95282521

loop_
_atom_site_label
_atom_site_type_symbol
_atom_site_description
_atom_site_fract_x
_atom_site_fract_y
_atom_site_fract_z
_atom_type_partial_charge
O1    O     O_R   0.500000 0.316780 0.614690 -0.567786
O2    O     O_R   0.499990 0.316750 0.385360 -0.546672
C1    C     C_R   0.515192 0.262161 0.495765 0.981806
O3    O     O_R   0.313960 0.499980 0.614650 -0.634889
O4    O     O_R   0.313940 0.499960 0.385310 -0.612927
C2    C     C_R   0.257779 0.502212 0.500873 0.949478
Zn1   Zn    Zn3+2 0.500010 0.500020 0.653130 1.010822
Zn2   Zn    Zn3+2 0.499990 0.499980 0.346870 1.101476
O5    O     O_R   0.500010 0.683250 0.614640 -0.583667
O6    O     O_R   0.500000 0.683220 0.385310 -0.581017
O7    O     O_R   0.686060 0.500040 0.614690 -0.663947
O8    O     O_R   0.686040 0.500020 0.385350 -0.540772
C3    C     C_R   0.492851 0.740614 0.503671 0.871097
C4    C     C_R   0.742303 0.503172 0.500480 0.845345
C5    C     C_3   0.033754 0.402706 0.563754 -0.308706
C6    C     C_3   0.952280 0.403781 0.438432 0.554909
H1    H     H_    0.059634 0.319327 0.614571 0.211656
C7    C     C_3   0.877888 0.506411 0.503611 -0.048982
C8    C     C_3   0.957851 0.506887 0.630124 -0.217372
C9    C     C_3   0.049475 0.608696 0.571646 -0.153102
C10   C     C_3   0.966741 0.608903 0.446194 -0.242444
C11   C     C_3   0.041552 0.504807 0.377102 -0.083265
C12   C     C_3   0.122127 0.504530 0.503207 -0.038664
H2    H     H_    0.919729 0.506407 0.732515 0.180725
H3    H     H_    0.092957 0.693174 0.626083 0.140572
H4    H     H_    0.938639 0.696873 0.405750 0.154145
H5    H     H_    0.080067 0.509918 0.275255 0.154064
C13   C     C_R   0.669495 0.140243 0.686172 -0.235945
H6    H     H_    0.712822 0.231646 0.664071 0.174309
C14   C     C_R   0.701319 0.086934 0.803269 0.219883
C15   C     C_R   0.636333 0.974013 0.839655 0.198535
C16   C     C_R   0.546006 0.914270 0.750908 0.436024
C17   C     C_R   0.542076 0.952211 0.618283 -0.151492
C18   C     C_R   0.585732 0.075194 0.596308 -0.027642
C19   C     C_R   0.544644 0.131025 0.484295 -0.225667
C20   C     C_R   0.505597 0.056188 0.371911 0.178282
C21   C     C_R   0.459664 0.933087 0.391330 0.266495
C22   C     C_R   0.487668 0.877397 0.510320 -0.257611
C23   C     C_R   0.282928 0.394750 0.127566 0.243634
C24   C     C_R   0.169150 0.382016 0.053610 0.151271
C25   C     C_R   0.175678 0.390091 0.916352 -0.388060
H7    H     H_    0.094216 0.354521 0.858795 0.242192
C26   C     C_R   0.294012 0.390231 0.857069 0.360877
C27   C     C_R   0.394718 0.454392 0.926065 0.001805
C28   C     C_R   0.392213 0.456103 0.069326 -0.077530
N1    N     N_R   0.498800 0.498800 0.142780 -0.125329
C29   C     C_R   0.607186 0.529565 0.071872 0.619281
H8    H     H_    0.689182 0.559367 0.874948 0.144587
C30   C     C_R   0.604459 0.534362 0.929350 -0.094898
N2    N     N_R   0.498760 0.498720 0.857170 -0.123706
O9    O     O_3   0.890459 0.300309 0.366827 -0.566176
C31   C     C_3   0.929435 0.186641 0.413318 0.083249
H9    H     H_    0.900867 0.176328 0.518956 0.114021
H10   H     H_    0.033525 0.183789 0.404438 0.223420
C32   C     C_3   0.867230 0.075881 0.331477 -0.179664
H11   H     H_    0.768950 0.057476 0.366200 0.204557
H12   H     H_    0.865299 0.098222 0.225316 0.340023
C33   C     C_3   0.936875 0.957307 0.344803 -0.903952
H13   H     H_    0.034681 0.970749 0.305773 0.326702
H14   H     H_    0.886851 0.879306 0.285892 0.254312
H15   H     H_    0.939490 0.932636 0.450545 0.249777
N3    N     N_R   0.659408 0.920230 0.964721 0.234343
O10   O     O_R   0.755059 0.960542 0.038415 -0.395602
O11   O     O_R   0.586862 0.826450 0.004094 -0.361453
O12   O     O_3   0.453475 0.831424 0.800930 -0.554693
C34   C     C_3   0.330919 0.872347 0.780651 0.135077
H16   H     H_    0.283932 0.812348 0.699992 0.127321
H17   H     H_    0.329859 0.971773 0.752206 0.171901
C35   C     C_3   0.253449 0.861286 0.908130 -0.267016
H18   H     H_    0.297836 0.924920 0.987466 0.307174
H19   H     H_    0.157322 0.891760 0.890527 0.184374
C36   C     C_3   0.243926 0.727272 0.953959 -0.715327
H20   H     H_    0.198828 0.662083 0.876512 0.215409
H21   H     H_    0.187846 0.723018 0.047077 0.254811
H22   H     H_    0.339239 0.697104 0.974483 0.313124
N4    N     N_R   0.370226 0.870341 0.300327 0.245022
O13   O     O_R   0.408930 0.807224 0.196235 -0.330705
O14   O     O_R   0.253248 0.852185 0.337927 -0.442882
O15   O     O_3   0.721960 0.530178 0.136496 -0.567630
C37   C     C_3   0.797355 0.642085 0.119571 0.116222
H23   H     H_    0.843363 0.668017 0.215271 0.134226
H24   H     H_    0.742051 0.722840 0.101687 0.200515
C38   C     C_3   0.901848 0.623507 0.015639 -0.364104
H25   H     H_    0.992443 0.613299 0.066912 0.217081
H26   H     H_    0.881350 0.535705 0.954535 0.259770
C39   C     C_3   0.917692 0.733623 0.924839 -0.916658
H27   H     H_    0.827959 0.746946 0.873271 0.275075
H28   H     H_    0.989793 0.714909 0.847890 0.249240
H29   H     H_    0.948337 0.820711 0.983635 0.312205
N5    N     N_R   0.300482 0.292813 0.210200 0.257999
O16   O     O_R   0.233271 0.280129 0.317561 -0.423865
O17   O     O_R   0.331034 0.190621 0.147509 -0.298824
N6    N     N_R   0.059816 0.314697 0.104832 0.254794
O18   O     O_R   0.060251 0.193619 0.111863 -0.294188
O19   O     O_R   0.952004 0.365130 0.103830 -0.319567
N7    N     N_R   0.319831 0.277554 0.781820 0.253063
O20   O     O_R   0.402851 0.206215 0.826966 -0.372309
O21   O     O_R   0.242289 0.230422 0.690540 -0.435953
N8    N     N_R   0.536287 0.096617 0.240264 0.258786
O22   O     O_R   0.625188 0.184274 0.223553 -0.296541
O23   O     O_R   0.495273 0.031079 0.135769 -0.255618
N9    N     N_R   0.790281 0.155512 0.888947 0.258899
O24   O     O_R   0.906018 0.176069 0.848250 -0.396265
O25   O     O_R   0.748862 0.224297 0.987618 -0.234677

loop_
_geom_bond_atom_site_label_1
_geom_bond_atom_site_label_2
_geom_bond_distance
_ccdc_geom_bond_type
C34   H17   1.115559 S    
C10   H4    1.103373 S    
C36   H21   1.108491 S    
N6    O18   1.300582 A    
C7    C10   1.529964 S    
C25   H7    1.081974 S    
C4    C7    1.438112 S    
C8    C9    1.546156 S    
C6    O9    1.416608 S    
C29   O15   1.385444 S    
C24   N6    1.430726 S    
C32   H11   1.106083 S    
C29   C30   1.439937 A    
C28   N1    1.395277 A    
C27   C28   1.442656 A    
Zn1   O7    2.009958 S    
C13   H6    1.084441 S    
C21   C22   1.407043 A    
C38   H25   1.109575 S    
C20   C21   1.395237 A    
N4    O14   1.300474 A    
C18   C19   1.388961 A    
C36   H22   1.106585 S    
C14   C15   1.412891 A    
O7    C4    1.293193 A    
C39   H28   1.106060 S    
C34   C35   1.525049 S    
C9    H3    1.108672 S    
C33   H14   1.107569 S    
C5    C6    1.536899 S    
C5    H1    1.101233 S    
C7    C8    1.536486 S    
C35   H19   1.110146 S    
O5    C3    1.306560 A    
N3    O11   1.298811 A    
C15   C16   1.414862 A    
N7    O21   1.299125 A    
C23   N5    1.426612 S    
C31   C32   1.525173 S    
C23   C28   1.430393 A    
C33   H15   1.111066 S    
C5    C12   1.535345 S    
C34   H16   1.110331 S    
C13   C18   1.400594 A    
N6    O19   1.298049 A    
C10   C11   1.545663 S    
C25   C26   1.386905 A    
C15   N3    1.439976 S    
C35   H18   1.110520 S    
O3    Zn1   2.015822 S    
C31   H10   1.110389 S    
C17   C18   1.392368 A    
O9    C31   1.412424 S    
N4    O13   1.298266 A    
O3    C2    1.298238 A    
C23   C24   1.419345 A    
C39   H27   1.109473 S    
C36   H20   1.109701 S    
C33   H13   1.110315 S    
C39   H29   1.110008 S    
O1    C1    1.320527 A    
C19   C20   1.402818 A    
C35   C36   1.523908 S    
C5    C8    1.541823 S    
C26   C27   1.401045 A    
N3    O10   1.299825 A    
N5    O17   1.294312 A    
N8    O22   1.300774 A    
C9    C12   1.530812 S    
C1    C19   1.456165 S    
Zn2   O8    2.015822 S    
N7    O20   1.302511 A    
C14   N9    1.425516 S    
C26   N7    1.432993 S    
C6    C7    1.515771 S    
N9    O25   1.299130 A    
C3    C22   1.465764 S    
C37   H24   1.099187 S    
H8    C30   1.074951 S    
N8    O23   1.297168 A    
C21   N4    1.435142 S    
O8    C4    1.306705 A    
C30   N2    1.364231 A    
C11   H5    1.104185 S    
C32   H12   1.107981 S    
C31   H9    1.113124 S    
C37   C38   1.535632 S    
C27   N2    1.369980 A    
Zn1   O5    2.016136 S    
N1    C29   1.379268 A    
C24   C25   1.390732 A    
C6    C11   1.538263 S    
C38   H26   1.107152 S    
O1    Zn1   1.978770 S    
O2    Zn2   2.016137 S    
Zn1   N2    2.056400 S    
C37   H23   1.099022 S    
O6    C3    1.318150 A    
O4    Zn2   2.009957 S    
C17   C22   1.420861 A    
C16   C17   1.417139 A    
C13   C14   1.388936 A    
O2    C1    1.297477 A    
N5    O16   1.298924 A    
O4    C2    1.303959 A    
C2    C12   1.442073 S    
C8    H2    1.105397 S    
C20   N8    1.443315 S    
N9    O24   1.300434 A    
Zn2   N1    2.055785 S    
O15   C37   1.411075 S    
C38   C39   1.526065 S    
C9    C10   1.544867 S    
Zn2   O6    1.978770 S    
O12   C34   1.419770 S    
C32   C33   1.522227 S    
C11   C12   1.537314 S    
C16   O12   1.386813 S    
