data_mof_unit_66805.cif
_audit_creation_date              2013-03-05T15:41:08-0500
_audit_creation_method            fapswitch 2.2
_symmetry_space_group_name_H-M    P1
_symmetry_Int_Tables_number       1
_space_group_crystal_system       triclinic
_cell_length_a                    8.612156
_cell_length_b                    14.67529
_cell_length_c                    15.310421
_cell_angle_alpha                 95.052901
_cell_angle_beta                  99.385062
_cell_angle_gamma                 91.66161
_cell_volume                      1899.84941697

loop_
_atom_site_label
_atom_site_type_symbol
_atom_site_description
_atom_site_fract_x
_atom_site_fract_y
_atom_site_fract_z
_atom_type_partial_charge
P1    P     P_3+3 0.947560 0.714050 0.560480 0.561438
O1    O     O_2   0.113690 0.728200 0.532750 -0.324296
O2    O     O_3   0.871900 0.612110 0.540440 -0.318468
O3    O     O_3   0.325660 0.668890 0.372600 -0.368791
O4    O     O_2   0.234977 0.833518 0.419388 -0.300642
O5    O     O_3   0.001002 0.742924 0.677203 -0.566024
O6    O     O_3   0.318934 0.816555 0.263146 -0.476662
H1    H     H_    0.137511 0.723893 0.208838 0.125721
C1    C     C_3   0.273323 0.759046 0.108264 -0.765242
H2    H     H_    0.215851 0.700670 0.061945 0.152687
P2    P     P_3+3 0.325150 0.423860 0.297970 0.462573
P3    P     P_3+3 0.849468 0.611925 0.212684 0.578010
O7    O     O_2   0.147570 0.451710 0.282630 -0.359191
O8    O     O_3   0.905540 0.621350 0.329600 -0.281541
O9    O     O_2   0.975175 0.553534 0.175496 -0.420105
O10   O     O_3   0.326367 0.303412 0.290370 -0.609396
O11   O     O_3   0.855783 0.714638 0.158099 -0.540028
C2    C     C_3   0.819569 0.799832 0.202147 0.452469
C3    C     C_3   0.807643 0.872917 0.132827 -0.147532
H3    H     H_    0.833667 0.943134 0.166736 0.206849
H4    H     H_    0.897520 0.861089 0.089757 0.156848
C4    C     C_3   0.710233 0.309113 0.279304 0.257035
H5    H     H_    0.632407 0.340766 0.323411 0.147117
C5    C     C_3   0.602266 0.252718 0.201543 -0.707279
H6    H     H_    0.535710 0.198940 0.228707 0.274655
H7    H     H_    0.514440 0.297829 0.168233 0.171166
Ba1   Ba    Ba6+2 0.142880 0.544780 0.454020 1.694727
C6    C     C_3   0.990536 0.667166 0.726040 0.130446
H8    H     H_    0.871168 0.638901 0.713721 0.172120
C7    C     C_3   0.035288 0.692545 0.828044 -0.158399
H9    H     H_    0.016307 0.629246 0.860675 0.084950
C8    C     C_3   0.175389 0.260574 0.280122 0.816392
H10   H     H_    0.096275 0.300842 0.316950 0.045004
C9    C     C_3   0.107478 0.246119 0.181251 -0.949183
H11   H     H_    0.080674 0.312761 0.154633 0.228800
H12   H     H_    0.997726 0.202809 0.170050 0.239276
H13   H     H_    0.193643 0.210942 0.145004 0.286025
P4    P     P_3+3 0.862730 0.285940 0.439440 0.514057
O12   O     O_2   0.696600 0.271740 0.467230 -0.374553
O13   O     O_3   0.938380 0.387880 0.459490 -0.332253
O14   O     O_3   0.484630 0.331100 0.627330 -0.331996
O15   O     O_3   0.820035 0.253758 0.323958 -0.578876
P5    P     P_3+3 0.956643 0.386651 0.786767 0.551116
O16   O     O_3   0.389110 0.548970 0.605210 -0.349201
O17   O     O_3   0.904740 0.378630 0.670330 -0.262237
O18   O     O_2   0.862717 0.467593 0.817793 -0.356739
O19   O     O_3   0.862033 0.294665 0.826639 -0.526835
Ba2   Ba    Ba6+2 0.667290 0.455210 0.545900 1.745714
P6    P     P_3+3 0.360380 0.786178 0.372520 0.601763
C10   C     C_3   0.260817 0.739836 0.203628 0.449667
H14   H     H_    0.327575 0.677675 0.216924 0.103589
H15   H     H_    0.398954 0.763295 0.100690 0.268031
O20   O     O_3   0.421180 0.451020 0.394720 -0.367159
C11   C     C_3   0.519393 0.754827 0.716941 0.295825
C12   C     C_3   0.559560 0.842709 0.779668 -0.798578
H16   H     H_    0.657273 0.831991 0.833125 0.330425
H17   H     H_    0.593676 0.900329 0.743097 0.221982
H18   H     H_    0.458182 0.863654 0.811466 0.308889
P7    P     P_3+3 0.484703 0.567917 0.720289 0.541873
O21   O     O_2   0.662730 0.548230 0.717350 -0.296761
O22   O     O_3   0.490920 0.682974 0.768445 -0.576476
C13   C     C_3   0.960158 0.219336 0.834980 0.738278
H19   H     H_    0.083774 0.241740 0.859871 0.008612
C14   C     C_3   0.906101 0.159021 0.902565 -0.831689
H20   H     H_    0.818957 0.106567 0.866592 0.245732
H21   H     H_    0.851950 0.201796 0.952017 0.186500
P8    P     P_3+3 0.455483 0.210937 0.615242 0.646538
C15   C     C_3   0.432098 0.148227 0.767876 0.621800
H22   H     H_    0.340663 0.099328 0.729760 0.070146
O23   O     O_2   0.563508 0.174249 0.550681 -0.307149
O24   O     O_3   0.546014 0.170280 0.715650 -0.483178
C16   C     C_3   0.508849 0.100826 0.848231 -0.199345
H23   H     H_    0.590912 0.150532 0.892871 0.166112
H24   H     H_    0.574789 0.042225 0.825107 0.142775
C17   C     C_R   0.997212 0.948100 0.556875 0.237089
C18   C     C_R   0.820804 0.804995 0.505092 0.218243
C19   C     C_R   0.672671 0.771757 0.459053 -0.291859
C20   C     C_R   0.559332 0.830598 0.424980 0.283498
C21   C     C_R   0.600115 0.922477 0.422554 -0.290743
C22   C     C_R   0.753494 0.958979 0.457099 0.066656
C23   C     C_R   0.860906 0.902847 0.505858 -0.058722
H25   H     H_    0.642460 0.699137 0.451780 0.179974
C24   C     C_R   0.940224 0.095805 0.491568 0.047993
C25   C     C_R   0.049147 0.037490 0.537634 -0.015894
C26   C     C_R   0.985011 0.193453 0.494318 0.228344
C27   C     C_R   0.136924 0.223923 0.537396 -0.320855
C28   C     C_R   0.251239 0.163326 0.568622 0.243179
C29   C     C_R   0.209893 0.068652 0.562836 -0.185820
C30   C     C_R   0.795490 0.051759 0.445804 -0.083072
H26   H     H_    0.510202 0.965152 0.391941 0.176222
H27   H     H_    0.170885 0.295964 0.541323 0.132267
C31   C     C_R   0.268451 0.445508 0.773667 -0.254072
C32   C     C_R   0.168684 0.421594 0.832560 0.116012
C33   C     C_R   0.228970 0.429112 0.924539 -0.108289
C34   C     C_R   0.373864 0.480167 0.959214 -0.025578
C35   C     C_R   0.452538 0.522048 0.895962 0.169073
C36   C     C_R   0.405447 0.499648 0.803026 0.104861
C37   C     C_R   0.602029 0.519426 0.089507 -0.264591
C38   C     C_R   0.657037 0.548771 0.178780 0.341313
C39   C     C_R   0.419526 0.483566 0.216918 0.190101
C40   C     C_R   0.349641 0.479529 0.127203 -0.245844
C41   C     C_R   0.441148 0.493101 0.059354 0.133411
C42   C     C_R   0.566320 0.528441 0.243060 -0.389481
H28   H     H_    0.686438 0.519854 0.044944 0.189063
H29   H     H_    0.224645 0.465693 0.113632 0.160174
H30   H     H_    0.613975 0.542644 0.313008 0.180201
H31   H     H_    0.233314 0.427671 0.703173 0.183929
C43   C     C_2   0.687848 0.208850 0.131893 0.872236
H32   H     H_    0.740634 0.250779 0.088742 -0.127170
O25   O     O_2   0.695097 0.125804 0.121420 -0.472626
C44   C     C_2   0.093053 0.597718 0.695377 0.442610
H33   H     H_    0.211296 0.618960 0.699883 -0.043365
O26   O     O_2   0.040417 0.526780 0.652782 -0.522747
C45   C     C_2   0.205672 0.721316 0.857825 0.539367
H34   H     H_    0.290886 0.669442 0.860955 0.002336
O27   O     O_2   0.248466 0.800832 0.881619 -0.457626
N1    N     N_R   0.935949 0.762212 0.860988 0.268201
O28   O     O_R   0.944630 0.845066 0.837918 -0.245896
O29   O     O_R   0.872421 0.748497 0.930315 -0.332813
N2    N     N_R   0.188255 0.171467 0.316330 0.214145
O30   O     O_R   0.319541 0.149391 0.362906 -0.436206
O31   O     O_R   0.065332 0.115669 0.307244 -0.353930
C46   C     C_2   0.648897 0.738746 0.666072 0.504696
H35   H     H_    0.746180 0.787704 0.675533 0.075540
O32   O     O_2   0.635253 0.676679 0.606814 -0.565400
C47   C     C_2   0.376823 0.772633 0.655119 0.532902
H36   H     H_    0.267878 0.777604 0.679877 0.111571
O33   O     O_2   0.385082 0.786438 0.578727 -0.593337
C48   C     C_2   0.198573 0.845895 0.081874 0.879857
H37   H     H_    0.115439 0.844701 0.020685 0.079679
O34   O     O_2   0.234766 0.918931 0.126210 -0.446821
N3    N     N_R   0.652715 0.873570 0.077182 0.260133
O35   O     O_R   0.634444 0.840529 0.994579 -0.256600
O36   O     O_R   0.551727 0.931135 0.100711 -0.287849
N4    N     N_R   0.951761 0.165326 0.749475 0.245947
O37   O     O_R   0.046011 0.098735 0.742813 -0.362623
O38   O     O_R   0.856576 0.184809 0.679281 -0.311418
C49   C     C_2   0.036737 0.110046 0.952945 0.789805
H38   H     H_    0.137348 0.148456 0.991563 0.080710
O39   O     O_2   0.028127 0.026899 0.953165 -0.451961
N5    N     N_R   0.360874 0.231084 0.797486 0.203568
O40   O     O_R   0.238726 0.256984 0.745933 -0.517644
O41   O     O_R   0.443766 0.290801 0.855798 -0.400764
N6    N     N_R   0.392940 0.067120 0.898478 0.257768
O42   O     O_R   0.292102 0.001327 0.862937 -0.252611
O43   O     O_R   0.407903 0.091308 0.983312 -0.315254
N7    N     N_R   0.945738 0.829596 0.276655 0.192105
O44   O     O_R   0.952033 0.792054 0.350403 -0.387244
O45   O     O_R   0.037904 0.901302 0.275533 -0.333890
C50   C     C_2   0.331493 0.998318 0.570378 0.569013
H39   H     H_    0.293732 0.928906 0.550348 0.114511
O46   O     O_2   0.470833 0.014627 0.598927 -0.565189
N8    N     N_R   0.031593 0.926326 0.647229 0.271269
O47   O     O_R   0.915582 0.926525 0.691901 -0.302859
O48   O     O_R   0.174062 0.931900 0.691349 -0.385372
C51   C     C_2   0.703791 0.090173 0.369313 0.631131
H40   H     H_    0.608033 0.133865 0.377713 0.099776
O49   O     O_2   0.726918 0.065635 0.294498 -0.511973
C52   C     C_2   0.151983 0.370304 0.978915 0.444418
H41   H     H_    0.027106 0.374124 0.981255 0.034524
O50   O     O_2   0.228343 0.313880 0.019184 -0.603070
C53   C     C_2   0.666438 0.797867 0.237121 0.444860
H42   H     H_    0.612691 0.861933 0.252136 0.084234
O51   O     O_2   0.603946 0.727056 0.251816 -0.650281
N9    N     N_R   0.566370 0.595996 0.924823 0.251088
O52   O     O_R   0.534994 0.664188 0.978343 -0.362591
O53   O     O_R   0.706498 0.591384 0.904299 -0.315095
C54   C     C_2   0.801599 0.382584 0.248215 0.398933
H43   H     H_    0.819179 0.382868 0.179751 -0.018061
O54   O     O_2   0.863723 0.442786 0.303139 -0.491359

loop_
_geom_bond_atom_site_label_1
_geom_bond_atom_site_label_2
_geom_bond_distance
_ccdc_geom_bond_type
Ba1   Ba2   4.730256 S    
C38   C42   1.398901 A    
C11   C46   1.473884 S    
C32   C33   1.412699 A    
C9    H13   1.109591 S    
P2    O7    1.580228 D    
N7    O44   1.293337 A    
C28   C29   1.415733 A    
O19   C13   1.412931 S    
C45   H34   1.071324 S    
C46   H35   1.070663 S    
O14   P8    1.763135 S    
C14   C49   1.496269 S    
C19   C20   1.390230 A    
P6    C20   1.843909 S    
C11   C47   1.467966 S    
N9    O52   1.299754 A    
C51   H40   1.076336 S    
C3    H4    1.103712 S    
C5    H7    1.110484 S    
P4    O15   1.764976 S    
C27   H27   1.082588 S    
N5    O41   1.301042 A    
C52   H41   1.084779 S    
P4    O12   1.571092 D    
C22   C23   1.420869 A    
C17   C25   1.443866 A    
C46   O32   1.216566 D    
P8    O24   1.767700 S    
O16   P7    1.812937 S    
O2    Ba2   2.874108 S    
C2    C3    1.568000 S    
C43   H32   1.084015 S    
N4    O38   1.299664 A    
C9    H11   1.108351 S    
C22   C30   1.431053 A    
C39   C40   1.402292 A    
C21   H26   1.083032 S    
C13   C14   1.538006 S    
Ba1   O16   2.867977 S    
O5    C6    1.402084 S    
C3    H3    1.111777 S    
N3    O35   1.296895 A    
P3    C38   1.849453 S    
P3    O11   1.790375 S    
C4    O15   1.397523 S    
C52   O50   1.219632 D    
O1    Ba1   2.885857 S    
C5    C43   1.502591 S    
O8    Ba1   2.882665 S    
N8    O48   1.297136 A    
C1    H2    1.111632 S    
P4    Ba2   3.476269 S    
P2    O20   1.585680 S    
C34   C41   1.541121 S    
C4    C54   1.473634 S    
C54   O54   1.211986 D    
P7    O21   1.575467 D    
N9    O53   1.297824 A    
O4    P6    1.540250 D    
C1    H15   1.107351 S    
C8    N2    1.464816 S    
N2    O31   1.300852 A    
C31   C36   1.391062 A    
Ba2   O21   2.856749 S    
C53   O51   1.211768 D    
C6    C44   1.463444 S    
C40   H29   1.072459 S    
Ba2   O20   2.867245 S    
C24   C30   1.432169 A    
P7    O22   1.777653 S    
P4    C26   1.911120 S    
P1    O5    1.781038 S    
C40   C41   1.426245 A    
N4    O37   1.296042 A    
C5    H6    1.110712 S    
O6    P6    1.753873 S    
C16   H24   1.108006 S    
C2    N7    1.467382 S    
N1    O29   1.298880 A    
C20   C21   1.388668 A    
C15   H22   1.104170 S    
C30   C51   1.467463 S    
C10   H14   1.108650 S    
C26   C27   1.406877 A    
C33   C52   1.466597 S    
P2    C39   1.856733 S    
P1    O2    1.598169 S    
C8    C9    1.525137 S    
C13   N4    1.459529 S    
C51   O49   1.219547 D    
C13   H19   1.100915 S    
P2    O10   1.761621 S    
C17   N8    1.432906 S    
C31   H31   1.078940 S    
C24   C25   1.430687 A    
P3    O9    1.549001 D    
P2    Ba1   3.458202 S    
Ba1   O13   2.873575 S    
C15   C16   1.531862 S    
C35   C36   1.420848 A    
C12   H16   1.099300 S    
O11   C2    1.434533 S    
C15   N5    1.448155 S    
C44   O26   1.212925 D    
C16   N6    1.456631 S    
C18   C19   1.404410 A    
P5    O17   1.758337 S    
C49   O39   1.220642 D    
N6    O43   1.300453 A    
C54   H43   1.083595 S    
C24   C26   1.468361 A    
P3    O8    1.768365 S    
C12   H17   1.112433 S    
P7    C36   1.881532 S    
C4    C5    1.545219 S    
O10   C8    1.406825 S    
H1    C10   1.097867 S    
O3    Ba1   2.867542 S    
N2    O30   1.300311 A    
C48   H37   1.080829 S    
C7    C45   1.500433 S    
O17   Ba2   2.883404 S    
C3    N3    1.462058 S    
O13   Ba2   3.014651 S    
C11   C12   1.533923 S    
C6    H8    1.078286 S    
C47   O33   1.217393 D    
C44   H33   1.045858 S    
N7    O45   1.302629 A    
C27   C28   1.400280 A    
P1    C18   1.916775 S    
C29   C50   1.489864 S    
C17   C23   1.411920 A    
C1    C10   1.531298 S    
C25   C29   1.425651 A    
O6    C10   1.409379 S    
C16   H23   1.106096 S    
C11   O22   1.410104 S    
C18   C23   1.465773 A    
C45   O27   1.219277 D    
Ba1   O20   3.023725 S    
C15   O24   1.410539 S    
C7    N1    1.460212 S    
C1    C48   1.501866 S    
C53   H42   1.083016 S    
P8    C28   1.876985 S    
C50   H39   1.063333 S    
O3    P6    1.738590 S    
N6    O42   1.298936 A    
P8    O23   1.538713 D    
C14   H20   1.102790 S    
O2    Ba1   3.013922 S    
C37   C41   1.418100 A    
N5    O40   1.295887 A    
C8    H10   1.105127 S    
P4    O13   1.598144 S    
C2    C53   1.502526 S    
C7    H9    1.113011 S    
C19   H25   1.081390 S    
C47   H36   1.069765 S    
C37   H28   1.075282 S    
P1    O1    1.570600 D    
C6    C7    1.555359 S    
C31   C32   1.401913 A    
P5    C32   1.885226 S    
O14   Ba2   2.867008 S    
C43   O25   1.219895 D    
C42   H30   1.082200 S    
C50   O46   1.217462 D    
C39   C42   1.390100 A    
C33   C34   1.435268 A    
P5    O18   1.540333 D    
C49   H38   1.078881 S    
C21   C22   1.411647 A    
C9    H12   1.104492 S    
N3    O36   1.300394 A    
C37   C38   1.396916 A    
C12   H18   1.105254 S    
C34   C35   1.438527 A    
P1    Ba1   3.475668 S    
C4    H5    1.109716 S    
O7    Ba1   2.856435 S    
C35   N9    1.430582 S    
N8    O47   1.299489 A    
N1    O28   1.299139 A    
P5    O19   1.761376 S    
O16   Ba2   3.022900 S    
C14   H21   1.110497 S    
O12   Ba2   2.886384 S    
C48   O34   1.220730 D    
