data_mof_unit_34015.cif
_audit_creation_date              2012-12-10T17:48:44-0500
_audit_creation_method            fapswitch 2.2
_symmetry_space_group_name_H-M    P1
_symmetry_Int_Tables_number       1
_space_group_crystal_system       triclinic
_cell_length_a                    15.738986
_cell_length_b                    10.71731
_cell_length_c                    9.947767
_cell_angle_alpha                 90.466392
_cell_angle_beta                  89.361628
_cell_angle_gamma                 93.47383
_cell_volume                      1674.75131286

loop_
_atom_site_label
_atom_site_type_symbol
_atom_type_description
_atom_site_fract_x
_atom_site_fract_y
_atom_site_fract_z
_atom_type_partial_charge
C1    C     C_R   0.510985 0.262207 0.499765 0.878635
C2    C     C_3   0.946278 0.381526 0.593574 0.259468
C3    C     C_3   0.917105 0.494180 0.505288 0.272210
C4    C     C_3   0.956110 0.623149 0.558994 -0.176999
C5    C     C_3   0.053831 0.616911 0.569979 -0.430137
C6    C     C_1   0.825445 0.496388 0.500687 -0.080726
C7    C     C_1   0.174217 0.496519 0.503240 -0.077190
C8    C     C_1   0.249578 0.498240 0.502133 -0.203954
C9    C     C_R   0.555819 0.125052 0.747201 -0.133187
C10   C     C_R   0.537168 0.068469 0.870341 -0.142560
C11   C     C_R   0.490503 0.954292 0.874077 -0.171400
C12   C     C_R   0.338502 0.499954 0.500655 0.896487
C13   C     C_R   0.470145 0.891356 0.754302 -0.159823
C14   C     C_R   0.497092 0.942308 0.628386 0.093582
C15   C     C_R   0.527834 0.067294 0.625556 0.047790
C16   C     C_R   0.527207 0.130650 0.501202 -0.147020
C17   C     C_R   0.526326 0.063123 0.379603 0.099175
C18   C     C_R   0.512389 0.935465 0.383032 -0.277683
C19   C     C_R   0.496128 0.874444 0.505086 -0.150161
C20   C     C_R   0.395670 0.327193 0.149399 -0.129800
C21   C     C_R   0.348197 0.230863 0.090185 -0.269305
C22   C     C_R   0.345770 0.222913 0.953445 -0.227789
C23   C     C_R   0.495659 0.739999 0.501398 0.882291
C24   C     C_R   0.388957 0.313086 0.872465 0.149530
C25   C     C_R   0.446893 0.410125 0.930057 0.136086
C26   C     C_R   0.448228 0.412869 0.075027 0.133488
C27   C     C_R   0.549299 0.583558 0.070861 -0.115201
C28   C     C_R   0.549238 0.583669 0.928223 -0.134162
C29   C     C_R   0.661514 0.500436 0.499345 0.896765
C30   C     C_3   0.045536 0.381581 0.585491 -0.399006
C31   C     C_3   0.049894 0.483605 0.358407 -0.465165
C32   C     C_3   0.951458 0.481087 0.357904 0.255758
C33   C     C_1   0.750267 0.498436 0.498598 -0.188477
C34   C     C_3   0.082706 0.494908 0.504225 0.230704
H1    H     H_    0.073686 0.383220 0.687769 0.153036
H2    H     H_    0.943574 0.696885 0.484344 0.138435
H3    H     H_    0.592669 0.213612 0.748123 0.158970
H4    H     H_    0.556616 0.115371 0.962582 0.137785
H5    H     H_    0.471572 0.913215 0.969716 0.133238
H6    H     H_    0.431528 0.804957 0.762539 0.165409
H7    H     H_    0.514358 0.884616 0.288482 0.169817
H8    H     H_    0.589766 0.652195 0.123973 0.141951
H9    H     H_    0.065824 0.294131 0.536660 0.170579
H10   H     H_    0.388506 0.331136 0.254907 0.217606
H11   H     H_    0.310530 0.164345 0.151005 0.158542
H12   H     H_    0.304594 0.149549 0.908641 0.146324
H13   H     H_    0.589543 0.652348 0.874661 0.152509
H14   H     H_    0.076287 0.564426 0.298268 0.144893
H15   H     H_    0.072493 0.397430 0.309924 0.202042
H16   H     H_    0.931976 0.562414 0.298367 0.074436
H17   H     H_    0.073659 0.620676 0.677150 0.190099
H18   H     H_    0.085680 0.699775 0.519446 0.163262
N1    N     N_R   0.499210 0.498800 0.142780 -0.116270
N2    N     N_R   0.499180 0.498720 0.857170 -0.114046
O1    O     O_R   0.500000 0.316780 0.614690 -0.620765
O2    O     O_R   0.499990 0.316750 0.385360 -0.611356
O3    O     O_R   0.377150 0.500020 0.614720 -0.597561
O4    O     O_R   0.377140 0.499990 0.385380 -0.639115
O5    O     O_R   0.500010 0.683250 0.614640 -0.630677
O6    O     O_R   0.500000 0.683220 0.385310 -0.621971
O7    O     O_R   0.622860 0.500010 0.614620 -0.623981
O8    O     O_R   0.622850 0.499980 0.385280 -0.600479
Zn1   Zn    Zn3+2 0.500010 0.500020 0.653130 0.939127
Zn2   Zn    Zn3+2 0.499990 0.499980 0.346870 0.944549
N3    N     N_3   0.910216 0.261459 0.540208 -0.375634
H19   H     H_    0.931658 0.188865 0.598217 0.172412
H20   H     H_    0.843992 0.256902 0.552026 0.193380
N4    N     N_3   0.919186 0.391522 0.735567 -0.490652
H21   H     H_    0.955170 0.461701 0.786388 0.212819
H22   H     H_    0.855037 0.411143 0.742537 0.192977
N5    N     N_3   0.541391 0.122954 0.252446 -0.421558
H23   H     H_    0.489625 0.098740 0.190605 0.185916
H24   H     H_    0.595481 0.087036 0.208422 0.176010
N6    N     N_3   0.363439 0.306061 0.736417 -0.360840
H25   H     H_    0.369590 0.214751 0.700794 0.173599
H26   H     H_    0.298376 0.321292 0.733472 0.160237
O9    O     O_3   0.917452 0.370746 0.296353 -0.738757
H27   H     H_    0.929070 0.379104 0.198415 0.329870
N7    N     N_3   0.918806 0.660685 0.687955 -0.471809
H28   H     H_    0.950035 0.744830 0.718876 0.191033
H29   H     H_    0.855629 0.681603 0.672709 0.192385

loop_
_geom_bond_atom_site_label_1
_geom_bond_atom_site_label_2
_ccdc_geom_bond_type
C4    H2    S    
C28   H13   S    
C3    C6    S    
C7    C8    T    
O9    H27   S    
C23   O5    A    
N6    H26   S    
C30   H1    S    
C1    O2    A    
C2    N4    S    
N1    Zn2   S    
N2    Zn1   S    
C15   C16   A    
C29   C33   S    
C18   C19   A    
O7    Zn1   S    
C13   H6    S    
O8    Zn2   S    
C32   O9    S    
C16   C17   A    
N3    H20   S    
O1    Zn1   S    
O2    Zn2   S    
C5    H18   S    
C9    C10   A    
C12   O4    A    
C2    N3    S    
C13   C14   A    
C31   H15   S    
C20   H10   S    
O6    Zn2   S    
O3    Zn1   S    
C21   H11   S    
O4    Zn2   S    
C23   O6    A    
C29   O7    A    
N6    H25   S    
C30   C34   S    
C25   N2    A    
C4    N7    S    
C18   H7    S    
N7    H29   S    
C28   N2    A    
N4    H21   S    
C25   C26   A    
C19   C23   S    
C31   C32   S    
C8    C12   S    
C5    C34   S    
C9    H3    S    
C17   C18   A    
C31   C34   S    
C1    C16   S    
C24   C25   A    
C11   H5    S    
C32   H16   S    
C12   O3    A    
C22   H12   S    
C17   N5    S    
C31   H14   S    
C7    C34   S    
C22   C24   A    
C30   H9    S    
C3    C4    S    
C26   N1    A    
N5    H24   S    
C29   O8    A    
C14   C19   A    
C4    C5    S    
C27   N1    A    
O5    Zn1   S    
C6    C33   T    
C2    C30   S    
C10   H4    S    
C2    C3    S    
C1    O1    A    
N5    H23   S    
C11   C13   A    
C27   H8    S    
C24   N6    S    
C20   C26   A    
C9    C15   A    
C3    C32   S    
C10   C11   A    
N7    H28   S    
C20   C21   A    
N4    H22   S    
N3    H19   S    
C27   C28   A    
C14   C15   A    
C5    H17   S    
C21   C22   A    
