data_mof_unit_17134.cif
_audit_creation_date              2012-12-10T18:07:22-0500
_audit_creation_method            fapswitch 2.2
_symmetry_space_group_name_H-M    P1
_symmetry_Int_Tables_number       1
_space_group_crystal_system       triclinic
_cell_length_a                    18.351612
_cell_length_b                    18.351606
_cell_length_c                    21.92955
_cell_angle_alpha                 89.99995
_cell_angle_beta                  89.999925
_cell_angle_gamma                 89.999868
_cell_volume                      7385.46790313

loop_
_atom_site_label
_atom_site_type_symbol
_atom_type_description
_atom_site_fract_x
_atom_site_fract_y
_atom_site_fract_z
_atom_type_partial_charge
C1    C     C_R   0.000000 0.360066 0.000001 0.949300
C2    C     C_R   0.360066 0.000000 1.000000 0.949298
C3    C     C_R   1.000000 0.639934 0.000001 0.949293
C4    C     C_R   0.639934 1.000000 0.999999 0.949298
C5    C     C_R   0.500000 0.860065 0.499998 0.930727
C6    C     C_R   0.860065 0.500000 0.500003 0.930690
C7    C     C_R   0.500000 0.139935 0.499999 0.930655
C8    C     C_R   0.139935 0.500000 0.500003 0.930695
C9    C     C_1   0.000001 0.282371 0.000001 0.058464
C10   C     C_1   0.282372 0.000001 1.000000 0.058488
C11   C     C_1   0.999999 0.717628 0.000001 0.058469
C12   C     C_1   0.717628 1.000000 0.999999 0.058481
C13   C     C_1   0.500000 0.782423 0.499998 -0.005943
C14   C     C_1   0.782423 0.500000 0.500003 -0.005863
C15   C     C_1   0.500000 0.217577 0.499999 -0.005753
C16   C     C_1   0.217577 0.500000 0.500002 -0.005836
C17   C     C_R   0.000000 0.500001 0.881050 0.885306
C18   C     C_R   0.500001 0.000000 0.881051 0.885309
C19   C     C_R   1.000000 0.500000 0.118949 0.885311
C20   C     C_R   0.499999 1.000000 0.118949 0.885304
C21   C     C_R   0.500000 0.000001 0.380995 0.883968
C22   C     C_R   0.000001 0.500000 0.380995 0.884043
C23   C     C_R   0.500000 0.000001 0.619004 0.884023
C24   C     C_R   0.999999 0.500000 0.619004 0.883948
C25   C     C_R   0.047320 0.627264 0.807813 0.238076
C26   C     C_R   0.627242 0.952628 0.807816 0.238105
C27   C     C_R   0.952693 0.372732 0.807815 0.238085
C28   C     C_R   0.372747 0.047346 0.807815 0.238098
C29   C     C_R   0.047382 0.372761 0.192185 0.238107
C30   C     C_R   0.627265 0.047314 0.192185 0.238077
C31   C     C_R   0.952623 0.627241 0.192187 0.238124
C32   C     C_R   0.372741 0.952673 0.192184 0.238097
C33   C     C_R   0.592192 0.100379 0.307454 0.266586
C34   C     C_R   0.100435 0.407866 0.307449 0.266543
C35   C     C_R   0.407826 0.899606 0.307452 0.266588
C36   C     C_R   0.899569 0.592133 0.307451 0.266550
C37   C     C_R   0.592140 0.899572 0.692551 0.266548
C38   C     C_R   0.100385 0.592186 0.692547 0.266586
C39   C     C_R   0.407836 0.100405 0.692548 0.266562
C40   C     C_R   0.899625 0.407803 0.692545 0.266600
C41   C     C_R   0.097993 0.674442 0.779838 0.263761
C42   C     C_R   0.674389 0.901921 0.779847 0.263719
C43   C     C_R   0.902027 0.325547 0.779838 0.263763
C44   C     C_R   0.325581 0.098029 0.779841 0.263732
C45   C     C_R   0.098088 0.325614 0.220154 0.263727
C46   C     C_R   0.674448 0.097981 0.220161 0.263767
C47   C     C_R   0.901921 0.674392 0.220159 0.263732
C48   C     C_R   0.325571 0.901989 0.220157 0.263747
C49   C     C_R   0.656951 0.124501 0.279208 0.255111
C50   C     C_R   0.124605 0.343130 0.279195 0.255117
C51   C     C_R   0.343077 0.875466 0.279200 0.255090
C52   C     C_R   0.875401 0.656872 0.279199 0.255108
C53   C     C_R   0.656874 0.875403 0.720807 0.255103
C54   C     C_R   0.124515 0.656940 0.720794 0.255090
C55   C     C_R   0.343086 0.124547 0.720797 0.255112
C56   C     C_R   0.875508 0.343042 0.720792 0.255095
C57   C     C_R   0.139515 0.000001 1.000000 0.757815
C58   C     C_R   0.999999 0.860485 0.000000 0.757834
C59   C     C_R   0.860485 1.000000 0.000000 0.757826
C60   C     C_R   0.000001 0.139515 0.000000 0.757832
C61   C     C_R   0.639529 0.500000 0.500000 0.804911
C62   C     C_R   0.500000 0.360471 0.500000 0.804994
C63   C     C_R   0.360471 0.500000 0.500000 0.804911
C64   C     C_R   0.500000 0.639529 0.500000 0.804829
C65   C     C_R   0.044162 0.550177 0.719018 -0.093336
C66   C     C_R   0.550160 0.955820 0.719019 -0.093306
C67   C     C_R   0.955841 0.449819 0.719020 -0.093391
C68   C     C_R   0.449833 0.044174 0.719019 -0.093368
C69   C     C_R   0.044186 0.449844 0.280981 -0.093346
C70   C     C_R   0.550179 0.044162 0.280981 -0.093385
C71   C     C_R   0.955815 0.550157 0.280981 -0.093293
C72   C     C_R   0.449825 0.955836 0.280980 -0.093322
C73   C     C_R   0.559501 0.030146 0.218785 -0.097033
C74   C     C_R   0.030175 0.440516 0.218786 -0.097026
C75   C     C_R   0.440502 0.969850 0.218787 -0.097049
C76   C     C_R   0.969825 0.559485 0.218786 -0.097044
C77   C     C_R   0.559488 0.969832 0.781214 -0.097040
C78   C     C_R   0.030147 0.559500 0.781214 -0.097042
C79   C     C_R   0.440507 0.030161 0.781215 -0.097036
C80   C     C_R   0.969857 0.440498 0.781213 -0.097041
C81   C     C_R   1.000000 0.499999 0.686151 -0.003495
C82   C     C_R   0.499999 1.000000 0.686151 -0.003468
C83   C     C_R   0.000000 0.500000 0.313848 -0.003456
C84   C     C_R   0.500000 0.000000 0.313848 -0.003484
C85   C     C_R   0.500000 1.000000 0.186024 0.012425
C86   C     C_R   0.999999 0.500001 0.186024 0.012408
C87   C     C_R   0.499999 1.000000 0.813976 0.012413
C88   C     C_R   0.000001 0.500000 0.813976 0.012427
C89   C     C_1   0.000001 0.217045 0.000001 -0.072899
C90   C     C_1   0.217045 0.000001 1.000000 -0.072925
C91   C     C_1   0.999999 0.782955 0.000001 -0.072904
C92   C     C_1   0.782955 0.999999 0.999999 -0.072910
C93   C     C_1   0.500000 0.717095 0.499999 -0.072643
C94   C     C_1   0.717095 0.500001 0.500001 -0.072522
C95   C     C_1   0.500000 0.282905 0.500000 -0.072378
C96   C     C_1   0.282905 0.500000 0.500001 -0.072505
Cu1   Cu    Cu3+1 0.927460 0.500000 0.000000 1.141810
Cu2   Cu    Cu3+1 0.500000 0.072540 0.000000 1.141792
Cu3   Cu    Cu3+1 0.072540 0.500000 0.000000 1.141822
Cu4   Cu    Cu3+1 0.500000 0.927460 0.000000 1.141835
Cu5   Cu    Cu3+1 0.427460 0.000000 0.500000 1.160198
Cu6   Cu    Cu3+1 0.000000 0.572540 0.500000 1.160281
Cu7   Cu    Cu3+1 0.572540 0.000000 0.500000 1.160189
Cu8   Cu    Cu3+1 0.000000 0.427460 0.500000 1.160104
Cu9   Cu    Cu3+1 0.000000 0.000000 0.938220 1.193542
Cu10  Cu    Cu3+1 0.000000 0.000000 0.061780 1.193514
Cu11  Cu    Cu3+1 0.500000 0.500000 0.438220 1.128201
Cu12  Cu    Cu3+1 0.500000 0.500000 0.561780 1.128214
O1    O     O_R   0.938740 0.394190 0.000020 -0.558101
O2    O     O_R   0.394190 0.061260 0.000020 -0.558068
O3    O     O_R   0.061260 0.605810 0.000020 -0.558091
O4    O     O_R   0.605810 0.938740 0.000020 -0.558043
O5    O     O_R   0.938740 0.605810 0.999980 -0.558046
O6    O     O_R   0.394190 0.938740 0.999980 -0.558072
O7    O     O_R   0.061260 0.394190 0.999980 -0.558038
O8    O     O_R   0.605810 0.061260 0.999980 -0.558099
O9    O     O_R   0.438740 0.894190 0.500020 -0.551875
O10   O     O_R   0.894190 0.561260 0.500020 -0.551963
O11   O     O_R   0.561260 0.105810 0.500020 -0.551864
O12   O     O_R   0.105810 0.438740 0.500020 -0.551934
O13   O     O_R   0.438740 0.105810 0.499980 -0.551916
O14   O     O_R   0.894190 0.438740 0.499980 -0.551832
O15   O     O_R   0.561260 0.894190 0.499980 -0.551927
O16   O     O_R   0.105810 0.561260 0.499980 -0.551863
O17   O     O_R   0.938740 0.500000 0.909860 -0.563330
O18   O     O_R   0.500000 0.061260 0.909860 -0.563354
O19   O     O_R   0.061260 0.500000 0.909860 -0.563329
O20   O     O_R   0.500000 0.938740 0.909860 -0.563336
O21   O     O_R   0.938740 0.500000 0.090140 -0.563348
O22   O     O_R   0.500000 0.938740 0.090140 -0.563327
O23   O     O_R   0.061260 0.500000 0.090140 -0.563343
O24   O     O_R   0.500000 0.061260 0.090140 -0.563335
O25   O     O_R   0.438740 0.000000 0.409860 -0.560933
O26   O     O_R   1.000000 0.561260 0.409860 -0.560905
O27   O     O_R   0.561260 0.000000 0.409860 -0.560918
O28   O     O_R   1.000000 0.438740 0.409860 -0.560949
O29   O     O_R   0.438740 0.000000 0.590140 -0.560921
O30   O     O_R   0.000000 0.438740 0.590140 -0.560949
O31   O     O_R   0.561260 0.000000 0.590140 -0.560943
O32   O     O_R   0.000000 0.561260 0.590140 -0.560915
O33   O     O_R   0.105780 0.999970 0.947820 -0.543794
O34   O     O_R   0.999970 0.894220 0.947820 -0.543788
O35   O     O_R   0.894220 0.000030 0.947820 -0.543805
O36   O     O_R   0.000030 0.105780 0.947820 -0.543781
O37   O     O_R   0.105780 0.000030 0.052180 -0.543800
O38   O     O_R   0.999970 0.105780 0.052180 -0.543807
O39   O     O_R   0.894220 0.999970 0.052180 -0.543788
O40   O     O_R   0.000030 0.894220 0.052180 -0.543807
O41   O     O_R   0.605780 0.499970 0.447820 -0.557651
O42   O     O_R   0.499970 0.394220 0.447820 -0.557637
O43   O     O_R   0.394220 0.500030 0.447820 -0.557649
O44   O     O_R   0.500030 0.605780 0.447820 -0.557679
O45   O     O_R   0.605780 0.500030 0.552180 -0.557649
O46   O     O_R   0.499970 0.605780 0.552180 -0.557652
O47   O     O_R   0.394220 0.499970 0.552180 -0.557646
O48   O     O_R   0.500030 0.394220 0.552180 -0.557629
S1    S     S_3+6 0.869327 0.249321 0.822247 0.135942
O49   O     O_2   0.790296 0.234982 0.808943 -0.178787
O50   O     O_2   0.913591 0.183260 0.805836 -0.182452
O51   O     O_3   0.877330 0.265132 0.897475 -0.511070
H1    H     H_    0.862113 0.219081 0.917311 0.365589
S2    S     S_3+6 0.249363 0.130750 0.822247 0.135972
O52   O     O_2   0.235074 0.209796 0.808970 -0.178765
O53   O     O_2   0.183281 0.086530 0.805810 -0.182458
O54   O     O_3   0.265143 0.122703 0.897475 -0.511013
H2    H     H_    0.219083 0.137900 0.917309 0.365594
S3    S     S_3+6 0.130705 0.750661 0.822247 0.135949
O55   O     O_2   0.209745 0.764973 0.808959 -0.178772
O56   O     O_2   0.086468 0.816736 0.805820 -0.182468
O57   O     O_3   0.122675 0.734864 0.897476 -0.511047
H3    H     H_    0.137879 0.780922 0.917309 0.365595
S4    S     S_3+6 0.750586 0.869168 0.822261 0.135965
O58   O     O_2   0.764806 0.790103 0.809018 -0.178785
O59   O     O_2   0.816702 0.913324 0.805796 -0.182495
O60   O     O_3   0.734827 0.877275 0.897489 -0.510982
H4    H     H_    0.780886 0.862071 0.917323 0.365599
S5    S     S_3+6 0.869176 0.750597 0.177749 0.135960
O61   O     O_2   0.790118 0.764846 0.191013 -0.178762
O62   O     O_2   0.913355 0.816700 0.194204 -0.182499
O63   O     O_3   0.877255 0.734827 0.102520 -0.510988
H5    H     H_    0.862055 0.780888 0.082690 0.365610
S6    S     S_3+6 0.249357 0.869268 0.177746 0.135945
O64   O     O_2   0.235075 0.790218 0.191017 -0.178773
O65   O     O_2   0.183271 0.913478 0.194190 -0.182503
O66   O     O_3   0.265140 0.877328 0.102517 -0.511037
H6    H     H_    0.219076 0.862141 0.082686 0.365592
S7    S     S_3+6 0.130841 0.249417 0.177740 0.135962
O67   O     O_2   0.209901 0.235182 0.190997 -0.178779
O68   O     O_2   0.086672 0.183306 0.194194 -0.182493
O69   O     O_3   0.122752 0.265186 0.102512 -0.510981
H7    H     H_    0.137955 0.219127 0.082678 0.365603
S8    S     S_3+6 0.750673 0.130684 0.177754 0.135945
O70   O     O_2   0.765001 0.209719 0.191050 -0.178785
O71   O     O_2   0.816738 0.086430 0.194173 -0.182458
O72   O     O_3   0.734871 0.122669 0.102525 -0.511062
H8    H     H_    0.780927 0.137875 0.082691 0.365587
S9    S     S_3+6 0.283048 0.817841 0.321304 0.136855
O73   O     O_2   0.204814 0.836501 0.308448 -0.176616
O74   O     O_2   0.297196 0.739954 0.303704 -0.204817
O75   O     O_3   0.296928 0.827518 0.396726 -0.474482
H9    H     H_    0.268010 0.788147 0.415943 0.376404
S10   S     S_3+6 0.817744 0.716870 0.321303 0.136861
O76   O     O_2   0.836365 0.795116 0.308458 -0.176410
O77   O     O_2   0.739865 0.702690 0.303689 -0.205028
O78   O     O_3   0.827418 0.702986 0.396725 -0.474465
H10   H     H_    0.787858 0.731656 0.415930 0.376389
S11   S     S_3+6 0.717013 0.182073 0.321326 0.136804
O79   O     O_2   0.795232 0.163354 0.308464 -0.177105
O80   O     O_2   0.702927 0.259977 0.303747 -0.204392
O81   O     O_3   0.703125 0.172390 0.396746 -0.474526
H11   H     H_    0.732581 0.211337 0.415995 0.376399
S12   S     S_3+6 0.182260 0.283128 0.321295 0.136812
O82   O     O_2   0.163639 0.204886 0.308436 -0.176778
O83   O     O_2   0.260141 0.297312 0.303698 -0.204710
O84   O     O_3   0.172582 0.296996 0.396718 -0.474521
H12   H     H_    0.211848 0.267942 0.415943 0.376375
S13   S     S_3+6 0.283052 0.182157 0.678688 0.136809
O85   O     O_2   0.204823 0.163477 0.691543 -0.176934
O86   O     O_2   0.297179 0.260049 0.696278 -0.204573
O87   O     O_3   0.296934 0.172482 0.603265 -0.474510
H13   H     H_    0.267675 0.211587 0.584029 0.376392
S14   S     S_3+6 0.817944 0.282975 0.678668 0.136795
O88   O     O_2   0.836670 0.204757 0.691533 -0.177106
O89   O     O_2   0.740037 0.297050 0.696243 -0.204397
O90   O     O_3   0.827634 0.296864 0.603250 -0.474534
H14   H     H_    0.788688 0.267409 0.583998 0.376401
S15   S     S_3+6 0.716865 0.817729 0.678717 0.136855
O91   O     O_2   0.795112 0.836333 0.691569 -0.176505
O92   O     O_2   0.702659 0.739856 0.696326 -0.204946
O93   O     O_3   0.703001 0.827400 0.603292 -0.474462
H15   H     H_    0.731778 0.787919 0.584084 0.376390
S16   S     S_3+6 0.182109 0.716986 0.678679 0.136843
O94   O     O_2   0.163417 0.795213 0.691535 -0.176808
O95   O     O_2   0.260007 0.702876 0.696268 -0.204645
O96   O     O_3   0.172426 0.703096 0.603259 -0.474478
H16   H     H_    0.211613 0.732244 0.584025 0.376411
Cl1   Cl    Cl    0.984983 0.664170 0.860333 -0.531837
Cl2   Cl    Cl    0.664179 0.014959 0.860326 -0.531882
Cl3   Cl    Cl    0.015029 0.335834 0.860335 -0.531846
Cl4   Cl    Cl    0.335830 0.985013 0.860331 -0.531865
Cl5   Cl    Cl    0.985054 0.335821 0.139674 -0.531891
Cl6   Cl    Cl    0.664167 0.984977 0.139665 -0.531837
Cl7   Cl    Cl    0.014949 0.664177 0.139674 -0.531877
Cl8   Cl    Cl    0.335827 0.015009 0.139669 -0.531848
Cl9   Cl    Cl    0.550829 0.156930 0.362352 -0.547458
Cl10  Cl    Cl    0.156956 0.449268 0.362348 -0.547670
Cl11  Cl    Cl    0.449204 0.843067 0.362349 -0.547740
Cl12  Cl    Cl    0.843045 0.550729 0.362345 -0.547873
Cl13  Cl    Cl    0.550737 0.843052 0.637651 -0.547805
Cl14  Cl    Cl    0.156932 0.550815 0.637651 -0.547620
Cl15  Cl    Cl    0.449218 0.156942 0.637648 -0.547565
Cl16  Cl    Cl    0.843070 0.449161 0.637649 -0.547460

loop_
_geom_bond_atom_site_label_1
_geom_bond_atom_site_label_2
_ccdc_geom_bond_type
C19   O21   A    
C48   S6    S    
O54   H2    S    
Cu2   O2    S    
C23   C82   S    
C57   O37   A    
C24   O30   A    
C17   C88   S    
C39   C68   A    
C22   O28   A    
O84   H12   S    
C19   C86   S    
Cu7   O15   S    
C32   C75   A    
C79   C87   A    
C31   C76   A    
C27   Cl3   S    
S3    O56   D    
O78   H10   S    
C24   O32   A    
S13   O87   S    
C46   C49   A    
C8    O12   A    
S1    O49   D    
Cu10  O37   S    
C60   O38   A    
C64   O44   A    
C15   C95   T    
C31   Cl7   S    
C20   O24   A    
C64   C93   S    
C42   C53   A    
Cu3   O7    S    
C71   C76   A    
C40   Cl16  S    
Cu4   O22   S    
O51   H1    S    
Cu8   O14   S    
O57   H3    S    
S9    O73   D    
C33   C49   A    
C64   O46   A    
C80   C88   A    
Cu10  O40   S    
C54   S16   S    
S9    O74   D    
C28   C79   A    
Cu7   O27   S    
S6    O64   D    
S7    O69   S    
C51   S9    S    
C1    O1    A    
Cu11  O42   S    
Cu2   O8    S    
C75   C85   A    
C48   C51   A    
C39   C55   A    
Cu12  O45   S    
C49   S11   S    
C3    O3    A    
O75   H9    S    
C40   C56   A    
C40   C67   A    
Cu12  O48   S    
C34   Cl10  S    
S11   O81   S    
C28   Cl4   S    
O96   H16   S    
C21   C84   S    
C33   Cl9   S    
C65   C78   A    
C4    C12   S    
C70   C84   A    
C58   C91   S    
C4    O8    A    
C71   C83   A    
C36   C52   A    
S4    O60   S    
C12   C92   T    
Cu11  O43   S    
C68   C79   A    
C7    C15   S    
C4    O4    A    
C59   O35   A    
C8    C16   S    
C31   C47   A    
C62   C95   S    
C32   Cl8   S    
C37   C53   A    
C32   C48   A    
Cu6   O10   S    
O93   H15   S    
C44   S2    S    
C7    O13   A    
C72   C75   A    
Cu6   O16   S    
Cu2   O24   S    
C21   O25   A    
O87   H13   S    
Cu1   Cu3   S    
C23   O29   A    
S3    O57   S    
S2    O53   D    
C19   O23   A    
C77   C87   A    
C16   C96   T    
C26   C77   A    
C34   C50   A    
C57   C90   S    
C18   O18   A    
C25   C78   A    
S8    O72   S    
C7    O11   A    
C1    C9    S    
Cu1   O17   S    
C27   C80   A    
S10   O76   D    
C25   C41   A    
Cu9   O34   S    
Cu8   O30   S    
C30   C73   A    
Cu5   O29   S    
C61   C94   S    
C45   S7    S    
Cu3   O19   S    
C29   C74   A    
S14   O90   S    
S5    O62   D    
S13   O85   D    
C60   C89   S    
C63   C96   S    
C28   C44   A    
S16   O96   S    
Cu5   O13   S    
Cu10  O39   S    
S11   O79   D    
C13   C93   T    
S6    O66   S    
S8    O71   D    
S1    O50   D    
S9    O75   S    
S14   O89   D    
C24   C81   S    
Cu6   O26   S    
O69   H7    S    
C69   C83   A    
Cu7   O31   S    
C68   C82   A    
C66   C82   A    
S2    O54   S    
Cu1   O1    S    
C26   Cl2   S    
C65   C81   A    
S15   O91   D    
C38   C54   A    
C38   C65   A    
C25   Cl1   S    
C58   O40   A    
Cu11  Cu12  S    
S5    O63   S    
Cu3   O3    S    
C20   C85   S    
C70   C73   A    
S16   O95   D    
O90   H14   S    
C35   C51   A    
Cu4   O6    S    
C69   C74   A    
Cu6   O32   S    
C74   C86   A    
Cu6   Cu8   S    
C34   C69   A    
C63   O43   A    
C72   C84   A    
S10   O77   D    
C33   C70   A    
C50   S12   S    
Cu11  O44   S    
C8    O16   A    
S15   O92   D    
C22   O26   A    
C35   C72   A    
Cu4   O4    S    
S1    O51   S    
Cu2   Cu4   S    
C3    O5    A    
C36   Cl12  S    
C6    O14   A    
C9    C89   T    
C61   O41   A    
C2    C10   S    
C18   O20   A    
C76   C86   A    
S3    O55   D    
S4    O58   D    
C26   C42   A    
C39   Cl15  S    
S2    O52   D    
C73   C85   A    
Cu2   O18   S    
C78   C88   A    
C66   C77   A    
C2    O2    A    
Cu9   O36   S    
C58   O34   A    
Cu8   O28   S    
C23   O31   A    
Cu4   O20   S    
S12   O84   S    
C5    C13   S    
C30   C46   A    
Cu7   O11   S    
C67   C80   A    
C42   S4    S    
C17   O19   A    
C46   S8    S    
C43   S1    S    
C61   O45   A    
C1    O7    A    
Cu9   O35   S    
C36   C71   A    
C67   C81   A    
C47   C52   A    
Cu5   O25   S    
S13   O86   D    
C14   C94   T    
Cu9   Cu10  S    
C5    O15   A    
C35   Cl11  S    
C18   C87   S    
Cu10  O38   S    
C57   O33   A    
Cu5   O9    S    
S8    O70   D    
Cu9   O33   S    
Cu1   O21   S    
C6    C14   S    
C47   S5    S    
O60   H4    S    
C60   O36   A    
C22   C83   S    
C56   S14   S    
C2    O6    A    
C44   C55   A    
C17   O17   A    
O66   H6    S    
C38   Cl14  S    
Cu12  O47   S    
C5    O9    A    
C45   C50   A    
C37   Cl13  S    
C41   S3    S    
S16   O94   D    
S4    O59   D    
C62   O48   A    
C52   S10   S    
C59   C92   S    
O81   H11   S    
C37   C66   A    
S14   O88   D    
C62   O42   A    
S6    O65   D    
C41   C54   A    
S7    O68   D    
C3    C11   S    
C27   C43   A    
S12   O83   D    
C63   O47   A    
O72   H8    S    
Cu11  O41   S    
C11   C91   T    
C43   C56   A    
S7    O67   D    
S15   O93   S    
Cu12  O46   S    
S12   O82   D    
C10   C90   T    
Cu5   Cu7   S    
S5    O61   D    
C30   Cl6   S    
C29   C45   A    
S11   O80   D    
C29   Cl5   S    
C55   S13   S    
C20   O22   A    
S10   O78   S    
Cu3   O23   S    
Cu1   O5    S    
C21   O27   A    
C53   S15   S    
O63   H5    S    
C6    O10   A    
Cu8   O12   S    
C59   O39   A    
