data_mof_unit_12665.cif
_audit_creation_date              2013-03-05T16:00:41-0500
_audit_creation_method            fapswitch 2.2
_symmetry_space_group_name_H-M    P1
_symmetry_Int_Tables_number       1
_space_group_crystal_system       triclinic
_cell_length_a                    6.966138
_cell_length_b                    31.302746
_cell_length_c                    35.041294
_cell_angle_alpha                 89.999932
_cell_angle_beta                  90.000228
_cell_angle_gamma                 89.999862
_cell_volume                      7641.07823304

loop_
_atom_site_label
_atom_site_type_symbol
_atom_site_description
_atom_site_fract_x
_atom_site_fract_y
_atom_site_fract_z
_atom_type_partial_charge
O1    O     O_R   0.417270 0.211480 0.210950 -0.585350
O2    O     O_R   0.582730 0.788520 0.789050 -0.598625
O3    O     O_R   0.582730 0.788520 0.710950 -0.585350
O4    O     O_R   0.417270 0.211480 0.289050 -0.598628
O5    O     O_R   0.917270 0.288520 0.289050 -0.585351
O6    O     O_R   0.082730 0.711480 0.710950 -0.598626
O7    O     O_R   0.082730 0.711480 0.789050 -0.585352
O8    O     O_R   0.917270 0.288520 0.210950 -0.598629
O9    O     O_R   0.746940 0.206370 0.288750 -0.588903
O10   O     O_R   0.253060 0.793630 0.711250 -0.600564
O11   O     O_R   0.253060 0.793630 0.788750 -0.588906
O12   O     O_R   0.746940 0.206370 0.211250 -0.600565
O13   O     O_R   0.246940 0.293630 0.211250 -0.588898
O14   O     O_R   0.753060 0.706370 0.788750 -0.600563
O15   O     O_R   0.753060 0.706370 0.711250 -0.588904
O16   O     O_R   0.246940 0.293630 0.288750 -0.600566
C1    C     C_R   0.578187 0.196065 0.301844 0.974519
C2    C     C_R   0.421890 0.804012 0.698258 0.974209
C3    C     C_R   0.421814 0.803934 0.801844 0.974520
C4    C     C_R   0.578109 0.195988 0.198258 0.974218
C5    C     C_R   0.078186 0.303935 0.198156 0.974517
C6    C     C_R   0.921891 0.695988 0.801742 0.974207
C7    C     C_R   0.921813 0.696065 0.698156 0.974521
C8    C     C_R   0.078109 0.304011 0.301742 0.974212
O17   O     O_3   0.583760 0.276950 0.250000 -0.275325
O18   O     O_3   0.416240 0.723050 0.750000 -0.275325
O19   O     O_3   0.083760 0.223050 0.250000 -0.275325
O20   O     O_3   0.916240 0.776950 0.750000 -0.275325
V1    V     V_3+5 0.858600 0.245000 0.250000 1.168912
V2    V     V_3+5 0.141400 0.755000 0.750000 1.168905
V3    V     V_3+5 0.358600 0.255000 0.250000 1.168915
V4    V     V_3+5 0.641400 0.745000 0.750000 1.168907
C9    C     C_R   0.919629 0.587293 0.538245 0.591069
C10   C     C_R   0.975369 0.413317 0.459369 0.594790
C11   C     C_R   0.080384 0.412707 0.038246 0.591136
C12   C     C_R   0.024668 0.586683 0.959367 0.594773
C13   C     C_R   0.419636 0.912707 0.961754 0.591050
C14   C     C_R   0.475371 0.086684 0.040631 0.594783
C15   C     C_R   0.580391 0.087293 0.461754 0.591095
C16   C     C_R   0.524666 0.913317 0.540634 0.594788
N1    N     N_R   0.949949 0.573394 0.574941 -0.172473
N2    N     N_R   0.013428 0.427978 0.423192 -0.173520
N3    N     N_R   0.050064 0.426607 0.074941 -0.172464
N4    N     N_R   0.986594 0.572021 0.923191 -0.173522
N5    N     N_R   0.449949 0.926606 0.925058 -0.172475
N6    N     N_R   0.513433 0.072023 0.076807 -0.173520
N7    N     N_R   0.550075 0.073392 0.425058 -0.172469
N8    N     N_R   0.486592 0.927979 0.576809 -0.173519
C17   C     C_R   0.980440 0.530747 0.582135 0.520126
C18   C     C_R   0.027081 0.471126 0.416340 0.526082
C19   C     C_R   0.019596 0.469255 0.082135 0.520108
C20   C     C_R   0.972933 0.528873 0.916339 0.526093
C21   C     C_R   0.480439 0.969253 0.917864 0.520120
C22   C     C_R   0.527091 0.028874 0.083660 0.526081
C23   C     C_R   0.519603 0.030744 0.417865 0.520105
C24   C     C_R   0.472934 0.971128 0.583661 0.526095
C25   C     C_R   0.966975 0.500156 0.552405 -0.109418
C26   C     C_R   0.987822 0.501124 0.445656 -0.108521
C27   C     C_R   0.033078 0.499845 0.052404 -0.109402
C28   C     C_R   0.012193 0.498875 0.945656 -0.108530
C29   C     C_R   0.466976 0.999844 0.947594 -0.109414
C30   C     C_R   0.487833 0.998876 0.054343 -0.108522
C31   C     C_R   0.533081 0.000155 0.447595 -0.109396
C32   C     C_R   0.512195 0.001125 0.554344 -0.108528
C33   C     C_R   0.958898 0.515033 0.514402 -0.033624
C34   C     C_R   0.971747 0.485980 0.483474 -0.033768
C35   C     C_R   0.041138 0.484967 0.014401 -0.033625
C36   C     C_R   0.028286 0.514020 0.983473 -0.033766
C37   C     C_R   0.458905 0.984968 0.985597 -0.033626
C38   C     C_R   0.471755 0.014021 0.016525 -0.033769
C39   C     C_R   0.541139 0.015032 0.485598 -0.033626
C40   C     C_R   0.528286 0.985980 0.516527 -0.033766
C41   C     C_R   0.939437 0.558993 0.507262 -0.063258
C42   C     C_R   0.969957 0.441780 0.490453 -0.059260
C43   C     C_R   0.060584 0.441007 0.007262 -0.063256
C44   C     C_R   0.030090 0.558220 0.990451 -0.059256
C45   C     C_R   0.439448 0.941008 0.992737 -0.063258
C46   C     C_R   0.469959 0.058220 0.009547 -0.059259
C47   C     C_R   0.560585 0.058993 0.492737 -0.063257
C48   C     C_R   0.530090 0.941780 0.509549 -0.059252
C49   C     C_R   0.964816 0.455433 0.559171 0.193911
C50   C     C_R   0.967555 0.545589 0.438715 0.197232
C51   C     C_R   0.035271 0.544568 0.059169 0.193918
C52   C     C_R   0.032442 0.454410 0.938716 0.197234
C53   C     C_R   0.464810 0.044567 0.940829 0.193914
C54   C     C_R   0.467572 0.954412 0.061284 0.197230
C55   C     C_R   0.535272 0.955432 0.440831 0.193922
C56   C     C_R   0.532448 0.045590 0.561284 0.197231
C57   C     C_R   0.963008 0.426931 0.528211 -0.163202
C58   C     C_R   0.940455 0.573767 0.469453 -0.166772
C59   C     C_R   0.037069 0.573069 0.028209 -0.163210
C60   C     C_R   0.059548 0.426232 0.969453 -0.166766
C61   C     C_R   0.463005 0.073069 0.971788 -0.163208
C62   C     C_R   0.440471 0.926234 0.030547 -0.166771
C63   C     C_R   0.537068 0.926930 0.471791 -0.163218
C64   C     C_R   0.559552 0.073767 0.530547 -0.166763
O21   O     O_2   0.874813 0.628574 0.531656 -0.488457
O22   O     O_2   0.946941 0.371218 0.465409 -0.487323
O23   O     O_2   0.125176 0.371425 0.031658 -0.488469
O24   O     O_2   0.053103 0.628781 0.965407 -0.487319
O25   O     O_2   0.374817 0.871427 0.968344 -0.488453
O26   O     O_2   0.446938 0.128782 0.034590 -0.487324
O27   O     O_2   0.625193 0.128574 0.468342 -0.488462
O28   O     O_2   0.553096 0.871219 0.534594 -0.487322
O29   O     O_2   0.027479 0.518159 0.617729 -0.546448
O30   O     O_2   0.082288 0.484867 0.381559 -0.543132
O31   O     O_2   0.972561 0.481845 0.117729 -0.546448
O32   O     O_2   0.917718 0.515132 0.881559 -0.543132
O33   O     O_2   0.527478 0.981842 0.882270 -0.546447
O34   O     O_2   0.582300 0.015133 0.118440 -0.543132
O35   O     O_2   0.472565 0.018154 0.382271 -0.546449
O36   O     O_2   0.417720 0.984869 0.618441 -0.543132
H1    H     H_    0.959200 0.392929 0.533968 0.181806
H2    H     H_    0.923173 0.607525 0.463531 0.181556
H3    H     H_    0.040900 0.607071 0.033965 0.181809
H4    H     H_    0.076815 0.392474 0.963532 0.181548
H5    H     H_    0.459192 0.107071 0.966031 0.181806
H6    H     H_    0.423192 0.892475 0.036469 0.181559
H7    H     H_    0.540897 0.892928 0.466035 0.181808
H8    H     H_    0.576822 0.107526 0.536468 0.181552
C65   C     C_R   0.915268 0.399769 0.359526 0.233257
C66   C     C_R   0.814906 0.598912 0.636790 0.234731
C67   C     C_R   0.084742 0.600230 0.859524 0.233254
C68   C     C_R   0.185110 0.401084 0.136787 0.234713
C69   C     C_R   0.415272 0.100231 0.140474 0.233259
C70   C     C_R   0.314910 0.901089 0.863208 0.234740
C71   C     C_R   0.584740 0.899769 0.640476 0.233250
C72   C     C_R   0.685108 0.098912 0.363210 0.234727
C73   C     C_R   0.930168 0.368990 0.330540 -0.262917
C74   C     C_R   0.806810 0.629291 0.666262 -0.259747
C75   C     C_R   0.069834 0.631009 0.830538 -0.262925
C76   C     C_R   0.193210 0.370705 0.166259 -0.259681
C77   C     C_R   0.430171 0.131010 0.169460 -0.262925
C78   C     C_R   0.306817 0.870711 0.833735 -0.259770
C79   C     C_R   0.569835 0.868990 0.669461 -0.262914
C80   C     C_R   0.693200 0.129291 0.333738 -0.259728
H9    H     H_    0.834697 0.370729 0.306160 0.133764
H10   H     H_    0.704023 0.625146 0.689186 0.134748
H11   H     H_    0.165299 0.629270 0.806157 0.133764
H12   H     H_    0.296018 0.374847 0.189179 0.134747
H13   H     H_    0.334702 0.129270 0.193840 0.133763
H14   H     H_    0.204036 0.874856 0.810811 0.134749
H15   H     H_    0.665304 0.870729 0.693842 0.133764
H16   H     H_    0.795994 0.125148 0.310815 0.134749
C81   C     C_R   0.067270 0.336481 0.332382 -0.165641
C82   C     C_R   0.931495 0.664277 0.666859 -0.170698
C83   C     C_R   0.932734 0.663518 0.832382 -0.165636
C84   C     C_R   0.068501 0.335724 0.166859 -0.170729
C85   C     C_R   0.567270 0.163519 0.167617 -0.165638
C86   C     C_R   0.431495 0.835723 0.833140 -0.170689
C87   C     C_R   0.432731 0.836482 0.667618 -0.165644
C88   C     C_R   0.568506 0.164276 0.333140 -0.170707
C89   C     C_R   0.192329 0.334939 0.363603 -0.281888
C90   C     C_R   0.066253 0.668834 0.637506 -0.266764
C91   C     C_R   0.807686 0.665061 0.863604 -0.281902
C92   C     C_R   0.933706 0.331173 0.137512 -0.266741
C93   C     C_R   0.692324 0.165062 0.136396 -0.281880
C94   C     C_R   0.566241 0.831164 0.862495 -0.266776
C95   C     C_R   0.307675 0.834941 0.636397 -0.281895
C96   C     C_R   0.433737 0.168830 0.362492 -0.266761
H17   H     H_    0.299965 0.309984 0.364683 0.180321
H18   H     H_    0.163837 0.695776 0.638221 0.178537
H19   H     H_    0.700052 0.690016 0.864685 0.180313
H20   H     H_    0.836099 0.304236 0.138233 0.178581
H21   H     H_    0.799958 0.190018 0.135316 0.180317
H22   H     H_    0.663817 0.804221 0.861783 0.178521
H23   H     H_    0.200037 0.809987 0.635317 0.180323
H24   H     H_    0.336144 0.195770 0.361775 0.178551
C97   C     C_R   0.179151 0.364771 0.393654 0.367305
C98   C     C_R   0.076198 0.639514 0.607056 0.358204
C99   C     C_R   0.820872 0.635228 0.893655 0.367308
C100  C     C_R   0.923751 0.360494 0.107062 0.358175
C101  C     C_R   0.679146 0.135230 0.106345 0.367304
C102  C     C_R   0.576182 0.860484 0.892945 0.358216
C103  C     C_R   0.320858 0.864774 0.606346 0.367308
C104  C     C_R   0.423794 0.139510 0.392942 0.358195
C105  C     C_R   0.037345 0.397646 0.392000 0.020185
C106  C     C_R   0.948054 0.603917 0.606335 0.018822
C107  C     C_R   0.962672 0.602353 0.891999 0.020183
C108  C     C_R   0.051940 0.396084 0.106336 0.018860
C109  C     C_R   0.537346 0.102355 0.108000 0.020183
C110  C     C_R   0.448051 0.896083 0.893664 0.018811
C111  C     C_R   0.462667 0.897647 0.608001 0.020190
C112  C     C_R   0.551956 0.103915 0.393664 0.018838
N9    N     N_2   0.955531 0.438574 0.596846 -0.077436
H25   H     H_    0.026599 0.409878 0.600069 0.172746
C113  C     C_3   0.763365 0.437063 0.612470 -0.765953
H26   H     H_    0.673139 0.414444 0.595842 0.229727
H27   H     H_    0.696244 0.469244 0.611921 0.257058
H28   H     H_    0.769566 0.426082 0.642571 0.243340
N10   N     N_2   0.965111 0.562300 0.400945 -0.077898
H29   H     H_    0.023322 0.592508 0.398717 0.173747
C114  C     C_3   0.779953 0.559395 0.382406 -0.763515
H30   H     H_    0.673359 0.579699 0.397522 0.228480
H31   H     H_    0.728373 0.525824 0.382027 0.259350
H32   H     H_    0.792629 0.570612 0.352455 0.243289
N11   N     N_2   0.044617 0.561427 0.096844 -0.077436
H33   H     H_    0.973616 0.590131 0.100068 0.172751
C115  C     C_3   0.236796 0.562918 0.112463 -0.765963
H34   H     H_    0.327077 0.585516 0.095824 0.229737
H35   H     H_    0.303820 0.530728 0.111924 0.257076
H36   H     H_    0.230651 0.573915 0.142559 0.243334
N12   N     N_2   0.034855 0.437698 0.900946 -0.077898
H37   H     H_    0.976614 0.407492 0.898719 0.173743
C116  C     C_3   0.220006 0.440594 0.882404 -0.763509
H38   H     H_    0.326578 0.420278 0.897512 0.228472
H39   H     H_    0.271639 0.474162 0.882031 0.259339
H40   H     H_    0.207293 0.429387 0.852450 0.243294
N13   N     N_2   0.455514 0.061426 0.903153 -0.077436
H41   H     H_    0.526569 0.090124 0.899930 0.172745
C117  C     C_3   0.263346 0.062933 0.887530 -0.765959
H42   H     H_    0.173105 0.085547 0.904161 0.229728
H43   H     H_    0.196249 0.030750 0.888075 0.257067
H44   H     H_    0.269536 0.073920 0.857430 0.243337
N14   N     N_2   0.465130 0.937701 0.099054 -0.077898
H45   H     H_    0.523343 0.907492 0.101282 0.173748
C118  C     C_3   0.279974 0.940605 0.117593 -0.763514
H46   H     H_    0.173379 0.920301 0.102478 0.228480
H47   H     H_    0.228391 0.974176 0.117973 0.259350
H48   H     H_    0.292651 0.929388 0.147544 0.243290
N15   N     N_2   0.544616 0.938571 0.403156 -0.077435
H49   H     H_    0.473616 0.909867 0.399933 0.172750
C119  C     C_3   0.736796 0.937080 0.387538 -0.765976
H50   H     H_    0.827090 0.914490 0.404182 0.229741
H51   H     H_    0.803801 0.969272 0.388068 0.257090
H52   H     H_    0.730655 0.926073 0.357444 0.243327
N16   N     N_2   0.534871 0.062302 0.599054 -0.077899
H53   H     H_    0.476640 0.092508 0.601281 0.173745
C120  C     C_3   0.720025 0.059403 0.617595 -0.763507
H54   H     H_    0.826600 0.079717 0.602486 0.228474
H55   H     H_    0.771649 0.025834 0.617968 0.259338
H56   H     H_    0.707320 0.070610 0.647549 0.243294
N17   N     N_2   0.780213 0.433566 0.355144 -0.107582
H57   H     H_    0.752964 0.441630 0.327108 0.178033
C121  C     C_3   0.605910 0.428465 0.376858 -0.811515
H58   H     H_    0.511203 0.456536 0.372297 0.257014
H59   H     H_    0.639178 0.426387 0.407721 0.275332
H60   H     H_    0.529195 0.399268 0.367358 0.247367
N18   N     N_2   0.693931 0.562306 0.638927 -0.110484
H61   H     H_    0.661728 0.552961 0.666432 0.178142
C122  C     C_3   0.525324 0.563988 0.615078 -0.789996
H62   H     H_    0.446172 0.533296 0.617185 0.253812
H63   H     H_    0.566219 0.568843 0.584793 0.268184
H64   H     H_    0.429555 0.590157 0.624819 0.256769
N19   N     N_2   0.219798 0.566434 0.855142 -0.107577
H65   H     H_    0.247046 0.558370 0.827106 0.178031
C123  C     C_3   0.394102 0.571534 0.876856 -0.811510
H66   H     H_    0.488809 0.543462 0.872294 0.257017
H67   H     H_    0.360836 0.573610 0.907719 0.275324
H68   H     H_    0.470816 0.600731 0.867357 0.247363
N20   N     N_2   0.306094 0.437689 0.138924 -0.110502
H69   H     H_    0.338297 0.447035 0.166429 0.178143
C124  C     C_3   0.474702 0.436003 0.115076 -0.789998
H70   H     H_    0.553861 0.466695 0.117182 0.253807
H71   H     H_    0.433809 0.431146 0.084791 0.268202
H72   H     H_    0.570463 0.409834 0.124820 0.256759
N21   N     N_2   0.280218 0.066434 0.144855 -0.107582
H73   H     H_    0.252969 0.058370 0.172891 0.178033
C125  C     C_3   0.105916 0.071535 0.123140 -0.811516
H74   H     H_    0.011209 0.043463 0.127702 0.257016
H75   H     H_    0.139185 0.073611 0.092278 0.275329
H76   H     H_    0.029200 0.100732 0.132639 0.247369
N22   N     N_2   0.193934 0.937695 0.861070 -0.110482
H77   H     H_    0.161733 0.947040 0.833565 0.178143
C126  C     C_3   0.025326 0.936013 0.884918 -0.790018
H78   H     H_    0.946165 0.966704 0.882809 0.253818
H79   H     H_    0.066219 0.931160 0.915204 0.268184
H80   H     H_    0.929565 0.909842 0.875179 0.256775
N23   N     N_2   0.719795 0.933566 0.644858 -0.107579
H81   H     H_    0.747040 0.941630 0.672894 0.178032
C127  C     C_3   0.894102 0.928464 0.623146 -0.811512
H82   H     H_    0.988808 0.956536 0.627707 0.257015
H83   H     H_    0.860840 0.926387 0.592282 0.275331
H84   H     H_    0.970815 0.899267 0.632646 0.247363
N24   N     N_2   0.806092 0.062308 0.361072 -0.110496
H85   H     H_    0.838289 0.052962 0.333567 0.178145
C128  C     C_3   0.974705 0.063994 0.384919 -0.790024
H86   H     H_    0.053875 0.033304 0.382810 0.253817
H87   H     H_    0.933816 0.068847 0.415205 0.268200
H88   H     H_    0.070456 0.090165 0.375177 0.256766
N25   N     N_R   0.312078 0.361264 0.425113 0.252024
O37   O     O_R   0.363091 0.394663 0.444735 -0.425726
O38   O     O_R   0.395446 0.324955 0.432401 -0.317604
N26   N     N_R   0.217581 0.646581 0.577583 0.253608
O39   O     O_R   0.288703 0.615013 0.558041 -0.419335
O40   O     O_R   0.286408 0.684709 0.571859 -0.319469
N27   N     N_R   0.687962 0.638738 0.925115 0.252021
O41   O     O_R   0.636922 0.605338 0.944734 -0.425725
O42   O     O_R   0.604663 0.675052 0.932415 -0.317558
N28   N     N_R   0.782296 0.353438 0.077598 0.253611
O43   O     O_R   0.711364 0.385006 0.058028 -0.419327
O44   O     O_R   0.713130 0.315332 0.071926 -0.319613
N29   N     N_R   0.812065 0.138740 0.074886 0.252023
O45   O     O_R   0.863098 0.105341 0.055265 -0.425725
O46   O     O_R   0.895392 0.175052 0.067592 -0.317599
N30   N     N_R   0.717540 0.853413 0.922422 0.253610
O47   O     O_R   0.788728 0.884982 0.941954 -0.419341
O48   O     O_R   0.786251 0.815279 0.928164 -0.319414
N31   N     N_R   0.187931 0.861267 0.574887 0.252023
O49   O     O_R   0.136933 0.894667 0.555264 -0.425727
O50   O     O_R   0.104548 0.824961 0.567600 -0.317601
N32   N     N_R   0.282390 0.146573 0.422412 0.253610
O51   O     O_R   0.211332 0.115004 0.441963 -0.419336
O52   O     O_R   0.213455 0.184693 0.428120 -0.319515

loop_
_geom_bond_atom_site_label_1
_geom_bond_atom_site_label_2
_geom_bond_distance
_ccdc_geom_bond_type
O17   V3    1.712391 S    
C127  H84   1.109819 S    
N12   H37   1.031851 S    
C88   C96   1.399839 A    
C50   C58   1.404902 A    
O18   V4    1.712393 S    
N27   O41   1.300814 A    
C50   N10   1.423246 S    
C38   C46   1.405075 A    
N29   O45   1.300814 A    
C71   C111  1.422137 A    
C37   C45   1.405184 A    
N24   H85   1.031906 S    
C72   C112  1.422564 A    
N8    C24   1.375130 A    
N14   H45   1.031851 S    
C125  H76   1.109821 S    
C11   N3    1.373810 A    
C102  C110  1.427972 A    
C68   N20   1.424374 S    
C56   C64   1.404904 A    
C119  H52   1.110223 S    
C33   C41   1.405185 A    
N20   H69   1.031904 S    
C116  H38   1.111701 S    
C118  H48   1.110217 S    
C60   H4    1.083615 S    
N12   C116  1.447047 S    
C68   C76   1.404995 A    
C120  H54   1.111695 S    
C102  N30   1.444143 S    
O12   C4    1.302333 A    
C98   C106  1.427981 A    
O8    V1    1.973653 S    
C55   N15   1.423255 S    
N6    C109  1.457388 S    
N7    C23   1.375072 A    
N26   O39   1.300342 A    
N24   C128  1.442458 S    
C71   C79   1.403813 A    
C41   C58   1.403298 A    
N21   H73   1.031929 S    
C120  H56   1.110223 S    
C99   N27   1.443826 S    
C8    C81   1.480377 S    
C72   C80   1.405002 A    
C93   C101  1.410450 A    
C124  H70   1.110189 S    
O12   V1    1.977629 S    
N9    C113  1.447052 S    
C56   N16   1.423244 S    
C74   C82   1.397942 A    
C117  H43   1.110731 S    
C46   C61   1.403208 A    
C69   C77   1.403815 A    
C127  H82   1.110386 S    
C34   C42   1.405078 A    
C100  N28   1.444208 S    
C69   N21   1.424052 S    
C45   C62   1.403299 A    
O1    V3    1.973656 S    
C3    C86   1.482358 S    
C17   C25   1.418106 A    
C4    C85   1.480373 S    
C22   O34   1.348445 S    
O3    C2    1.299352 A    
O2    V4    1.973652 S    
C122  H62   1.110190 S    
C97   C105  1.427641 A    
N11   C115  1.447048 S    
C16   N8    1.374002 A    
C54   N14   1.423246 S    
C113  H28   1.110224 S    
C54   C62   1.404900 A    
C27   C35   1.411873 A    
C53   C61   1.404675 A    
C26   C34   1.411869 A    
N18   H61   1.031905 S    
O11   V2    1.977627 S    
C59   H3    1.083623 S    
C10   N2    1.374004 A    
C114  H31   1.110684 S    
C23   C31   1.418102 A    
C121  H59   1.107934 S    
C115  H36   1.110222 S    
C103  N31   1.443841 S    
C121  H58   1.110386 S    
C16   C48   1.407723 A    
C75   C83   1.397091 A    
N19   H65   1.031931 S    
C18   O30   1.348446 S    
C51   N11   1.423254 S    
C20   C28   1.418411 A    
C126  H78   1.110190 S    
C104  N32   1.444175 S    
C114  H30   1.111689 S    
O9    V1    1.977631 S    
N29   O46   1.301637 A    
C31   C55   1.419964 A    
C100  C108  1.428004 A    
O15   C7    1.302506 A    
N27   O42   1.301640 A    
C101  C109  1.427637 A    
C115  H34   1.111694 S    
O16   C8    1.302332 A    
O7    V2    1.973653 S    
C95   C103  1.410452 A    
N23   H81   1.031930 S    
C96   C104  1.409151 A    
C30   C38   1.411869 A    
C99   C107  1.427633 A    
N11   H33   1.031855 S    
C21   C29   1.418104 A    
C19   O31   1.348466 S    
C11   O23   1.349266 S    
N4    C107  1.457388 S    
N1    C17   1.375071 A    
C80   C88   1.397937 A    
C73   H9    1.084033 S    
C94   C102  1.409137 A    
N5    C110  1.457151 S    
O8    C5    1.300149 A    
C19   C27   1.418098 A    
C57   H1    1.083620 S    
C123  H67   1.107936 S    
C70   C110  1.422565 A    
O17   V1    2.160053 S    
C7    C82   1.482364 S    
N32   O52   1.301731 A    
N3    C108  1.457149 S    
C14   N6    1.374004 A    
C69   C109  1.422143 A    
C35   C36   1.417613 A    
C76   C84   1.397930 A    
C5    C84   1.482369 S    
C40   C48   1.405077 A    
N1    C106  1.457149 S    
N22   H77   1.031907 S    
C77   C85   1.397087 A    
C9    N1    1.373811 A    
C26   C50   1.419976 A    
C119  H50   1.111685 S    
C67   C107  1.422140 A    
C58   H2    1.083613 S    
C93   H21   1.083438 S    
C67   N19   1.424052 S    
N23   C127  1.441800 S    
C104  C112  1.427990 A    
N25   O38   1.301630 A    
C65   C105  1.422140 A    
C22   C30   1.418407 A    
C91   H19   1.083437 S    
N25   O37   1.300814 A    
C101  N29   1.443830 S    
C92   C100  1.409164 A    
C64   H8    1.083614 S    
C39   C47   1.405187 A    
N10   H29   1.031851 S    
C6    C83   1.480372 S    
C55   C63   1.404679 A    
N21   C125  1.441799 S    
C15   C47   1.408027 A    
C98   N26   1.444155 S    
N31   O49   1.300813 A    
N10   C114  1.447046 S    
C72   N24   1.424373 S    
N15   H49   1.031857 S    
C27   C51   1.419962 A    
C91   C99   1.410447 A    
C78   H14   1.083867 S    
N17   C121  1.441799 S    
C84   C92   1.399843 A    
O10   V2    1.977629 S    
C52   C60   1.404905 A    
C124  H71   1.109267 S    
N16   H53   1.031847 S    
C82   C90   1.399836 A    
O20   V4    2.160056 S    
C114  H32   1.110220 S    
O11   C3    1.302504 A    
N6    C22   1.375131 A    
C24   C32   1.418409 A    
N13   H41   1.031858 S    
C18   C26   1.418409 A    
O13   C5    1.302511 A    
O3    V4    1.973650 S    
N18   C122  1.442461 S    
C36   C44   1.405076 A    
O9    C1    1.302507 A    
C48   C63   1.403204 A    
C24   O36   1.348446 S    
N31   O50   1.301629 A    
C70   C78   1.405008 A    
C29   C53   1.419963 A    
C43   C60   1.403297 A    
N2    C18   1.375132 A    
O4    C1    1.300147 A    
C52   N12   1.423244 S    
C9    C41   1.408028 A    
N30   O47   1.300335 A    
O6    V2    1.973655 S    
N20   C124  1.442454 S    
C31   C39   1.411873 A    
O18   V2    2.160053 S    
C66   N18   1.424374 S    
C65   N17   1.424052 S    
N26   O40   1.301745 A    
C128  H87   1.109268 S    
O19   V3    2.160058 S    
C120  H55   1.110691 S    
C121  H60   1.109821 S    
C25   C49   1.419963 A    
N30   O48   1.301741 A    
C12   N4    1.374003 A    
C1    C88   1.482368 S    
C118  H47   1.110683 S    
C28   C52   1.419977 A    
C13   N5    1.373813 A    
C2    C87   1.480376 S    
C74   H10   1.083867 S    
O5    V1    1.973651 S    
C127  H83   1.107937 S    
C126  H79   1.109272 S    
C83   C91   1.399339 A    
C30   C54   1.419978 A    
N28   O44   1.301708 A    
C15   N7    1.373813 A    
O16   V3    1.977629 S    
N17   H57   1.031931 S    
C123  H68   1.109819 S    
C29   C37   1.411875 A    
C66   C106  1.422566 A    
C13   C45   1.408028 A    
N32   O51   1.300329 A    
C65   C73   1.403817 A    
O1    C4    1.299352 A    
C32   C56   1.419973 A    
C86   C94   1.399836 A    
C67   C75   1.403814 A    
O2    C3    1.300147 A    
C49   N9    1.423251 S    
C103  C111  1.427638 A    
C73   C81   1.397086 A    
O13   V3    1.977623 S    
C11   C43   1.408031 A    
O14   V4    1.977625 S    
N7    C112  1.457152 S    
C125  H75   1.107935 S    
O15   V4    1.977631 S    
C90   H18   1.083492 S    
N8    C111  1.457388 S    
C17   O29   1.348462 S    
C123  H66   1.110385 S    
C12   O24   1.349300 S    
C15   O27   1.349266 S    
N4    C20   1.375130 A    
C42   C57   1.403208 A    
C76   H12   1.083869 S    
O7    C6    1.299351 A    
C14   C46   1.407723 A    
C77   H13   1.084035 S    
C61   H5    1.083623 S    
N15   C119  1.447049 S    
C122  H64   1.110231 S    
C63   H7    1.083621 S    
O14   C6    1.302334 A    
C124  H72   1.110221 S    
N14   C118  1.447047 S    
C16   O28   1.349302 S    
C118  H46   1.111690 S    
C81   C89   1.399337 A    
C39   C40   1.417611 A    
C80   H16   1.083866 S    
N16   C120  1.447046 S    
N22   C126  1.442460 S    
C49   C57   1.404677 A    
C92   H20   1.083482 S    
C13   O25   1.349264 S    
C62   H6    1.083612 S    
C90   C98   1.409145 A    
N3    C19   1.375073 A    
N9    H25   1.031861 S    
O5    C8    1.299353 A    
O19   V1    1.712389 S    
O10   C2    1.302336 A    
C79   C87   1.397088 A    
O6    C7    1.300147 A    
C51   C59   1.404675 A    
O20   V2    1.712389 S    
C79   H15   1.084034 S    
C10   O22   1.349303 S    
N19   C123  1.441802 S    
C95   H23   1.083435 S    
C70   N22   1.424375 S    
C10   C42   1.407721 A    
C97   N25   1.443839 S    
C96   H24   1.083490 S    
C119  H51   1.110714 S    
C37   C38   1.417612 A    
C126  H80   1.110229 S    
C113  H27   1.110732 S    
O4    V3    1.973649 S    
C75   H11   1.084034 S    
C44   C59   1.403205 A    
N5    C21   1.375071 A    
C117  H42   1.111704 S    
C94   H22   1.083494 S    
C23   O35   1.348465 S    
C113  H26   1.111705 S    
C68   C108  1.422568 A    
C35   C43   1.405188 A    
C53   N13   1.423252 S    
C28   C36   1.411869 A    
C14   O26   1.349302 S    
C33   C34   1.417612 A    
C71   N23   1.424053 S    
C128  H88   1.110228 S    
C89   C97   1.410451 A    
C47   C64   1.403299 A    
C115  H35   1.110717 S    
N13   C117  1.447050 S    
N28   O43   1.300332 A    
C20   O32   1.348444 S    
C21   O33   1.348466 S    
C116  H40   1.110222 S    
N2    C105  1.457389 S    
C9    O21   1.349267 S    
C122  H63   1.109269 S    
C117  H44   1.110225 S    
C128  H86   1.110189 S    
C116  H39   1.110691 S    
C85   C93   1.399337 A    
C12   C44   1.407723 A    
C66   C74   1.405007 A    
C89   H17   1.083436 S    
C125  H74   1.110384 S    
C32   C40   1.411868 A    
C87   C95   1.399338 A    
C25   C33   1.411873 A    
C78   C86   1.397942 A    
