data_mof_unit_43038.cif
_audit_creation_date              2012-12-10T19:11:04-0500
_audit_creation_method            fapswitch 2.2
_symmetry_space_group_name_H-M    P1
_symmetry_Int_Tables_number       1
_space_group_crystal_system       triclinic
_cell_length_a                    11.032133
_cell_length_b                    9.196952
_cell_length_c                    8.116195
_cell_angle_alpha                 88.558831
_cell_angle_beta                  88.555504
_cell_angle_gamma                 88.963533
_cell_volume                      822.837726699

loop_
_atom_site_label
_atom_site_type_symbol
_atom_type_description
_atom_site_fract_x
_atom_site_fract_y
_atom_site_fract_z
_atom_type_partial_charge
C1    C     C_R   0.499423 0.221205 0.501301 0.829753
C2    C     C_R   0.260378 0.503001 0.501302 0.868349
C3    C     C_R   0.739671 0.502364 0.497601 0.823334
C4    C     C_R   0.499691 0.778904 0.498860 0.719906
C5    C     C_1   0.498282 0.065608 0.501982 -0.144531
C6    C     C_3   0.073256 0.380326 0.618204 0.271277
C7    C     C_3   0.078043 0.482832 0.316076 0.239713
C8    C     C_3   0.928858 0.377099 0.607796 0.278347
C9    C     C_3   0.933796 0.496726 0.309914 0.227425
C10   C     C_1   0.498124 0.934824 0.498759 -0.215192
C11   C     C_3   0.067421 0.664895 0.554859 0.839480
C12   C     C_3   0.920523 0.666638 0.558634 0.819139
C13   C     C_3   0.120987 0.506635 0.499981 -0.338052
C14   C     C_3   0.878434 0.510765 0.491965 -0.360143
Cu1   Cu    Cu3+1 0.500000 0.500010 0.669080 0.969278
Cu2   Cu    Cu3+1 0.500000 0.500010 0.330920 0.980185
N1    N     N_1   0.500000 0.499970 0.076820 -0.084359
N2    N     N_1   0.500000 0.499970 0.923180 -0.091795
O1    O     O_R   0.500000 0.288400 0.642760 -0.611933
O2    O     O_R   0.500000 0.288400 0.357240 -0.561837
O3    O     O_R   0.317700 0.499990 0.642790 -0.556607
O4    O     O_R   0.317700 0.499990 0.357210 -0.556380
O5    O     O_R   0.682300 0.499990 0.642790 -0.548849
O6    O     O_R   0.682300 0.499990 0.357210 -0.601780
O7    O     O_R   0.500000 0.711620 0.642810 -0.583937
O8    O     O_R   0.500000 0.711620 0.357190 -0.602738
O9    O     O_3   0.106640 0.414710 0.781818 -0.538540
C15   C     C_3   0.185720 0.314073 0.865283 -0.187523
H1    H     H_    0.266844 0.279805 0.791707 0.174976
H2    H     H_    0.134345 0.216799 0.907520 0.175080
H3    H     H_    0.227932 0.367428 0.968155 0.175637
O10   O     O_3   0.138013 0.594890 0.223127 -0.557534
C16   C     C_3   0.117172 0.608652 0.055932 -0.004725
H4    H     H_    0.205209 0.605762 0.987207 0.187984
H5    H     H_    0.077952 0.717762 0.037646 0.205399
H6    H     H_    0.054111 0.527613 0.014548 0.217014
O11   O     O_3   0.879726 0.392785 0.772256 -0.517466
C17   C     C_3   0.794832 0.287026 0.830519 -0.153974
H7    H     H_    0.843589 0.187742 0.875717 0.154199
H8    H     H_    0.728203 0.255696 0.738335 0.151662
H9    H     H_    0.737605 0.335330 0.929462 0.189185
O12   O     O_3   0.907972 0.630629 0.227521 -0.548909
C18   C     C_3   0.835717 0.633247 0.088599 -0.274758
H10   H     H_    0.858978 0.548049 0.000723 0.250627
H11   H     H_    0.856921 0.739235 0.030310 0.191610
H12   H     H_    0.737817 0.633198 0.119736 0.184496
C19   C     C_1   0.131604 0.237379 0.571294 0.146964
N3    N     N_1   0.179770 0.128511 0.541878 -0.322661
C20   C     C_1   0.124448 0.339857 0.254529 0.192818
N4    N     N_1   0.159215 0.226984 0.212001 -0.286992
C21   C     C_1   0.894086 0.234433 0.538489 0.101378
N5    N     N_1   0.869351 0.122827 0.488447 -0.254753
C22   C     C_1   0.882335 0.367250 0.229564 0.219278
N6    N     N_1   0.843927 0.263434 0.174880 -0.297027
O13   O     O_3   0.109460 0.702718 0.712969 -0.599602
C23   C     C_3   0.082616 0.850801 0.752981 -0.281291
H13   H     H_    0.010968 0.857626 0.850016 0.168253
H14   H     H_    0.048640 0.920860 0.650651 0.241262
H15   H     H_    0.165206 0.900237 0.801049 0.167760
O14   O     O_3   0.104087 0.773444 0.432331 -0.528120
C24   C     C_3   0.226077 0.816373 0.429789 -0.155511
H16   H     H_    0.267732 0.813518 0.552190 0.154670
H17   H     H_    0.230791 0.927228 0.375787 0.202771
H18   H     H_    0.279957 0.754141 0.339686 0.203827
O15   O     O_3   0.876011 0.679202 0.725251 -0.586651
C25   C     C_3   0.775942 0.777682 0.743573 -0.263664
H19   H     H_    0.722111 0.756123 0.857073 0.150740
H20   H     H_    0.706819 0.759945 0.654578 0.181793
H21   H     H_    0.806207 0.892243 0.741688 0.162935
O16   O     O_3   0.894148 0.800173 0.463516 -0.542334
C26   C     C_3   0.783281 0.834813 0.386845 -0.148641
H22   H     H_    0.733628 0.920016 0.455125 0.138689
H23   H     H_    0.724319 0.744308 0.370963 0.149350
H24   H     H_    0.803488 0.885327 0.264052 0.202264

loop_
_geom_bond_atom_site_label_1
_geom_bond_atom_site_label_2
_ccdc_geom_bond_type
C2    O4    A    
C24   H18   S    
C25   H20   S    
C9    C14   S    
C20   N4    T    
O16   C26   S    
C23   H14   S    
Cu1   N2    S    
C11   C13   S    
C12   O15   S    
Cu1   O3    S    
C3    O5    A    
C6    O9    S    
C23   H15   S    
Cu2   O2    S    
C11   C12   S    
O10   C16   S    
C24   H16   S    
O13   C23   S    
Cu1   O5    S    
C4    O7    A    
C3    O6    A    
C11   O13   S    
C26   H22   S    
Cu2   O6    S    
C22   N6    T    
C6    C13   S    
Cu1   O1    S    
C18   H11   S    
C8    C21   S    
C9    O12   S    
O11   C17   S    
C3    C14   S    
C2    O3    A    
C1    C5    S    
C15   H2    S    
C15   H1    S    
C17   H8    S    
C12   C14   S    
C16   H4    S    
C11   O14   S    
C15   H3    S    
C18   H10   S    
Cu2   O8    S    
C17   H7    S    
C18   H12   S    
C8    C14   S    
C4    O8    A    
Cu1   O7    S    
C25   H21   S    
C9    C22   S    
C6    C19   S    
C5    C10   T    
Cu1   Cu2   S    
C19   N3    T    
C7    C13   S    
C16   H6    S    
C25   H19   S    
C23   H13   S    
C7    C20   S    
C17   H9    S    
N1    N2    T    
O15   C25   S    
C8    O11   S    
C26   H23   S    
O9    C15   S    
C7    C9    S    
C2    C13   S    
C12   O16   S    
Cu2   N1    S    
C1    O2    A    
C6    C8    S    
C7    O10   S    
C26   H24   S    
C16   H5    S    
C1    O1    A    
C4    C10   S    
C24   H17   S    
C21   N5    T    
O12   C18   S    
Cu2   O4    S    
O14   C24   S    
