data_mof_unit_26989.cif
_audit_creation_date              2012-12-10T18:09:33-0500
_audit_creation_method            fapswitch 2.2
_symmetry_space_group_name_H-M    P1
_symmetry_Int_Tables_number       1
_space_group_crystal_system       triclinic
_cell_length_a                    15.153742
_cell_length_b                    15.181027
_cell_length_c                    9.41284
_cell_angle_alpha                 89.991947
_cell_angle_beta                  90.005768
_cell_angle_gamma                 90.00041
_cell_volume                      2165.41784611

loop_
_atom_site_label
_atom_site_type_symbol
_atom_type_description
_atom_site_fract_x
_atom_site_fract_y
_atom_site_fract_z
_atom_type_partial_charge
C1    C     C_R   0.120280 0.379948 0.499792 0.757498
C2    C     C_R   0.120249 0.620085 0.500210 0.757635
C3    C     C_R   0.620272 0.879939 0.499792 0.757529
C4    C     C_R   0.620229 0.120104 0.500211 0.757608
C5    C     C_3   0.092244 0.503606 0.083873 -0.189332
C6    C     C_3   0.092246 0.503509 0.916162 -0.189366
C7    C     C_3   0.592282 0.002762 0.083872 -0.189353
C8    C     C_3   0.592284 0.002661 0.916162 -0.189356
C9    C     C_R   0.879980 0.379856 0.500215 0.759335
C10   C     C_R   0.880023 0.620186 0.499777 0.759340
C11   C     C_R   0.379998 0.879837 0.500215 0.759333
C12   C     C_R   0.380033 0.120196 0.499777 0.759335
C13   C     C_3   0.785633 0.285796 0.655767 -0.379984
C14   C     C_3   0.845139 0.227139 0.424314 -0.384478
C15   C     C_3   0.844898 0.772613 0.576965 -0.384282
C16   C     C_3   0.786352 0.714942 0.344216 -0.379870
C17   C     C_3   0.285916 0.785515 0.655766 -0.379923
C18   C     C_3   0.345048 0.727230 0.423829 -0.384434
C19   C     C_3   0.344852 0.272568 0.577209 -0.384309
C20   C     C_3   0.286498 0.215087 0.344218 -0.379951
C21   C     C_3   0.214759 0.713962 0.655765 -0.377453
C22   C     C_3   0.273027 0.655313 0.423584 -0.384209
C23   C     C_3   0.272833 0.344482 0.577460 -0.384110
C24   C     C_3   0.215332 0.286633 0.344227 -0.376655
C25   C     C_3   0.714474 0.214247 0.655769 -0.377289
C26   C     C_3   0.773117 0.155222 0.424068 -0.384206
C27   C     C_3   0.772882 0.844530 0.577206 -0.384142
C28   C     C_3   0.715185 0.786485 0.344226 -0.376733
C29   C     C_3   0.727195 0.344637 0.423748 -0.384154
C30   C     C_3   0.726953 0.655111 0.574939 -0.384169
C31   C     C_3   0.227106 0.844725 0.424239 -0.384203
C32   C     C_3   0.226910 0.155068 0.574691 -0.384159
C33   C     C_3   0.811025 0.310882 0.500972 0.178460
C34   C     C_3   0.811098 0.689189 0.499008 0.178352
C35   C     C_3   0.311056 0.810850 0.500972 0.178470
C36   C     C_3   0.311116 0.189206 0.499007 0.178357
C37   C     C_3   0.189248 0.689015 0.500971 0.178101
C38   C     C_3   0.189302 0.311042 0.499025 0.177879
C39   C     C_3   0.689214 0.189047 0.500972 0.178065
C40   C     C_3   0.689286 0.811026 0.499026 0.177882
C41   C     C_3   0.155088 0.772822 0.424505 -0.384535
C42   C     C_3   0.154889 0.226969 0.574430 -0.384577
C43   C     C_3   0.655174 0.272736 0.424019 -0.384533
C44   C     C_3   0.654935 0.727016 0.574689 -0.384546
C45   C     C_3   0.952800 0.576740 0.083625 -0.186883
C46   C     C_3   0.952904 0.576813 0.916313 -0.185885
C47   C     C_3   0.959192 0.419553 0.083695 -0.186613
C48   C     C_3   0.959075 0.419623 0.916346 -0.187591
C49   C     C_3   0.453527 0.077204 0.083625 -0.186959
C50   C     C_3   0.453635 0.077279 0.916312 -0.185992
C51   C     C_3   0.458428 0.919951 0.083691 -0.186553
C52   C     C_3   0.458311 0.920022 0.916349 -0.187499
Cu1   Cu    Cu3+1 0.000100 0.500000 0.642410 0.882019
Cu2   Cu    Cu3+1 0.000100 0.500000 0.357590 0.881988
Cu3   Cu    Cu3+1 0.500100 1.000000 0.642410 0.882016
Cu4   Cu    Cu3+1 0.500100 0.000000 0.357590 0.881990
H1    H     H_    0.844651 0.261303 0.714228 0.154067
H2    H     H_    0.905296 0.201879 0.478610 0.138012
H3    H     H_    0.905290 0.798101 0.523632 0.137930
H4    H     H_    0.845620 0.739672 0.286703 0.153988
H5    H     H_    0.345031 0.760941 0.713873 0.154017
H6    H     H_    0.405294 0.701885 0.477766 0.137980
H7    H     H_    0.405285 0.298102 0.524051 0.137914
H8    H     H_    0.345814 0.239859 0.286888 0.153955
H9    H     H_    0.240005 0.655001 0.713242 0.152790
H10   H     H_    0.298445 0.595031 0.477066 0.137604
H11   H     H_    0.298430 0.404958 0.524759 0.137489
H12   H     H_    0.240741 0.345813 0.287486 0.152854
H13   H     H_    0.739629 0.155380 0.713613 0.152875
H14   H     H_    0.798451 0.095026 0.477909 0.137618
H15   H     H_    0.798439 0.904957 0.524308 0.137526
H16   H     H_    0.740551 0.845615 0.287299 0.152856
H17   H     H_    0.155796 0.738384 0.714376 0.155985
H18   H     H_    0.256969 0.637188 0.311959 0.155253
H19   H     H_    0.256395 0.362204 0.689121 0.155656
H20   H     H_    0.156563 0.262379 0.284866 0.156041
H21   H     H_    0.655408 0.238766 0.714021 0.155888
H22   H     H_    0.757228 0.136919 0.312450 0.155222
H23   H     H_    0.756536 0.862354 0.688860 0.155587
H24   H     H_    0.656365 0.762184 0.285049 0.156014
H25   H     H_    0.701810 0.404898 0.477329 0.138145
H26   H     H_    0.743196 0.362814 0.312108 0.155990
H27   H     H_    0.742504 0.636443 0.686540 0.155683
H28   H     H_    0.701781 0.595089 0.520388 0.138130
H29   H     H_    0.201806 0.904895 0.478183 0.138176
H30   H     H_    0.242925 0.863090 0.312615 0.155913
H31   H     H_    0.242371 0.136315 0.686286 0.155684
H32   H     H_    0.201786 0.095088 0.519967 0.138152
H33   H     H_    0.094972 0.798050 0.478932 0.137864
H34   H     H_    0.136357 0.757057 0.313023 0.157383
H35   H     H_    0.135776 0.242363 0.685889 0.157229
H36   H     H_    0.094956 0.201922 0.519211 0.137790
H37   H     H_    0.594970 0.298052 0.478096 0.137824
H38   H     H_    0.636622 0.256791 0.312521 0.157447
H39   H     H_    0.635925 0.742501 0.686160 0.157272
H40   H     H_    0.594951 0.701926 0.519667 0.137770
H41   H     H_    0.982419 0.639079 0.123513 0.131007
H42   H     H_    0.982754 0.639108 0.876658 0.130670
H43   H     H_    0.993816 0.359817 0.123519 0.130630
H44   H     H_    0.993450 0.359819 0.876282 0.131018
H45   H     H_    0.483726 0.139260 0.123554 0.131004
H46   H     H_    0.484074 0.139287 0.876627 0.130658
H47   H     H_    0.492504 0.859893 0.123509 0.130628
H48   H     H_    0.492136 0.859898 0.876290 0.131007
H49   H     H_    0.883169 0.575794 0.120840 0.133992
H50   H     H_    0.883314 0.576126 0.878805 0.134280
H51   H     H_    0.889728 0.414716 0.120896 0.134900
H52   H     H_    0.889548 0.415061 0.879431 0.134639
H53   H     H_    0.383880 0.076898 0.120799 0.134073
H54   H     H_    0.384030 0.077241 0.878835 0.134383
H55   H     H_    0.388921 0.915778 0.120927 0.134845
H56   H     H_    0.388740 0.916126 0.879398 0.134561
H57   H     H_    0.126702 0.563729 0.122067 0.134250
H58   H     H_    0.126781 0.563541 0.877854 0.133943
H59   H     H_    0.131470 0.446618 0.122696 0.133262
H60   H     H_    0.131393 0.446426 0.877491 0.133525
H61   H     H_    0.627306 0.062552 0.122128 0.134184
H62   H     H_    0.627390 0.062356 0.877783 0.133847
H63   H     H_    0.630962 0.945390 0.122647 0.133349
H64   H     H_    0.630883 0.945188 0.877544 0.133620
N1    N     N_3   0.001260 0.500000 0.143650 -0.106289
N2    N     N_3   0.001260 0.500000 0.856350 -0.106296
N3    N     N_3   0.501260 1.000000 0.143650 -0.106278
N4    N     N_3   0.501260 1.000000 0.856350 -0.106277
O1    O     O_R   0.091250 0.408820 0.620260 -0.593936
O2    O     O_R   0.091250 0.408820 0.379740 -0.595093
O3    O     O_R   0.091250 0.591180 0.620260 -0.595343
O4    O     O_R   0.091250 0.591180 0.379740 -0.594317
O5    O     O_R   0.591250 0.908820 0.620260 -0.593979
O6    O     O_R   0.591250 0.908820 0.379740 -0.595121
O7    O     O_R   0.591250 0.091180 0.620260 -0.595315
O8    O     O_R   0.591250 0.091180 0.379740 -0.594285
O9    O     O_R   0.908940 0.408800 0.620260 -0.596953
O10   O     O_R   0.908940 0.408800 0.379740 -0.596236
O11   O     O_R   0.908940 0.591200 0.620260 -0.596332
O12   O     O_R   0.908940 0.591200 0.379740 -0.597036
O13   O     O_R   0.408940 0.908800 0.620260 -0.596965
O14   O     O_R   0.408940 0.908800 0.379740 -0.596242
O15   O     O_R   0.408940 0.091200 0.620260 -0.596330
O16   O     O_R   0.408940 0.091200 0.379740 -0.597027
H65   H     H_    0.760435 0.344717 0.713418 0.153979
H66   H     H_    0.863782 0.242996 0.312824 0.155619
H67   H     H_    0.863062 0.756282 0.688496 0.155839
H68   H     H_    0.761382 0.656284 0.285623 0.153921
H69   H     H_    0.260804 0.844335 0.713770 0.154010
H70   H     H_    0.363512 0.743257 0.312328 0.155675
H71   H     H_    0.362931 0.256149 0.688742 0.155865
H72   H     H_    0.261573 0.156481 0.285447 0.153985

loop_
_geom_bond_atom_site_label_1
_geom_bond_atom_site_label_2
_ccdc_geom_bond_type
C16   C28   S    
C41   H33   S    
Cu3   Cu4   S    
C14   H66   S    
C31   H29   S    
C29   C33   S    
C3    O6    A    
C51   N3    S    
C7    H61   S    
C19   C23   S    
Cu1   O11   S    
C52   H56   S    
C13   C25   S    
C14   C33   S    
C8    H62   S    
C7    C8    S    
C4    O8    A    
C45   C46   S    
C29   H25   S    
Cu2   O2    S    
C26   H22   S    
Cu3   O15   S    
C37   C41   S    
C25   H21   S    
C32   C36   S    
C16   H68   S    
C11   O14   A    
C1    O1    A    
C38   C42   S    
C27   H23   S    
C19   C36   S    
C49   H45   S    
C5    C6    S    
Cu4   O16   S    
C26   C39   S    
C47   N1    S    
C13   H1    S    
C28   C40   S    
C51   H47   S    
Cu2   O10   S    
C21   H17   S    
C50   H54   S    
C43   H38   S    
C47   H43   S    
C42   H35   S    
C16   H4    S    
C23   H11   S    
C30   H27   S    
C6    H58   S    
Cu1   O3    S    
C17   H5    S    
C21   H9    S    
C22   H10   S    
C20   C24   S    
C19   H7    S    
Cu3   O5    S    
C24   C38   S    
C12   O16   A    
C22   C37   S    
C13   H65   S    
C12   C36   S    
C18   C35   S    
C15   C34   S    
C16   C34   S    
C2    O3    A    
C41   H34   S    
C46   H42   S    
C31   H30   S    
C18   C22   S    
C5    H59   S    
C9    C33   S    
C30   C44   S    
C28   H16   S    
C14   H2    S    
C45   H49   S    
C4    O7    A    
C48   H44   S    
C30   C34   S    
C51   C52   S    
Cu4   N3    S    
C7    H63   S    
C22   H18   S    
Cu1   O9    S    
C1    O2    A    
C23   H19   S    
C8    N4    S    
C39   C43   S    
Cu4   O6    S    
C45   N1    S    
Cu1   Cu2   S    
C32   H31   S    
Cu2   O4    S    
C19   H71   S    
C20   H8    S    
C17   H69   S    
C13   C33   S    
C44   H40   S    
Cu4   O14   S    
C15   C27   S    
C47   C48   S    
C4    C39   S    
C27   C40   S    
C10   O12   A    
Cu2   O12   S    
C20   H72   S    
C12   O15   A    
C50   N4    S    
C10   C34   S    
C14   C26   S    
C6    H60   S    
Cu4   O8    S    
Cu1   O1    S    
C1    C38   S    
C15   H67   S    
C29   C43   S    
Cu2   N1    S    
C3    C40   S    
C50   H46   S    
Cu3   O7    S    
C26   H14   S    
C31   C35   S    
C25   H13   S    
C6    N2    S    
C27   H15   S    
C8    H64   S    
C49   H53   S    
C9    O9    A    
Cu3   N4    S    
C52   H48   S    
C5    N1    S    
C51   H55   S    
C31   C41   S    
C5    H57   S    
C3    O5    A    
C15   H3    S    
C24   H20   S    
C7    N3    S    
C18   H70   S    
C23   C38   S    
C47   H51   S    
Cu3   O13   S    
Cu1   N2    S    
C11   C35   S    
C11   O13   A    
C10   O11   A    
C44   H39   S    
C45   H41   S    
C9    O10   A    
C48   N2    S    
C52   N4    S    
C2    C37   S    
C48   H52   S    
C46   H50   S    
C43   H37   S    
C42   H36   S    
C30   H28   S    
C28   H24   S    
C17   C21   S    
C24   H12   S    
C20   C36   S    
C40   C44   S    
C21   C37   S    
C29   H26   S    
C49   N3    S    
C49   C50   S    
C32   C42   S    
C46   N2    S    
C18   H6    S    
C17   C35   S    
C25   C39   S    
C2    O4    A    
C32   H32   S    
