data_mof_unit_57298.cif
_audit_creation_date              2012-12-10T17:34:59-0500
_audit_creation_method            fapswitch 2.2
_symmetry_space_group_name_H-M    P1
_symmetry_Int_Tables_number       1
_space_group_crystal_system       triclinic
_cell_length_a                    12.339758
_cell_length_b                    13.170339
_cell_length_c                    13.866993
_cell_angle_alpha                 105.133723
_cell_angle_beta                  73.946074
_cell_angle_gamma                 116.63165
_cell_volume                      1911.16762403

loop_
_atom_site_label
_atom_site_type_symbol
_atom_type_description
_atom_site_fract_x
_atom_site_fract_y
_atom_site_fract_z
_atom_type_partial_charge
C1    C     C_R   0.144325 0.713762 0.509849 0.769984
C2    C     C_1   0.975662 0.507144 0.791591 -0.173225
C3    C     C_R   0.731376 0.979337 0.349053 -0.278229
C4    C     C_R   0.775813 0.164701 0.457660 -0.148945
C5    C     C_R   0.180126 0.915268 0.585325 -0.183510
C6    C     C_R   0.258558 0.029741 0.608480 -0.143150
C7    C     C_R   0.384335 0.066907 0.569519 -0.184002
C8    C     C_R   0.434099 0.990215 0.502650 0.100242
C9    C     C_R   0.351531 0.876567 0.470453 0.079594
C10   C     C_R   0.562801 0.023130 0.465140 0.078155
C11   C     C_R   0.605285 0.946852 0.388933 0.090334
C12   C     C_R   0.984383 0.504258 0.686351 0.809803
C13   C     C_R   0.521335 0.840190 0.350815 -0.210597
C14   C     C_R   0.396351 0.806016 0.389950 -0.193835
C15   C     C_R   0.650841 0.129375 0.501582 -0.333989
C16   C     C_R   0.816679 0.089703 0.379842 0.503582
C17   C     C_R   0.225723 0.837077 0.518671 -0.101214
C18   C     C_R   0.640845 0.676170 0.660044 -0.298941
C19   C     C_R   0.251939 0.351598 0.364036 0.100550
C20   C     C_R   0.350418 0.318711 0.334369 -0.252231
C21   C     C_R   0.449445 0.374519 0.385621 -0.193103
C22   C     C_R   0.451080 0.464511 0.467735 -0.005276
C23   C     C_R   0.856394 0.286192 0.483146 0.824305
C24   C     C_R   0.347437 0.494777 0.495721 0.284256
C25   C     C_R   0.551013 0.525342 0.523104 -0.036356
C26   C     C_R   0.545057 0.614881 0.604612 0.174244
C27   C     C_R   0.443399 0.642673 0.630802 -0.278363
C28   C     C_R   0.346697 0.583671 0.578004 -0.175340
C29   C     C_R   0.657412 0.501733 0.501638 0.025652
C30   C     C_R   0.742483 0.648681 0.635131 0.077848
C31   C     C_R   0.015583 0.495648 0.313638 0.802131
C32   C     C_1   0.024283 0.492499 0.208362 -0.183186
C33   C     C_2   0.039225 0.486925 0.014135 -0.163971
C34   C     C_2   0.960701 0.512296 0.985744 -0.160648
C35   C     C_1   0.968280 0.509657 0.880249 0.000786
C36   C     C_1   0.031686 0.489743 0.119657 -0.001283
Cu1   Cu    Cu3+1 0.899780 0.525060 0.522890 0.936410
Cu2   Cu    Cu3+1 0.100220 0.474940 0.477110 0.942004
H1    H     H_    0.890490 0.535196 0.041482 0.156340
H2    H     H_    0.335388 0.724847 0.353868 0.170921
H3    H     H_    0.816791 0.695685 0.677604 0.120564
H4    H     H_    0.438121 0.710782 0.693365 0.152753
H5    H     H_    0.637009 0.744838 0.722377 0.136481
H6    H     H_    0.669772 0.435258 0.441119 0.123609
H7    H     H_    0.175852 0.308231 0.323714 0.159598
H8    H     H_    0.523199 0.345557 0.359366 0.137119
H9    H     H_    0.350042 0.249801 0.271336 0.149068
H10   H     H_    0.272800 0.610804 0.604952 0.205035
H11   H     H_    0.109461 0.464047 0.958414 0.155600
H12   H     H_    0.552346 0.782917 0.289954 0.144419
H13   H     H_    0.763496 0.920878 0.290695 0.150640
H14   H     H_    0.624630 0.187808 0.563643 0.169176
H15   H     H_    0.083978 0.887246 0.621932 0.149646
H16   H     H_    0.439443 0.156847 0.591163 0.132039
H17   H     H_    0.222188 0.089539 0.659488 0.143502
N1    N     N_R   0.748810 0.563010 0.557590 -0.179440
N2    N     N_R   0.250540 0.437620 0.443020 -0.211443
O1    O     O_R   0.025040 0.682470 0.528790 -0.577527
O2    O     O_R   0.194310 0.640150 0.490130 -0.604919
O3    O     O_R   0.903380 0.524130 0.659910 -0.575464
O4    O     O_R   0.072660 0.481800 0.621240 -0.591905
O5    O     O_R   0.805690 0.359850 0.509870 -0.595213
O6    O     O_R   0.974960 0.317530 0.471210 -0.535916
O7    O     O_R   0.927340 0.518200 0.378760 -0.572993
O8    O     O_R   0.096620 0.475870 0.340090 -0.589010
O9    O     O_3   0.939457 0.123914 0.333476 -0.571201
C37   C     C_3   0.952873 0.150986 0.237653 -0.338701
H18   H     H_    0.051334 0.179137 0.200448 0.177737
H19   H     H_    0.925457 0.223058 0.245640 0.150515
H20   H     H_    0.899500 0.074729 0.186560 0.158486

loop_
_geom_bond_atom_site_label_1
_geom_bond_atom_site_label_2
_ccdc_geom_bond_type
C2    C35   T    
C4    C16   A    
C9    C14   A    
C19   H7    S    
C30   H3    S    
C33   C36   S    
C6    C7    A    
C18   C30   A    
C29   N1    A    
Cu2   N2    S    
C19   C20   A    
C1    C17   S    
Cu1   O1    S    
C18   C26   A    
Cu2   O8    S    
C6    H17   S    
Cu2   O4    S    
C2    C12   S    
C21   C22   A    
C37   H20   S    
C4    C15   A    
C23   O6    A    
O9    C37   S    
C5    H15   S    
C7    C8    A    
C15   H14   S    
C19   N2    A    
C12   O4    A    
C11   C13   A    
C27   H4    S    
C26   C27   A    
Cu1   Cu2   S    
C16   O9    S    
C1    O1    A    
C37   H18   S    
C32   C36   T    
C9    C17   A    
C13   H12   S    
C33   C34   D    
C30   N1    A    
C10   C15   A    
C1    O2    A    
C29   H6    S    
C25   C29   A    
C5    C6    A    
C22   C24   A    
C31   O8    A    
C20   H9    S    
C3    C11   A    
C10   C11   A    
C14   H2    S    
C34   H1    S    
C21   H8    S    
C24   C28   A    
Cu1   O7    S    
C5    C17   A    
C20   C21   A    
C8    C10   A    
C34   C35   S    
C24   N2    A    
C18   H5    S    
C27   C28   A    
Cu2   O6    S    
C4    C23   S    
Cu1   O5    S    
C28   H10   S    
C3    H13   S    
C23   O5    A    
C7    H16   S    
C37   H19   S    
C25   C26   A    
C13   C14   A    
Cu1   N1    S    
C33   H11   S    
C31   O7    A    
C31   C32   S    
C3    C16   A    
Cu2   O2    S    
C8    C9    A    
Cu1   O3    S    
C22   C25   A    
C12   O3    A    
