data_mof_unit_16604.cif
_audit_creation_date              2012-12-10T20:42:39-0500
_audit_creation_method            fapswitch 2.2
_symmetry_space_group_name_H-M    P1
_symmetry_Int_Tables_number       1
_space_group_crystal_system       triclinic
_cell_length_a                    8.911458
_cell_length_b                    10.673204
_cell_length_c                    9.87341
_cell_angle_alpha                 90.204578
_cell_angle_beta                  90.024193
_cell_angle_gamma                 90.082599
_cell_volume                      939.090586769

loop_
_atom_site_label
_atom_site_type_symbol
_atom_type_description
_atom_site_fract_x
_atom_site_fract_y
_atom_site_fract_z
_atom_type_partial_charge
C1    C     C_R   0.508228 0.260052 0.499609 0.914517
C2    C     C_R   0.425566 0.408647 0.928345 0.220689
C3    C     C_3   0.261342 0.382061 0.922856 -0.518741
C4    C     C_R   0.218725 0.499841 0.499967 0.930230
C5    C     C_3   0.261800 0.381363 0.076618 -0.496735
C6    C     C_R   0.504619 0.739930 0.500324 0.895589
C7    C     C_R   0.781296 0.500003 0.500034 0.933484
C8    C     C_1   0.065410 0.499798 0.499971 -0.199986
C9    C     C_1   0.934622 0.499861 0.500031 -0.180380
C10   C     C_R   0.511116 0.064413 0.621388 0.102516
C11   C     C_R   0.534988 0.128503 0.500591 -0.210622
C12   C     C_R   0.583826 0.932546 0.387427 -0.265788
C13   C     C_R   0.588333 0.062465 0.385742 0.379807
C14   C     C_R   0.529558 0.871023 0.502514 -0.173966
C15   C     C_R   0.508954 0.936928 0.622485 0.132292
C16   C     C_3   0.383487 0.931621 0.722655 -0.452161
C17   C     C_3   0.385895 0.073674 0.721786 -0.458728
C18   C     C_R   0.425762 0.408524 0.070830 0.292915
C19   C     C_R   0.584035 0.583548 0.072304 -0.114588
C20   C     C_R   0.584012 0.583584 0.928375 -0.123733
Cl1   Cl    Cl    0.654166 0.134776 0.236579 -0.626262
H1    H     H_    0.236509 0.288788 0.877845 0.207573
H2    H     H_    0.649481 0.652701 0.874421 0.153283
H3    H     H_    0.195849 0.460878 0.879374 0.227689
H4    H     H_    0.196112 0.459494 0.121825 0.222420
H5    H     H_    0.238321 0.287473 0.120190 0.222626
H6    H     H_    0.615211 0.880691 0.297224 0.194251
H7    H     H_    0.278929 0.890892 0.679326 0.199763
H8    H     H_    0.419661 0.890967 0.820896 0.213144
H9    H     H_    0.282553 0.115834 0.678279 0.196473
H10   H     H_    0.423717 0.114943 0.819569 0.220977
H11   H     H_    0.649567 0.652618 0.126849 0.149402
N1    N     N_R   0.499010 0.499140 0.142800 -0.109810
N2    N     N_R   0.499010 0.499180 0.857150 -0.110967
O1    O     O_R   0.500020 0.316790 0.614690 -0.620930
O2    O     O_R   0.500000 0.316760 0.385350 -0.563953
O3    O     O_R   0.285350 0.500020 0.614650 -0.621332
O4    O     O_R   0.285340 0.499980 0.385310 -0.620215
O5    O     O_R   0.500000 0.683240 0.614650 -0.622215
O6    O     O_R   0.499980 0.683210 0.385310 -0.629508
O7    O     O_R   0.714660 0.500020 0.614690 -0.619501
O8    O     O_R   0.714650 0.499980 0.385350 -0.601723
Zn1   Zn    Zn3+2 0.500010 0.500020 0.653130 0.949549
Zn2   Zn    Zn3+2 0.499990 0.499980 0.346870 0.982655

loop_
_geom_bond_atom_site_label_1
_geom_bond_atom_site_label_2
_ccdc_geom_bond_type
O3    Zn1   S    
C16   H7    S    
C2    C18   A    
O1    Zn1   S    
C19   C20   A    
C1    C11   S    
C20   H2    S    
C4    C8    S    
C20   N2    A    
C2    N2    A    
C2    C3    S    
C13   Cl1   S    
C4    O3    A    
O4    Zn2   S    
C17   H9    S    
O7    Zn1   S    
C3    H3    S    
O8    Zn2   S    
C5    H4    S    
C19   H11   S    
C12   C14   A    
C10   C15   A    
C7    O7    A    
C17   H10   S    
C18   N1    A    
C6    O6    A    
O2    Zn2   S    
C11   C13   A    
C6    C14   S    
C10   C11   A    
C10   C17   S    
C15   C16   S    
O6    Zn2   S    
C12   C13   A    
C1    O1    A    
C19   N1    A    
C7    O8    A    
C7    C9    S    
C6    O5    A    
C8    C9    T    
C3    H1    S    
O5    Zn1   S    
C5    C18   S    
C12   H6    S    
C16   H8    S    
C14   C15   A    
N1    Zn2   S    
N2    Zn1   S    
C5    H5    S    
C1    O2    A    
C4    O4    A    
C16   C17   S    
C3    C5    S    
