data_mof_unit_36745.cif
_audit_creation_date              2012-10-26T19:52:47-0400
_audit_creation_method            fapswitch 2.2
_symmetry_space_group_name_H-M    P1
_symmetry_Int_Tables_number       1
_space_group_crystal_system       triclinic
_cell_length_a                    14.989779
_cell_length_b                    10.817685
_cell_length_c                    9.586262
_cell_angle_alpha                 89.502454
_cell_angle_beta                  88.601301
_cell_angle_gamma                 89.798061
_cell_volume                      1553.92722735

loop_
_atom_site_label
_atom_site_type_symbol
_atom_type_description
_atom_site_fract_x
_atom_site_fract_y
_atom_site_fract_z
_atom_type_partial_charge
C1    C     C_R   0.500492 0.262377 0.500293 0.551308
C2    C     C_R   0.188845 0.411126 0.423791 -0.133893
C3    C     C_R   0.232596 0.500628 0.500880 0.004418
C4    C     C_R   0.329011 0.500746 0.500964 0.551030
C5    C     C_R   0.184689 0.593827 0.569620 -0.143686
C6    C     C_R   0.524688 0.061857 0.620379 0.026851
C7    C     C_R   0.508111 0.129049 0.498733 0.025362
C8    C     C_R   0.506177 0.065320 0.371393 -0.183868
C9    C     C_R   0.506853 0.936597 0.370728 -0.165511
C10   C     C_R   0.510770 0.870395 0.497257 0.004314
C11   C     C_R   0.527293 0.934991 0.619320 -0.041380
C12   C     C_R   0.904818 0.591861 0.567574 -0.000178
C13   C     C_3   0.487554 0.924689 0.763297 -0.214341
C14   C     C_3   0.484244 0.065581 0.764533 0.162052
C15   C     C_R   0.578051 0.505343 0.069919 0.172102
C16   C     C_R   0.501872 0.737450 0.499398 0.534594
C17   C     C_R   0.424574 0.478081 0.079094 -0.024724
C18   C     C_R   0.422447 0.484112 0.930677 0.351774
C19   C     C_R   0.578095 0.504584 0.923285 0.069022
C20   C     C_3   0.647882 0.602216 0.912808 -0.244789
C21   C     C_3   0.648984 0.601708 0.071902 0.146034
C22   C     C_R   0.670963 0.500193 0.498654 0.541840
C23   C     C_R   0.958618 0.319327 0.344253 -0.131653
C24   C     C_R   0.812068 0.589745 0.567889 -0.199255
C25   C     C_R   0.767521 0.497106 0.496889 -0.015014
C26   C     C_R   0.815078 0.402257 0.427259 0.247502
C27   C     C_R   0.908688 0.407254 0.420375 0.022683
C28   C     C_R   0.953425 0.500576 0.493542 0.014024
C29   C     C_3   0.370666 0.161567 0.894257 0.038340
C30   C     C_3   0.351710 0.061428 0.005391 -0.298836
C31   C     C_3   0.311005 0.117442 0.138180 -0.487660
C32   C     C_3   0.270704 0.531799 0.920938 -0.003782
C33   C     C_3   0.197155 0.445651 0.976958 -0.277276
C34   C     C_R   0.051512 0.320949 0.344584 -0.162529
C35   C     C_3   0.116709 0.518431 0.032736 -0.471851
C36   C     C_3   0.736634 0.220755 0.461627 0.010453
C37   C     C_3   0.809839 0.142376 0.529268 -0.284509
C38   C     C_3   0.769437 0.038868 0.619612 -0.488966
C39   C     C_3   0.686939 0.800066 0.136962 -0.004965
C40   C     C_3   0.735746 0.787242 0.275081 -0.251099
C41   C     C_3   0.811876 0.879712 0.282336 -0.495128
C42   C     C_R   0.096024 0.410871 0.420149 0.012131
C43   C     C_R   0.047027 0.501968 0.493918 0.060992
C44   C     C_R   0.091702 0.594331 0.568344 0.014714
C45   C     C_R   0.042716 0.685340 0.639996 -0.140004
C46   C     C_R   0.949726 0.684138 0.639571 -0.130422
Cu1   Cu    Cu3+1 0.500000 0.499980 0.640670 0.986190
Cu2   Cu    Cu3+1 0.500000 0.500020 0.359330 0.975452
H1    H     H_    0.774107 0.661016 0.622161 0.108402
H2    H     H_    0.926151 0.248527 0.284793 0.152009
H3    H     H_    0.088567 0.251510 0.286231 0.106025
H4    H     H_    0.227259 0.341315 0.367871 0.108572
H5    H     H_    0.219981 0.667040 0.621251 0.094226
H6    H     H_    0.076310 0.756820 0.697071 0.102075
H7    H     H_    0.912893 0.754957 0.696066 0.099429
H8    H     H_    0.499752 0.114054 0.273017 0.134230
H9    H     H_    0.308511 0.215637 0.879119 0.188525
H10   H     H_    0.421558 0.227630 0.931041 0.136190
H11   H     H_    0.304799 0.992204 0.963983 0.170678
H12   H     H_    0.499587 0.889766 0.272291 0.166115
H13   H     H_    0.414829 0.013478 0.031918 0.146343
H14   H     H_    0.354759 0.191190 0.178100 0.152908
H15   H     H_    0.303208 0.044454 0.219686 0.160910
H16   H     H_    0.244263 0.157352 0.117087 0.134302
H17   H     H_    0.243422 0.587918 0.835220 0.155469
H18   H     H_    0.288919 0.600124 0.001882 0.100471
H19   H     H_    0.175462 0.384455 0.891688 0.175097
H20   H     H_    0.223289 0.386653 0.062171 0.142229
H21   H     H_    0.136075 0.576492 0.122048 0.156939
H22   H     H_    0.063835 0.453316 0.069145 0.158219
H23   H     H_    0.420836 0.879855 0.765501 0.164732
H24   H     H_    0.089298 0.578395 0.949299 0.149000
H25   H     H_    0.691917 0.157739 0.405380 0.155830
H26   H     H_    0.694903 0.265521 0.544251 0.133913
H27   H     H_    0.853881 0.101336 0.447237 0.163376
H28   H     H_    0.851185 0.201541 0.596160 0.160148
H29   H     H_    0.727109 0.078231 0.705103 0.143643
H30   H     H_    0.823648 0.983182 0.666264 0.139731
H31   H     H_    0.728184 0.977029 0.555720 0.150748
H32   H     H_    0.656866 0.893953 0.131524 0.139898
H33   H     H_    0.735056 0.793585 0.046549 0.107972
H34   H     H_    0.535527 0.885805 0.838713 0.092124
H35   H     H_    0.688054 0.802861 0.363728 0.169920
H36   H     H_    0.763970 0.692830 0.285697 0.165099
H37   H     H_    0.862024 0.862367 0.197480 0.146210
H38   H     H_    0.845122 0.869618 0.384085 0.154058
H39   H     H_    0.785750 0.975425 0.271891 0.153224
H40   H     H_    0.530407 0.108872 0.839409 0.079328
H41   H     H_    0.364503 0.456608 0.138183 0.125009
H42   H     H_    0.711201 0.567067 0.864990 0.094682
H43   H     H_    0.622633 0.689508 0.865841 0.151920
H44   H     H_    0.711627 0.564611 0.116649 0.107557
N1    N     N_R   0.500570 0.500930 0.147930 -0.239577
N2    N     N_R   0.500570 0.500890 0.852020 -0.223243
O1    O     O_R   0.500000 0.319640 0.618810 -0.474930
O2    O     O_3   0.342929 0.460634 0.865531 -0.552208
O3    O     O_3   0.771244 0.306810 0.361768 -0.584974
O4    O     O_3   0.616834 0.713228 0.130518 -0.544563
O5    O     O_R   0.500010 0.319680 0.381230 -0.522245
O6    O     O_R   0.370250 0.499950 0.618800 -0.428826
O7    O     O_R   0.370260 0.499990 0.381220 -0.532655
O8    O     O_R   0.499990 0.680320 0.618770 -0.515177
O9    O     O_R   0.500000 0.680360 0.381190 -0.463686
O10   O     O_R   0.629740 0.500010 0.618780 -0.527992
O11   O     O_R   0.629750 0.500050 0.381200 -0.467572
O12   O     O_3   0.395335 0.110174 0.763671 -0.547702

loop_
_geom_bond_atom_site_label_1
_geom_bond_atom_site_label_2
_ccdc_geom_bond_type
C18   O2    S    
C40   H36   S    
C19   C20   S    
C34   C42   A    
C23   H2    S    
C1    O5    A    
C7    C8    A    
C45   C46   A    
C15   C19   A    
C41   H38   S    
C26   C27   A    
C37   C38   S    
C12   C28   A    
C5    H5    S    
C36   C37   S    
C30   C31   S    
C38   H31   S    
C22   O10   A    
Cu1   Cu2   S    
C35   H22   S    
C8    C9    A    
C22   C25   S    
C46   H7    S    
C36   O3    S    
C23   C27   A    
C9    C10   A    
C37   H27   S    
Cu1   O8    S    
C13   C14   S    
C30   H11   S    
C40   H35   S    
C8    H8    S    
C41   H39   S    
C20   H43   S    
Cu2   N1    S    
C31   H15   S    
C17   H41   S    
C24   C25   A    
C39   H33   S    
C12   C46   A    
C36   H25   S    
C39   C40   S    
C39   O4    S    
C13   H23   S    
C25   C26   A    
Cu2   O9    S    
C20   H42   S    
C13   H34   S    
Cu1   O6    S    
C43   C44   A    
C15   N1    A    
C29   C30   S    
C6    C14   S    
C16   O9    A    
Cu2   O11   S    
C14   O12   S    
C1    O1    A    
C23   C34   A    
C4    O7    A    
C17   C18   A    
C34   H3    S    
C29   H10   S    
C31   H14   S    
C19   N2    A    
C2    H4    S    
C16   O8    A    
C40   C41   S    
C32   O2    S    
C37   H28   S    
C29   H9    S    
C35   H24   S    
C4    O6    A    
C18   N2    A    
C29   O12   S    
C17   N1    A    
C42   C43   A    
C3    C4    S    
C6    C11   A    
C44   C45   A    
C33   H19   S    
C32   H18   S    
C24   H1    S    
Cu2   O5    S    
C36   H26   S    
Cu1   O10   S    
C1    C7    S    
C31   H16   S    
C5    C44   A    
C3    C5    A    
C45   H6    S    
C6    C7    A    
C38   H29   S    
C22   O11   A    
C41   H37   S    
C12   C24   A    
C28   C43   A    
C38   H30   S    
C9    H12   S    
C32   C33   S    
C2    C3    A    
C14   H40   S    
C10   C16   S    
C39   H32   S    
C21   O4    S    
C11   C13   S    
C2    C42   A    
Cu2   O7    S    
C33   C35   S    
Cu1   N2    S    
C10   C11   A    
C26   O3    S    
C15   C21   S    
C20   C21   S    
C35   H21   S    
C30   H13   S    
C27   C28   A    
Cu1   O1    S    
C33   H20   S    
C32   H17   S    
C21   H44   S    
