data_mof_unit_37397.cif
_audit_creation_date              2012-12-11T14:46:00-0500
_audit_creation_method            fapswitch 2.2
_symmetry_space_group_name_H-M    P1
_symmetry_Int_Tables_number       1
_space_group_crystal_system       triclinic
_cell_length_a                    10.920457
_cell_length_b                    10.926
_cell_length_c                    18.865296
_cell_angle_alpha                 89.810233
_cell_angle_beta                  90.092488
_cell_angle_gamma                 119.9197
_cell_volume                      1950.94365119

loop_
_atom_site_label
_atom_site_type_symbol
_atom_type_description
_atom_site_fract_x
_atom_site_fract_y
_atom_site_fract_z
_atom_type_partial_charge
C1    C     C_R   0.864983 0.637073 0.603769 0.546530
C2    C     C_R   0.422746 0.625176 0.777534 -0.115871
C3    C     C_R   0.400767 0.615822 0.705379 -0.129835
C4    C     C_R   0.322173 0.671254 0.675463 0.027344
C5    C     C_R   0.838893 0.162233 0.821237 -0.033208
C6    C     C_R   0.087422 0.222946 0.824275 -0.089457
C7    C     C_R   0.208598 0.243437 0.789607 -0.124083
C8    C     C_R   0.205033 0.218276 0.717224 -0.130051
C9    C     C_R   0.082369 0.180212 0.678472 -0.081417
C10   C     C_R   0.961464 0.170661 0.711283 0.011428
C11   C     C_R   0.961598 0.182592 0.786273 -0.001738
C12   C     C_R   0.269974 0.632359 0.603890 0.545420
C13   C     C_R   0.715903 0.116142 0.707786 0.012821
C14   C     C_R   0.724124 0.151127 0.779716 0.029038
C15   C     C_R   0.585418 0.063648 0.671914 -0.067815
C16   C     C_R   0.474465 0.072633 0.702604 -0.118419
C17   C     C_R   0.491241 0.131048 0.769571 -0.140451
C18   C     C_R   0.615368 0.172309 0.807419 -0.073474
C19   C     C_R   0.841216 0.150017 0.671524 -0.042666
C20   C     C_R   0.727538 0.534279 0.713997 -0.138624
C21   C     C_R   0.718199 0.545730 0.787009 -0.156850
C22   C     C_R   0.803448 0.675817 0.819700 0.028895
C23   C     C_R   0.860747 0.221412 0.601660 0.533088
C24   C     C_R   0.888688 0.796239 0.778465 -0.128468
C25   C     C_R   0.896037 0.785544 0.706220 -0.145152
C26   C     C_R   0.821104 0.653760 0.673912 0.022366
C27   C     C_R   0.383132 0.598195 0.293698 -0.139099
C28   C     C_R   0.397345 0.604143 0.221401 -0.127724
C29   C     C_R   0.370997 0.696925 0.181090 0.036441
C30   C     C_R   0.336157 0.789116 0.214971 -0.154160
C31   C     C_R   0.318110 0.780543 0.288286 -0.140390
C32   C     C_R   0.335743 0.680282 0.327286 0.031825
C33   C     C_R   0.716253 0.108250 0.293227 -0.142232
C34   C     C_R   0.868705 0.637432 0.395922 0.546954
C35   C     C_R   0.706486 0.090564 0.220975 -0.134258
C36   C     C_R   0.828245 0.134308 0.179266 0.050772
C37   C     C_R   0.961927 0.190560 0.211719 -0.018485
C38   C     C_R   0.970454 0.208826 0.285121 -0.106926
C39   C     C_R   0.848354 0.172129 0.325343 0.016776
C40   C     C_R   0.955448 0.749182 0.281208 -0.126087
C41   C     C_R   0.946436 0.748305 0.208861 -0.128469
C42   C     C_R   0.819242 0.655336 0.175123 0.032327
C43   C     C_R   0.706123 0.551467 0.214622 -0.137213
C44   C     C_R   0.717725 0.547930 0.288093 -0.135111
C45   C     C_R   0.273782 0.636154 0.397219 0.546181
C46   C     C_R   0.841661 0.649663 0.321714 0.035974
C47   C     C_R   0.807536 0.105791 0.895056 0.530200
C48   C     C_R   0.400246 0.702614 0.895196 0.545819
C49   C     C_R   0.794194 0.696479 0.894954 0.546351
C50   C     C_R   0.804616 0.101365 0.104179 0.546387
C51   C     C_R   0.402501 0.706869 0.105873 0.546795
C52   C     C_R   0.798423 0.692953 0.104053 0.550195
C53   C     C_R   0.862609 0.228630 0.396116 0.545159
C54   C     C_R   0.270529 0.741393 0.718062 -0.125269
C55   C     C_R   0.295608 0.753652 0.790561 -0.130570
C56   C     C_R   0.368060 0.691562 0.820505 0.040267
Cr1   Cr    Cr6+3 0.791660 0.390250 0.499930 1.012828
Cr2   Cr    Cr6+3 0.098520 0.708290 0.500540 1.001912
Cr3   Cr    Cr6+3 0.109770 0.401430 0.499480 1.007013
Cr4   Cr    Cr6+3 0.874790 0.925890 0.000070 1.003579
Cr5   Cr    Cr6+3 0.574120 0.948670 0.999300 1.011853
Cr6   Cr    Cr6+3 0.551420 0.625320 0.000920 1.001171
H1    H     H_    0.205834 0.781565 0.695923 0.138661
H2    H     H_    0.377194 0.038256 0.673565 0.103135
H3    H     H_    0.571595 0.021547 0.618741 0.122572
H4    H     H_    0.407263 0.142274 0.792842 0.100442
H5    H     H_    0.967286 0.879041 0.676289 0.129338
H6    H     H_    0.399773 0.521760 0.322552 0.123294
H7    H     H_    0.429288 0.534938 0.197192 0.130240
H8    H     H_    0.320654 0.864963 0.184931 0.108939
H9    H     H_    0.255381 0.807209 0.823180 0.120162
H10   H     H_    0.283502 0.846638 0.313766 0.119444
H11   H     H_    0.621062 0.078507 0.323448 0.130968
H12   H     H_    0.602014 0.041985 0.197716 0.143513
H13   H     H_    0.073449 0.259351 0.310227 0.137904
H14   H     H_    0.054229 0.826577 0.305009 0.129400
H15   H     H_    0.037046 0.828044 0.179922 0.128959
H16   H     H_    0.608162 0.476893 0.189152 0.114099
H17   H     H_    0.482510 0.579810 0.799907 0.140401
H18   H     H_    0.439948 0.560283 0.673515 0.127494
H19   H     H_    0.298048 0.229660 0.690796 0.102957
H20   H     H_    0.094800 0.244986 0.880482 0.128076
O1    O     O_R   0.766500 0.250040 0.579790 -0.518318
O2    O     O_R   0.218690 0.701900 0.425960 -0.508633
O3    O     O_R   0.249490 0.516440 0.419420 -0.528993
O4    O     O_R   0.982880 0.281910 0.424890 -0.512065
O5    O     O_3   0.999980 0.499990 0.499980 -0.237346
O6    O     O_R   0.895110 0.806860 0.920430 -0.525243
O7    O     O_R   0.872260 0.046970 0.925000 -0.506718
O8    O     O_R   0.691430 0.085060 0.918550 -0.522870
O9    O     O_R   0.451490 0.822460 0.925250 -0.495106
O10   O     O_R   0.413330 0.603360 0.920440 -0.531116
O11   O     O_R   0.676110 0.626250 0.926750 -0.511180
O12   O     O_R   0.798570 0.516780 0.574780 -0.503667
O13   O     O_R   0.895350 0.809870 0.080950 -0.526389
O14   O     O_R   0.872490 0.049760 0.073800 -0.504834
O15   O     O_R   0.691680 0.088070 0.079070 -0.530031
O16   O     O_R   0.451720 0.825250 0.074050 -0.507694
O17   O     O_R   0.413580 0.606370 0.080960 -0.531150
O18   O     O_R   0.676340 0.629040 0.075550 -0.506750
O19   O     O_3   0.666780 0.833290 0.000090 -0.243893
O20   O     O_R   0.984000 0.732950 0.581090 -0.530596
O21   O     O_R   0.218600 0.700890 0.574760 -0.513630
O22   O     O_R   0.249390 0.515350 0.579940 -0.516071
O23   O     O_R   0.982790 0.280900 0.573700 -0.504196
O24   O     O_R   0.766600 0.251130 0.419260 -0.522727
O25   O     O_R   0.798660 0.517790 0.425980 -0.502948
O26   O     O_R   0.984100 0.734040 0.420570 -0.529543
H21   H     H_    0.668055 0.431089 0.689795 0.146194
H22   H     H_    0.647222 0.453749 0.817895 0.108979
H23   H     H_    0.950528 0.899828 0.801956 0.153680
C57   C     C_3   0.095345 0.237123 0.169635 -0.385262
H24   H     H_    0.104008 0.311630 0.127147 0.144316
H25   H     H_    0.190930 0.291649 0.203516 0.110104
H26   H     H_    0.094867 0.144105 0.145911 0.153396
H27   H     H_    0.630772 0.466781 0.318396 0.117963
H28   H     H_    0.305229 0.278499 0.819270 0.103072
H29   H     H_    0.082626 0.155477 0.623072 0.127116
H30   H     H_    0.625978 0.223479 0.857832 0.132007

loop_
_geom_bond_atom_site_label_1
_geom_bond_atom_site_label_2
_ccdc_geom_bond_type
C55   C56   A    
C35   H12   S    
C6    H20   S    
C41   C42   A    
C14   C18   A    
C19   C23   S    
C35   C36   A    
C25   H5    S    
Cr2   O5    S    
C57   H25   S    
C21   H22   S    
Cr4   O6    S    
C7    C8    A    
C39   C53   S    
Cr4   O7    S    
C43   H16   S    
C40   C46   A    
C5    C47   S    
C28   C29   A    
C17   H4    S    
C33   C39   A    
C23   O1    A    
C34   O25   A    
C36   C37   A    
C5    C11   A    
C41   H15   S    
C38   C39   A    
C54   H1    S    
C15   C16   A    
C15   H3    S    
C52   O13   A    
C32   C45   S    
C7    H28   S    
C37   C57   S    
C2    H17   S    
C53   O24   A    
C28   H7    S    
C8    C9    A    
C48   O9    A    
Cr6   O10   S    
Cr1   O1    S    
C53   O4    A    
C34   C46   S    
C4    C12   S    
C29   C30   A    
C9    C10   A    
Cr6   O19   S    
C51   O16   A    
Cr1   O24   S    
C21   C22   A    
C9    H29   S    
C47   O7    A    
C49   O6    A    
C24   H23   S    
C3    H18   S    
C57   H24   S    
C30   H8    S    
C44   C46   A    
C38   H13   S    
C51   O17   A    
C13   C19   A    
C8    H19   S    
C24   C25   A    
C12   O21   A    
C6    C11   A    
C16   C17   A    
C25   C26   A    
C52   O18   A    
Cr1   O5    S    
Cr5   O19   S    
C43   C44   A    
Cr3   O3    S    
C37   C38   A    
Cr2   O2    S    
C31   C32   A    
C10   C19   A    
C17   C18   A    
Cr3   O23   S    
C5    C14   A    
Cr5   O9    S    
C22   C49   S    
Cr6   O18   S    
Cr4   O14   S    
C33   H11   S    
C40   C41   A    
Cr1   O25   S    
Cr1   O12   S    
C13   C15   A    
C1    C26   S    
C47   O8    A    
C22   C24   A    
C45   O2    A    
C42   C43   A    
Cr3   O22   S    
Cr4   O19   S    
C36   C50   S    
Cr5   O8    S    
C29   C51   S    
C48   C56   S    
C54   C55   A    
C31   H10   S    
C50   O15   A    
C4    C54   A    
C27   C32   A    
Cr5   O15   S    
C1    O12   A    
C12   O22   A    
C6    C7    A    
C45   O3    A    
C34   O26   A    
C2    C3    A    
Cr3   O4    S    
C2    C56   A    
Cr6   O17   S    
Cr5   O16   S    
C50   O14   A    
C30   C31   A    
C20   C26   A    
Cr2   O20   S    
C1    O20   A    
C33   C35   A    
Cr2   O26   S    
Cr3   O5    S    
C10   C11   A    
C20   H21   S    
Cr4   O13   S    
C40   H14   S    
C20   C21   A    
C44   H27   S    
C48   O10   A    
Cr6   O11   S    
C27   C28   A    
Cr2   O21   S    
C16   H2    S    
C27   H6    S    
C49   O11   A    
C13   C14   A    
C18   H30   S    
C57   H26   S    
C55   H9    S    
C3    C4    A    
C42   C52   S    
C23   O23   A    
