data_mof_unit_13401.cif
_audit_creation_date              2012-12-11T14:34:10-0500
_audit_creation_method            fapswitch 2.2
_symmetry_space_group_name_H-M    P1
_symmetry_Int_Tables_number       1
_space_group_crystal_system       triclinic
_cell_length_a                    13.841796
_cell_length_b                    13.972668
_cell_length_c                    27.32934
_cell_angle_alpha                 89.975084
_cell_angle_beta                  90.088928
_cell_angle_gamma                 119.651724
_cell_volume                      4593.50793497

loop_
_atom_site_label
_atom_site_type_symbol
_atom_type_description
_atom_site_fract_x
_atom_site_fract_y
_atom_site_fract_z
_atom_type_partial_charge
C1    C     C_R   0.234061 0.787021 0.568844 0.537816
C2    C     C_1   0.706300 0.862844 0.860326 -0.017191
C3    C     C_1   0.113298 0.879427 0.852833 -0.023674
C4    C     C_1   0.115885 0.232429 0.852477 -0.022785
C5    C     C_1   0.628209 0.814413 0.659074 -0.037701
C6    C     C_1   0.178365 0.817513 0.656799 -0.037827
C7    C     C_1   0.178938 0.360488 0.656690 -0.038702
C8    C     C_1   0.600815 0.796174 0.616774 -0.003326
C9    C     C_1   0.199918 0.805229 0.615508 -0.001334
C10   C     C_1   0.193364 0.394456 0.615435 -0.002893
C11   C     C_R   0.064823 0.150317 0.095980 0.575996
C12   C     C_R   0.212643 0.446709 0.568837 0.540804
C13   C     C_R   0.777503 0.884055 0.088399 0.552919
C14   C     C_R   0.116505 0.893626 0.088152 0.566656
C15   C     C_R   0.069503 0.160603 0.943205 0.531053
C16   C     C_R   0.779539 0.887103 0.950810 0.547466
C17   C     C_R   0.090661 0.929557 0.943350 0.528049
C18   C     C_R   0.618241 0.895578 0.361468 -0.132781
C19   C     C_R   0.097178 0.732272 0.362788 -0.134349
C20   C     C_R   0.264376 0.357710 0.363765 -0.134974
C21   C     C_R   0.644634 0.911213 0.311859 0.014228
C22   C     C_R   0.080612 0.743756 0.313133 0.014380
C23   C     C_R   0.552757 0.765291 0.569035 0.537047
C24   C     C_R   0.241427 0.306883 0.317668 0.014120
C25   C     C_R   0.681136 0.929150 0.210401 0.017047
C26   C     C_R   0.060629 0.759825 0.211519 0.016908
C27   C     C_R   0.200835 0.226051 0.220971 0.017346
C28   C     C_R   0.232478 0.788308 0.431797 0.547953
C29   C     C_R   0.211678 0.444499 0.431362 0.549809
C30   C     C_R   0.555572 0.767211 0.431887 0.548785
C31   C     C_R   0.653334 0.000733 0.234495 -0.137232
C32   C     C_R   0.977465 0.670563 0.237545 -0.127215
C33   C     C_R   0.303243 0.256907 0.243582 -0.123251
C34   C     C_3   0.654422 0.732686 0.791181 -0.172804
C35   C     C_R   0.634901 0.991675 0.284965 -0.130787
C36   C     C_R   0.988015 0.661881 0.288015 -0.128689
C37   C     C_R   0.323530 0.297342 0.291547 -0.128370
C38   C     C_R   0.704109 0.939546 0.160155 -0.148302
C39   C     C_R   0.050698 0.771017 0.161165 -0.133734
C40   C     C_R   0.183022 0.195248 0.171515 -0.127494
C41   C     C_R   0.729081 0.864878 0.137157 -0.001345
C42   C     C_R   0.135379 0.861372 0.136268 -0.002752
C43   C     C_R   0.082842 0.172637 0.148621 -0.009094
C44   C     C_R   0.658934 0.744997 0.364121 -0.131106
C45   C     C_3   0.246269 0.950598 0.784552 -0.170900
C46   C     C_R   0.266093 0.910790 0.361911 -0.128224
C47   C     C_R   0.076134 0.328149 0.367941 -0.129874
C48   C     C_R   0.683167 0.757865 0.314599 0.013459
C49   C     C_R   0.254356 0.920462 0.312215 0.013848
C50   C     C_R   0.052668 0.279211 0.321876 0.011858
C51   C     C_R   0.673547 0.839584 0.288039 0.064138
C52   C     C_R   0.162382 0.835826 0.287406 0.063566
C53   C     C_R   0.136206 0.270570 0.296088 0.062768
C54   C     C_R   0.708566 0.684693 0.290621 -0.126720
C55   C     C_R   0.337667 0.009770 0.286500 -0.127222
C56   C     C_3   0.055766 0.313463 0.786738 -0.171379
C57   C     C_R   0.949155 0.245384 0.299953 -0.128908
C58   C     C_R   0.720611 0.689829 0.240166 -0.126651
C59   C     C_R   0.331819 0.013593 0.235923 -0.129204
C60   C     C_R   0.930213 0.208165 0.251777 -0.121989
C61   C     C_R   0.710569 0.770184 0.213607 0.010848
C62   C     C_R   0.240694 0.930180 0.210967 0.013999
C63   C     C_R   0.013399 0.201856 0.225331 0.017031
C64   C     C_3   0.567595 0.858611 0.736927 -0.198156
C65   C     C_3   0.134240 0.728120 0.738462 -0.196442
C66   C     C_3   0.273162 0.391798 0.736904 -0.198521
C67   C     C_3   0.630306 0.717574 0.735207 0.047639
C68   C     C_R   0.688895 0.846749 0.237368 0.065238
C69   C     C_R   0.154339 0.841919 0.236630 0.063822
C70   C     C_R   0.116217 0.231006 0.247715 0.062235
C71   C     C_R   0.725186 0.776781 0.163632 -0.121440
C72   C     C_R   0.232757 0.936268 0.160817 -0.130599
C73   C     C_R   0.997217 0.171987 0.176151 -0.128632
C74   C     C_R   0.618603 0.807936 0.386701 -0.003044
C75   C     C_R   0.193468 0.812998 0.386367 -0.003392
C76   C     C_R   0.183238 0.372590 0.388092 -0.004594
C77   C     C_3   0.769400 0.921757 0.723258 -0.240251
C78   C     C_3   0.267657 0.931077 0.730609 0.048448
C79   C     C_3   0.060154 0.852729 0.714184 -0.240428
C80   C     C_3   0.123311 0.202741 0.713071 -0.237683
C81   C     C_3   0.789294 0.933903 0.779301 -0.292174
C82   C     C_3   0.040608 0.866101 0.768928 -0.295005
C83   C     C_3   0.106964 0.168591 0.767600 -0.295328
C84   C     C_1   0.733940 0.873223 0.902639 -0.000336
C85   C     C_1   0.102540 0.900702 0.894425 -0.000055
C86   C     C_1   0.096839 0.200642 0.894142 -0.004413
C87   C     C_3   0.649796 0.828006 0.712070 0.042765
C88   C     C_3   0.160290 0.832858 0.708457 0.041030
C89   C     C_3   0.075224 0.352735 0.732455 0.047806
C90   C     C_3   0.162016 0.326878 0.708270 0.043839
C91   C     C_3   0.586923 0.870892 0.793201 0.273195
C92   C     C_3   0.119319 0.745498 0.793622 0.276871
C93   C     C_3   0.256263 0.358276 0.791801 0.270974
C94   C     C_3   0.683627 0.850254 0.807447 0.056957
C95   C     C_3   0.129436 0.860213 0.801410 0.057890
C96   C     C_3   0.133886 0.268056 0.801089 0.060161
C97   C     C_3   0.657204 0.560500 0.715338 -0.324824
C98   C     C_3   0.422079 0.113177 0.707497 -0.325948
C99   C     C_3   0.903144 0.354424 0.711323 -0.324275
Cr1   Cr    Cr6+3 0.164410 0.584450 0.499910 1.020571
Cr2   Cr    Cr6+3 0.415550 0.579960 0.499910 1.020316
Cr3   Cr    Cr6+3 0.420040 0.835590 0.499910 1.017827
Cr4   Cr    Cr6+3 0.155170 0.075460 0.019960 1.033155
Cr5   Cr    Cr6+3 0.924540 0.079710 0.019960 1.018748
Cr6   Cr    Cr6+3 0.920290 0.844830 0.019960 1.021625
F1    F     F_    0.490256 0.797392 0.817361 -0.583046
F2    F     F_    0.198536 0.736408 0.821247 -0.583900
F3    F     F_    0.284005 0.449920 0.820685 -0.600570
H1    H     H_    0.607895 0.955617 0.804357 0.117856
H2    H     H_    0.706099 0.006760 0.139506 0.107510
H3    H     H_    0.975599 0.713171 0.141992 0.116097
H4    H     H_    0.248307 0.193109 0.150510 0.123071
H5    H     H_    0.588371 0.945471 0.379117 0.127595
H6    H     H_    0.039740 0.657534 0.381920 0.123244
H7    H     H_    0.346897 0.390880 0.379322 0.124710
H8    H     H_    0.645842 0.063554 0.214341 0.099822
H9    H     H_    0.905304 0.606779 0.218770 0.099743
H10   H     H_    0.368920 0.253279 0.223631 0.101691
H11   H     H_    0.611816 0.046637 0.302848 0.099837
H12   H     H_    0.035950 0.679903 0.805899 0.119872
H13   H     H_    0.924433 0.590839 0.307293 0.100920
H14   H     H_    0.404495 0.324133 0.307681 0.102172
H15   H     H_    0.742653 0.717413 0.146012 0.130996
H16   H     H_    0.298807 0.005617 0.141504 0.125701
H17   H     H_    0.918992 0.151830 0.158682 0.118066
H18   H     H_    0.737892 0.631152 0.221895 0.099400
H19   H     H_    0.397923 0.082185 0.216371 0.095647
H20   H     H_    0.852128 0.188365 0.234583 0.110945
H21   H     H_    0.715591 0.621429 0.310654 0.101393
H22   H     H_    0.408996 0.074708 0.305317 0.097191
H23   H     H_    0.312860 0.326089 0.801839 0.117327
H24   H     H_    0.884483 0.252031 0.319347 0.103275
H25   H     H_    0.578920 0.937307 0.721545 0.068452
H26   H     H_    0.056929 0.656143 0.724374 0.064942
H27   H     H_    0.337248 0.374950 0.720973 0.066814
H28   H     H_    0.661273 0.678790 0.383858 0.128147
H29   H     H_    0.339059 0.974975 0.380189 0.131230
H30   H     H_    0.012397 0.337549 0.386746 0.130280
H31   H     H_    0.832235 0.905869 0.705443 0.128460
H32   H     H_    0.073855 0.926792 0.693410 0.128553
H33   H     H_    0.044867 0.151929 0.692486 0.128998
H34   H     H_    0.480268 0.794360 0.728976 0.158528
H35   H     H_    0.781433 0.000776 0.707987 0.108541
H36   H     H_    0.984051 0.781746 0.698665 0.113627
H37   H     H_    0.186752 0.185831 0.696687 0.107835
H38   H     H_    0.813391 0.019432 0.790549 0.101243
H39   H     H_    0.956052 0.800263 0.779772 0.099847
H40   H     H_    0.162413 0.135036 0.777147 0.099021
H41   H     H_    0.859612 0.920197 0.788732 0.112414
H42   H     H_    0.043236 0.945740 0.774436 0.112821
H43   H     H_    0.019756 0.102689 0.773480 0.114245
H44   H     H_    0.540621 0.655790 0.729987 0.151337
H45   H     H_    0.202353 0.708281 0.733990 0.163751
H46   H     H_    0.333320 0.906808 0.730497 0.154808
H47   H     H_    0.111824 0.444073 0.732134 0.153648
H48   H     H_    0.580157 0.670222 0.811451 0.186806
H49   H     H_    0.311462 0.950352 0.808371 0.175323
H50   H     H_    0.071094 0.383673 0.810929 0.179237
H51   H     H_    0.781918 0.724694 0.717043 0.249665
H52   H     H_    0.711091 0.538564 0.693538 0.142743
H53   H     H_    0.571070 0.512919 0.700859 0.152787
H54   H     H_    0.658925 0.537709 0.754146 0.134498
H55   H     H_    0.254017 0.063510 0.701376 0.249748
H56   H     H_    0.305371 0.481974 0.733392 0.159329
H57   H     H_    0.443635 0.181724 0.681386 0.145982
H58   H     H_    0.476256 0.077187 0.699695 0.151487
H59   H     H_    0.437724 0.146737 0.745310 0.129313
H60   H     H_    0.925747 0.218180 0.706616 0.249762
H61   H     H_    0.829161 0.313513 0.687096 0.144702
H62   H     H_    0.950890 0.442845 0.701069 0.151856
H63   H     H_    0.874707 0.346561 0.749851 0.132011
H64   H     H_    0.724267 0.718122 0.800899 0.104406
H65   H     H_    0.253383 0.032931 0.788924 0.097252
H66   H     H_    0.967832 0.248367 0.792673 0.101229
N1    N     N_2   0.697513 0.677508 0.711198 -0.517322
N2    N     N_2   0.306286 0.030818 0.701489 -0.517323
N3    N     N_2   0.970950 0.302971 0.705159 -0.515961
O1    O     O_R   0.137150 0.468200 0.553200 -0.504736
O2    O     O_R   0.140110 0.470540 0.446010 -0.521475
O3    O     O_R   0.529460 0.669570 0.446010 -0.521207
O4    O     O_R   0.330430 0.859890 0.446010 -0.523715
O5    O     O_R   0.176710 0.690910 0.450560 -0.502042
O6    O     O_R   0.309090 0.485800 0.450560 -0.501089
O7    O     O_R   0.514200 0.823290 0.450560 -0.503961
O8    O     O_3   0.333333 0.666667 0.499990 -0.264571
O9    O     O_R   0.176750 0.985260 0.074180 -0.528927
O10   O     O_R   0.014740 0.191490 0.074180 -0.488359
O11   O     O_R   0.808510 0.823250 0.074180 -0.515593
O12   O     O_R   0.531800 0.668950 0.553200 -0.505715
O13   O     O_R   0.146100 0.172630 0.068980 -0.475226
O14   O     O_R   0.827370 0.973470 0.068980 -0.517688
O15   O     O_R   0.026530 0.853900 0.068980 -0.488685
O16   O     O_3   1.000000 0.000000 0.020040 -0.295379
O17   O     O_R   0.148270 0.170520 0.969620 -0.481185
O18   O     O_R   0.829480 0.977750 0.969620 -0.523066
O19   O     O_R   0.022250 0.851730 0.969620 -0.474000
O20   O     O_R   0.331050 0.862850 0.553200 -0.503623
O21   O     O_R   0.179100 0.982980 0.967000 -0.489726
O22   O     O_R   0.017020 0.196120 0.967000 -0.470020
O23   O     O_R   0.803880 0.820900 0.967000 -0.508255
O24   O     O_R   0.173970 0.688730 0.549930 -0.503567
O25   O     O_R   0.311270 0.485240 0.549930 -0.503043
O26   O     O_R   0.514760 0.826030 0.549930 -0.501469

loop_
_geom_bond_atom_site_label_1
_geom_bond_atom_site_label_2
_ccdc_geom_bond_type
C25   C31   A    
C65   C92   S    
C12   O1    A    
C26   C32   A    
C97   N1    S    
C55   C59   A    
Cr6   O19   S    
C18   C21   A    
C57   H24   S    
C35   H11   S    
C91   F1    S    
C21   C51   A    
C32   H9    S    
C28   O4    A    
C1    O24   A    
C6    C9    T    
C13   C41   S    
C82   H39   S    
C40   H4    S    
C99   H62   S    
C66   H27   S    
C27   C33   A    
Cr6   O16   S    
C25   C68   A    
C46   C49   A    
C60   C63   A    
C11   O10   A    
C32   C36   A    
Cr6   O11   S    
C71   H15   S    
C47   C76   A    
C99   N3    S    
Cr2   O12   S    
Cr2   O25   S    
C93   F3    S    
C30   C74   S    
C81   H41   S    
C26   C39   A    
C89   H47   S    
C99   H63   S    
H55   N2    S    
C59   H19   S    
H60   N3    S    
C16   C84   S    
C8    C23   S    
C6    C88   S    
C20   C76   A    
C7    C10   T    
C54   H21   S    
C28   O5    A    
C79   C88   S    
C65   H45   S    
C52   C69   A    
C4    C96   S    
C15   O17   A    
C2    C84   T    
C43   C73   A    
Cr6   O23   S    
C1    C9    S    
C20   C24   A    
C67   N1    S    
C56   H50   S    
Cr5   O16   S    
C11   C43   S    
C45   C78   S    
Cr4   O17   S    
C89   N3    S    
C38   H2    S    
Cr1   O5    S    
C64   C87   S    
C98   H59   S    
C16   O23   A    
C41   C71   A    
C14   O15   A    
C61   C71   A    
C58   C61   A    
C39   H3    S    
C79   H32   S    
Cr1   O1    S    
C33   H10   S    
C18   C74   A    
C13   O11   A    
H51   N1    S    
C72   H16   S    
C78   N2    S    
Cr3   O4    S    
Cr6   O15   S    
Cr4   O9    S    
C80   C83   S    
Cr2   O8    S    
C53   C70   A    
C18   H5    S    
C46   C75   A    
C39   C42   A    
C83   H43   S    
C40   C43   A    
C48   C51   A    
C50   C53   A    
C66   H56   S    
Cr3   O8    S    
C97   H52   S    
C77   H31   S    
C2    C94   S    
C19   C22   A    
C45   H49   S    
C38   C41   A    
C66   C90   S    
Cr1   O2    S    
Cr3   O20   S    
C29   C76   S    
C78   H46   S    
C57   C60   A    
C63   C73   A    
C19   H6    S    
C24   C53   A    
C49   C55   A    
Cr5   O14   S    
C92   C95   S    
C33   C37   A    
C83   H40   S    
C62   C69   A    
C56   H66   S    
Cr4   O21   S    
C48   C54   A    
Cr3   O26   S    
C77   H35   S    
C14   O9    A    
C45   H65   S    
C25   C38   A    
C5    C8    T    
C98   N2    S    
Cr1   O24   S    
C92   F2    S    
C79   H36   S    
C63   C70   A    
C60   H20   S    
C27   C40   A    
C55   H22   S    
C42   C72   A    
C24   C37   A    
C62   C72   A    
C17   O21   A    
C81   H38   S    
Cr4   O13   S    
C82   H42   S    
C44   C74   A    
C98   H58   S    
C27   C70   A    
C10   C12   S    
C66   C93   S    
C21   C35   A    
C56   C89   S    
C97   H54   S    
C93   C96   S    
C97   H53   S    
C46   H29   S    
Cr5   O22   S    
C17   C85   S    
C3    C85   T    
C45   C95   S    
C31   H8    S    
C23   O12   A    
C34   H64   S    
C65   C88   S    
C22   C52   A    
C54   C58   A    
C78   C88   S    
C56   C96   S    
Cr5   O10   S    
C64   H25   S    
C80   H37   S    
C59   C62   A    
C82   C95   S    
C29   O6    A    
C67   H44   S    
C79   C82   S    
C50   C57   A    
C30   O7    A    
C1    O20   A    
C34   C94   S    
C49   C52   A    
Cr2   O6    S    
C34   C67   S    
C20   H7    S    
C15   C86   S    
C44   H28   S    
C58   H18   S    
C99   H61   S    
C34   H48   S    
C22   C36   A    
C67   C87   S    
C13   O14   A    
C14   C42   S    
C47   C50   A    
C11   O13   A    
Cr3   O7    S    
C91   H1    S    
C19   C75   A    
Cr1   O8    S    
C92   H12   S    
C12   O25   A    
Cr2   O3    S    
C91   C94   S    
C81   C94   S    
C7    C90   S    
C61   C68   A    
C64   H34   S    
C73   H17   S    
C83   C96   S    
C47   H30   S    
Cr5   O18   S    
C15   O22   A    
C36   H13   S    
C65   H26   S    
C31   C35   A    
C51   C68   A    
C80   C90   S    
C98   H57   S    
C37   H14   S    
C5    C87   S    
C4    C86   T    
C77   C87   S    
C77   C81   S    
C29   O2    A    
C23   O26   A    
C16   O18   A    
C26   C69   A    
C30   O3    A    
C17   O19   A    
C3    C95   S    
Cr4   O16   S    
C64   C91   S    
C89   C90   S    
C93   H23   S    
C28   C75   S    
C80   H33   S    
C44   C48   A    
