data_mof_unit_7667.cif
_audit_creation_date              2012-12-10T17:52:00-0500
_audit_creation_method            fapswitch 2.2
_symmetry_space_group_name_H-M    P1
_symmetry_Int_Tables_number       1
_space_group_crystal_system       triclinic
_cell_length_a                    14.697907
_cell_length_b                    14.706432
_cell_length_c                    19.352844
_cell_angle_alpha                 76.896008
_cell_angle_beta                  102.88123
_cell_angle_gamma                 114.694287
_cell_volume                      3662.607415

loop_
_atom_site_label
_atom_site_type_symbol
_atom_type_description
_atom_site_fract_x
_atom_site_fract_y
_atom_site_fract_z
_atom_type_partial_charge
C1    C     C_R   0.880426 0.312351 0.511729 0.803489
C2    C     C_R   0.119604 0.687702 0.487938 0.804439
C3    C     C_R   0.812955 0.205172 0.514344 -0.054085
C4    C     C_R   0.187046 0.795242 0.480495 -0.053719
C5    C     C_R   0.782864 0.030720 0.513997 -0.186470
C6    C     C_R   0.215713 0.972611 0.463180 -0.186583
C7    C     C_R   0.849985 0.130441 0.517934 -0.190554
C8    C     C_R   0.149261 0.871507 0.467245 -0.190148
C9    C     C_R   0.708819 0.178933 0.508570 -0.237307
C10   C     C_R   0.291373 0.821168 0.487822 -0.243164
C11   C     C_R   0.639163 0.079948 0.501171 0.091667
C12   C     C_R   0.359906 0.922612 0.481837 0.092689
C13   C     C_R   0.678068 0.005107 0.505098 0.160619
C14   C     C_R   0.320485 0.998599 0.471242 0.164267
C15   C     C_R   0.532468 0.053449 0.490006 0.067698
C16   C     C_R   0.466297 0.950235 0.488049 0.065369
C17   C     C_R   0.508528 0.878417 0.491034 -0.201024
C18   C     C_R   0.489678 0.126863 0.479055 -0.204908
C19   C     C_R   0.612256 0.905652 0.499325 -0.205646
C20   C     C_R   0.385811 0.099706 0.469265 -0.212019
C21   C     C_R   0.720081 0.674852 0.385572 -0.309626
C22   C     C_R   0.278788 0.323349 0.612541 -0.307279
C23   C     C_R   0.999641 0.499936 0.632470 0.790426
C24   C     C_R   0.000360 0.500063 0.367532 0.790787
C25   C     C_R   0.799497 0.642097 0.402424 0.072476
C26   C     C_R   0.200286 0.357313 0.597024 0.072501
C27   C     C_R   0.713211 0.507616 0.487876 0.015137
C28   C     C_R   0.286225 0.491892 0.511487 0.015734
C29   C     C_R   0.627967 0.535288 0.472002 -0.022542
C30   C     C_R   0.370399 0.462728 0.525752 -0.022951
C31   C     C_R   0.634006 0.622956 0.420714 0.107013
C32   C     C_R   0.364065 0.374481 0.576502 0.105494
C33   C     C_R   0.538816 0.480491 0.506111 0.060420
C34   C     C_R   0.458862 0.516718 0.490754 0.062531
C35   C     C_R   0.470101 0.606135 0.441256 -0.276119
C36   C     C_R   0.526636 0.389829 0.554310 -0.275860
C37   C     C_R   0.554887 0.657844 0.406249 -0.017772
C38   C     C_R   0.441933 0.338078 0.589384 -0.014930
C39   C     C_R   0.073578 0.479241 0.761179 -0.180214
C40   C     C_R   0.926389 0.520684 0.238830 -0.180100
C41   C     C_R   0.073597 0.479198 0.833118 -0.152138
C42   C     C_R   0.926382 0.520736 0.166892 -0.152157
C43   C     C_R   0.999130 0.499673 0.853706 0.054705
C44   C     C_R   0.000903 0.500346 0.146302 0.054815
C45   C     C_R   0.924500 0.520069 0.800858 -0.150477
C46   C     C_R   0.075576 0.480027 0.199147 -0.150577
C47   C     C_R   0.924500 0.520131 0.728823 -0.183181
C48   C     C_R   0.075566 0.479958 0.271181 -0.183478
C49   C     C_R   0.999126 0.499806 0.708377 -0.035335
C50   C     C_R   0.000884 0.500197 0.291628 -0.034987
C51   C     C_R   0.000518 0.500212 0.070130 0.414079
C52   C     C_R   0.999522 0.499812 0.929878 0.414094
Cu1   Cu    Cu3+1 0.081740 0.475680 0.518680 0.939413
Cu2   Cu    Cu3+1 0.918260 0.524320 0.481320 0.939842
H1    H     H_    0.132070 0.463224 0.747026 0.156005
H2    H     H_    0.867854 0.536632 0.252984 0.155998
H3    H     H_    0.281885 0.554252 0.471274 0.121943
H4    H     H_    0.717850 0.446131 0.528922 0.121455
H5    H     H_    0.134233 0.316573 0.623914 0.128335
H6    H     H_    0.865900 0.683103 0.375932 0.127640
H7    H     H_    0.727193 0.741287 0.345612 0.155289
H8    H     H_    0.271508 0.256485 0.652094 0.155300
H9    H     H_    0.413819 0.638624 0.428548 0.130323
H10   H     H_    0.581728 0.355968 0.565350 0.132059
H11   H     H_    0.132117 0.463144 0.872507 0.156166
H12   H     H_    0.867826 0.536726 0.127505 0.156175
H13   H     H_    0.866018 0.536064 0.815012 0.155566
H14   H     H_    0.134102 0.464102 0.184992 0.155408
H15   H     H_    0.866057 0.536083 0.689243 0.153805
H16   H     H_    0.134047 0.464072 0.310760 0.153443
H17   H     H_    0.641151 0.848169 0.501120 0.148024
H18   H     H_    0.356469 0.158493 0.460850 0.147484
H19   H     H_    0.317494 0.760304 0.500307 0.148565
H20   H     H_    0.684286 0.237668 0.510228 0.142911
H21   H     H_    0.068729 0.853034 0.461346 0.153568
H22   H     H_    0.930426 0.149264 0.522568 0.154618
H23   H     H_    0.812810 0.973813 0.516647 0.135633
H24   H     H_    0.185245 0.030569 0.454325 0.135269
H25   H     H_    0.463603 0.800451 0.485047 0.138900
H26   H     H_    0.533908 0.206916 0.475803 0.141952
N1    N     N_R   0.927895 0.519545 0.950275 -0.237707
N2    N     N_R   0.072146 0.480481 0.049733 -0.237760
N3    N     N_R   0.928390 0.519731 0.019032 -0.237833
N4    N     N_R   0.071651 0.480295 0.980976 -0.237857
N5    N     N_R   0.795420 0.560800 0.453240 -0.177490
N6    N     N_R   0.204580 0.439200 0.546760 -0.178026
O1    O     O_R   0.977910 0.338110 0.524620 -0.589348
O2    O     O_R   0.022090 0.661890 0.475380 -0.589233
O3    O     O_R   0.839850 0.379180 0.493080 -0.587995
O4    O     O_R   0.160150 0.620820 0.506920 -0.589141
O5    O     O_R   0.069040 0.479450 0.615630 -0.583034
O6    O     O_R   0.930960 0.520550 0.384370 -0.583089
O7    O     O_R   0.930990 0.520520 0.584090 -0.584619
O8    O     O_R   0.069010 0.479480 0.415910 -0.584878
C53   C     C_1   0.559115 0.748775 0.356363 0.213107
N7    N     N_1   0.562406 0.821531 0.316601 -0.270710
C54   C     C_1   0.436418 0.245529 0.637615 0.221517
N8    N     N_1   0.432098 0.171482 0.676060 -0.272088

loop_
_geom_bond_atom_site_label_1
_geom_bond_atom_site_label_2
_ccdc_geom_bond_type
C1    O1    A    
C15   C18   A    
Cu2   O2    S    
C27   C29   A    
C19   H17   S    
C53   N7    T    
C4    C8    A    
C54   N8    T    
C39   C41   A    
C28   H3    S    
C46   H14   S    
C21   C31   A    
C22   C32   A    
C35   C37   A    
C3    C7    A    
C10   H19   S    
C43   C52   S    
C23   C49   S    
C6    C14   A    
C15   C16   A    
C29   C33   A    
C17   H25   S    
C33   C36   A    
C37   C53   S    
C52   N4    A    
C34   C35   A    
C27   N5    A    
C47   H15   S    
Cu2   O7    S    
C11   C15   A    
C39   H1    S    
C12   C16   A    
C16   C17   A    
C40   H2    S    
C45   H13   S    
C2    O2    A    
Cu1   N6    S    
C25   H6    S    
C32   C38   A    
C26   H5    S    
C21   H7    S    
C40   C42   A    
C41   C43   A    
C42   C44   A    
C38   C54   S    
C24   O6    A    
N1    N3    A    
C44   C46   A    
C45   C47   A    
C24   C50   S    
C46   C48   A    
C30   C34   A    
C14   C20   A    
Cu2   O3    S    
C47   C49   A    
C5    C7    A    
C13   C19   A    
C6    C8    A    
Cu1   Cu2   S    
C8    H21   S    
C23   O7    A    
C1    C3    S    
C2    C4    S    
Cu2   O6    S    
C3    C9    A    
C24   O8    A    
C22   H8    S    
C9    C11   A    
C26   N6    A    
C25   N5    A    
C33   C34   A    
Cu1   O1    S    
C48   C50   A    
C43   C45   A    
C51   N2    A    
C10   C12   A    
Cu1   O5    S    
C44   C51   S    
C18   H26   S    
C39   C49   A    
C12   C14   A    
N2    N4    A    
C28   N6    A    
C23   O5    A    
C9    H20   S    
C5    H23   S    
C51   N3    A    
C21   C25   A    
C1    O3    A    
Cu1   O8    S    
C5    C13   A    
C48   H16   S    
C27   H4    S    
Cu2   N5    S    
C41   H11   S    
C7    H22   S    
C36   C38   A    
C29   C31   A    
C30   C32   A    
C11   C13   A    
C40   C50   A    
C28   C30   A    
C17   C19   A    
C18   C20   A    
C52   N1    A    
C6    H24   S    
C31   C37   A    
C2    O4    A    
C22   C26   A    
Cu1   O4    S    
C42   H12   S    
C20   H18   S    
C35   H9    S    
C36   H10   S    
C4    C10   A    
