data_mof_unit_5229.cif
_audit_creation_date              2012-12-10T18:43:08-0500
_audit_creation_method            fapswitch 2.2
_symmetry_space_group_name_H-M    P1
_symmetry_Int_Tables_number       1
_space_group_crystal_system       triclinic
_cell_length_a                    18.090785
_cell_length_b                    18.072017
_cell_length_c                    18.085494
_cell_angle_alpha                 119.980465
_cell_angle_beta                  89.90022
_cell_angle_gamma                 60.097318
_cell_volume                      4184.72902575

loop_
_atom_site_label
_atom_site_type_symbol
_atom_type_description
_atom_site_fract_x
_atom_site_fract_y
_atom_site_fract_z
_atom_type_partial_charge
C1    C     C_R   0.885911 0.217335 0.609128 0.551251
C2    C     C_3   0.551177 0.897380 0.949999 0.047090
C3    C     C_3   0.447021 0.036245 0.079629 -0.166364
C4    C     C_3   0.553238 0.963254 0.920726 -0.158036
C5    C     C_3   0.045336 0.406266 0.485058 0.022363
C6    C     C_3   0.954901 0.593230 0.514740 0.017350
C7    C     C_3   0.076780 0.479200 0.520105 -0.156308
C8    C     C_3   0.923477 0.520293 0.479692 -0.160906
C9    C     C_3   0.050727 0.500268 0.448408 0.062762
C10   C     C_3   0.949515 0.499281 0.551421 0.062351
C11   C     C_3   0.020754 0.426015 0.412220 -0.143810
C12   C     C_R   0.109736 0.783032 0.391321 0.575206
C13   C     C_3   0.979508 0.573490 0.587574 -0.139990
C14   C     C_3   0.944440 0.033942 0.454205 -0.205197
C15   C     C_3   0.044306 0.964954 0.547126 -0.168631
C16   C     C_R   0.608485 0.783095 0.892612 0.525027
C17   C     C_R   0.391549 0.216807 0.107416 0.522192
C18   C     C_3   0.948045 0.959141 0.474970 0.270475
C19   C     C_3   0.041327 0.039815 0.526259 0.220411
C20   C     C_3   0.050986 0.897083 0.447983 0.035771
C21   C     C_3   0.937157 0.103160 0.553974 -0.036936
C22   C     C_3   0.048289 0.971781 0.428342 0.229047
C23   C     C_3   0.517089 0.404666 0.447885 -0.127264
C24   C     C_3   0.940152 0.027576 0.574092 0.232284
C25   C     C_3   0.948683 0.471438 0.016551 -0.180257
C26   C     C_3   0.053203 0.526459 0.982395 -0.193907
C27   C     C_3   0.947735 0.567455 0.086504 -0.009053
C28   C     C_3   0.053877 0.430439 0.912326 -0.026250
C29   C     C_3   0.051769 0.499611 0.051143 0.043175
C30   C     C_3   0.949387 0.498994 0.948064 0.038801
C31   C     C_3   0.053230 0.404295 0.980958 0.236570
C32   C     C_3   0.948317 0.594272 0.018337 0.245084
C33   C     C_3   0.549197 0.407817 0.922533 0.277201
C34   C     C_3   0.482880 0.595737 0.552184 -0.127408
C35   C     C_3   0.451468 0.593047 0.078884 0.266659
C36   C     C_3   0.444759 0.478884 0.958209 -0.162254
C37   C     C_3   0.555629 0.522371 0.043130 -0.159304
C38   C     C_3   0.449576 0.499401 0.051253 0.046160
C39   C     C_3   0.550852 0.501764 0.950213 0.042457
C40   C     C_R   0.608365 0.500498 0.892020 0.531843
C41   C     C_R   0.391724 0.500021 0.108540 0.531930
C42   C     C_3   0.554200 0.426887 0.014825 -0.135004
C43   C     C_3   0.446244 0.574634 0.986811 -0.148171
C44   C     C_R   0.891844 0.499759 0.608501 0.556229
C45   C     C_3   0.446666 0.965080 0.984494 -0.144533
C46   C     C_R   0.108253 0.500105 0.391472 0.553223
C47   C     C_R   0.891342 0.500170 0.891800 0.586988
C48   C     C_R   0.109021 0.499463 0.107972 0.577890
C49   C     C_R   0.608419 0.499987 0.608245 0.496875
C50   C     C_R   0.391578 0.500145 0.391765 0.497142
C51   C     C_3   0.587158 0.429658 0.446677 -0.109522
C52   C     C_3   0.412807 0.570736 0.553375 -0.109204
C53   C     C_3   0.517717 0.525644 0.447380 -0.123642
C54   C     C_3   0.482240 0.474757 0.552674 -0.123902
C55   C     C_3   0.448601 0.500562 0.449389 0.068782
C56   C     C_3   0.553519 0.034475 0.015831 -0.144618
C57   C     C_3   0.551369 0.499809 0.550659 0.069073
C58   C     C_3   0.810749 0.981922 0.472649 0.033414
C59   C     C_3   0.764543 0.925356 0.445676 -0.227997
C60   C     C_3   0.661888 0.002336 0.489761 -0.510287
C61   C     C_3   0.177605 0.019956 0.535387 0.032869
C62   C     C_3   0.194755 0.044285 0.624741 -0.262161
C63   C     C_3   0.294915 0.975624 0.609858 -0.503842
C64   C     C_3   0.092344 0.021555 0.351112 0.037951
C65   C     C_3   0.119498 0.987927 0.253881 -0.272174
C66   C     C_3   0.108670 0.075950 0.251451 -0.483618
C67   C     C_3   0.449072 0.031696 0.956427 0.276470
C68   C     C_3   0.847183 0.126990 0.725064 0.030351
C69   C     C_3   0.916975 0.131396 0.772065 -0.269501
C70   C     C_3   0.871106 0.226941 0.870372 -0.456626
C71   C     C_2   0.886669 0.644237 0.183236 0.210285
C72   C     C_2   0.114159 0.353713 0.815352 0.199483
C73   C     C_3   0.108812 0.228247 0.896806 0.019072
C74   C     C_3   0.127954 0.148913 0.917051 -0.251505
C75   C     C_3   0.143546 0.049889 0.834986 -0.503875
C76   C     C_3   0.921277 0.753998 0.063011 0.008983
C77   C     C_3   0.923551 0.796880 0.160190 -0.268551
C78   C     C_3   0.551234 0.967641 0.043574 0.268879
C79   C     C_3   0.946944 0.875823 0.192386 -0.468805
C80   C     C_3   0.578276 0.246085 0.810664 -0.002919
C81   C     C_3   0.595584 0.196210 0.862571 -0.270612
C82   C     C_3   0.579478 0.110786 0.820221 -0.479722
C83   C     C_3   0.404313 0.764802 0.170305 0.016388
C84   C     C_3   0.365341 0.857697 0.269438 -0.256915
C85   C     C_3   0.362449 0.947844 0.278607 -0.499394
C86   C     C_3   0.408766 0.985302 0.826654 0.011978
C87   C     C_3   0.463317 0.972247 0.750880 -0.268349
C88   C     C_3   0.504309 0.865793 0.661348 -0.491841
C89   C     C_3   0.448876 0.102355 0.050229 0.041151
C90   C     C_3   0.587818 0.008967 0.174122 0.009215
C91   C     C_3   0.664938 0.969284 0.209368 -0.240778
C92   C     C_3   0.646763 0.055711 0.305016 -0.506197
C93   C     C_2   0.098942 0.299827 0.466469 0.217549
C94   C     C_2   0.901302 0.699578 0.533166 0.233099
H1    H     H_    0.531157 0.546546 0.403209 0.111768
H2    H     H_    0.403639 0.635605 0.975386 0.118096
H3    H     H_    0.659589 0.371702 0.403711 0.122020
H4    H     H_    0.340376 0.628691 0.596340 0.124667
H5    H     H_    0.529943 0.326446 0.404130 0.099763
H6    H     H_    0.469924 0.674022 0.595989 0.101091
H7    H     H_    0.403850 0.935332 0.970102 0.118932
H8    H     H_    0.596348 0.064197 0.030171 0.122614
H9    H     H_    0.403500 0.067806 0.145444 0.096086
H10   H     H_    0.598467 0.929828 0.855128 0.097503
H11   H     H_    0.140499 0.461842 0.535511 0.111012
H12   H     H_    0.468795 0.453872 0.596858 0.109833
H13   H     H_    0.859754 0.537651 0.464292 0.109937
H14   H     H_    0.038587 0.365163 0.339844 0.126713
H15   H     H_    0.961692 0.634268 0.659965 0.130542
H16   H     H_    0.795783 0.023219 0.439424 0.097329
H17   H     H_    0.782335 0.040403 0.547450 0.170059
H18   H     H_    0.782204 0.878102 0.370799 0.180169
H19   H     H_    0.789113 0.871632 0.467078 0.229811
H20   H     H_    0.642810 0.044226 0.564501 0.141103
H21   H     H_    0.630258 0.959228 0.464498 0.148637
H22   H     H_    0.635477 0.060383 0.473285 0.143580
H23   H     H_    0.903013 0.062516 0.417367 0.098947
H24   H     H_    0.216608 0.032315 0.500780 0.155579
H25   H     H_    0.203600 0.935800 0.489334 0.121158
H26   H     H_    0.170371 0.127581 0.668942 0.212098
H27   H     H_    0.156300 0.031826 0.659725 0.146422
H28   H     H_    0.319852 0.892093 0.569782 0.147124
H29   H     H_    0.304459 0.998708 0.676564 0.138387
H30   H     H_    0.334839 0.986010 0.573953 0.151919
H31   H     H_    0.134271 0.046170 0.386389 0.182133
H32   H     H_    0.020123 0.090350 0.386004 0.163027
H33   H     H_    0.191010 0.918767 0.216616 0.180157
H34   H     H_    0.086065 0.936009 0.583599 0.114080
H35   H     H_    0.076263 0.965427 0.219116 0.165701
H36   H     H_    0.037084 0.145269 0.286625 0.163016
H37   H     H_    0.128921 0.049099 0.180034 0.141590
H38   H     H_    0.152311 0.098689 0.284712 0.149011
H39   H     H_    0.800366 0.127469 0.765377 0.168034
H40   H     H_    0.802796 0.196356 0.724699 0.179805
H41   H     H_    0.956995 0.059649 0.770572 0.162345
H42   H     H_    0.964222 0.134223 0.736056 0.181224
H43   H     H_    0.835475 0.299572 0.873302 0.211856
H44   H     H_    0.922699 0.225185 0.903891 0.127812
H45   H     H_    0.906476 0.447852 0.028858 0.114010
H46   H     H_    0.821905 0.227606 0.907983 0.143239
H47   H     H_    0.813933 0.689656 0.198661 0.100230
H48   H     H_    0.186992 0.308653 0.799277 0.097756
H49   H     H_    0.162425 0.189000 0.834149 0.138704
H50   H     H_    0.042257 0.257394 0.885488 0.133160
H51   H     H_    0.188953 0.127241 0.938123 0.202746
H52   H     H_    0.069601 0.185304 0.974038 0.161832
H53   H     H_    0.085724 0.069384 0.809500 0.143484
H54   H     H_    0.150763 0.997834 0.854378 0.149553
H55   H     H_    0.206442 0.007243 0.780163 0.139746
H56   H     H_    0.099075 0.545407 0.968891 0.105924
H57   H     H_    0.876450 0.821046 0.059313 0.154647
H58   H     H_    0.988752 0.710271 0.014038 0.126601
H59   H     H_    0.856613 0.835167 0.206806 0.168109
H60   H     H_    0.975268 0.731876 0.163299 0.209609
H61   H     H_    0.013562 0.839357 0.146477 0.154764
H62   H     H_    0.950736 0.902410 0.261529 0.186499
H63   H     H_    0.894099 0.944833 0.194520 0.130808
H64   H     H_    0.617404 0.182503 0.737643 0.150405
H65   H     H_    0.506072 0.287381 0.815309 0.119385
H66   H     H_    0.666439 0.162101 0.862552 0.165715
H67   H     H_    0.397477 0.462662 0.926414 0.098223
H68   H     H_    0.549044 0.256369 0.933669 0.165155
H69   H     H_    0.508674 0.143731 0.820270 0.153978
H70   H     H_    0.590960 0.077807 0.860287 0.154100
H71   H     H_    0.626780 0.046896 0.749589 0.143251
H72   H     H_    0.364689 0.791452 0.131356 0.131076
H73   H     H_    0.475863 0.734813 0.143009 0.124046
H74   H     H_    0.295846 0.885226 0.299964 0.191252
H75   H     H_    0.407664 0.832518 0.307533 0.161297
H76   H     H_    0.431916 0.923075 0.251866 0.152574
H77   H     H_    0.332129 0.014613 0.351137 0.145226
H78   H     H_    0.600788 0.541502 0.076904 0.105573
H79   H     H_    0.320641 0.974139 0.240816 0.144156
H80   H     H_    0.342380 0.003794 0.818049 0.137766
H81   H     H_    0.442645 0.909570 0.819218 0.123588
H82   H     H_    0.418668 0.035407 0.742380 0.155914
H83   H     H_    0.519157 0.979019 0.768880 0.166956
H84   H     H_    0.556456 0.802604 0.666476 0.143073
H85   H     H_    0.536849 0.862252 0.606465 0.146750
H86   H     H_    0.451488 0.852322 0.643600 0.142300
H87   H     H_    0.524677 0.035636 0.218307 0.123501
H88   H     H_    0.578604 0.076546 0.177542 0.126683
H89   H     H_    0.597390 0.366502 0.026699 0.118218
H90   H     H_    0.674182 0.903535 0.209113 0.178592
H91   H     H_    0.728239 0.940282 0.163930 0.182744
H92   H     H_    0.639449 0.121077 0.306132 0.143224
H93   H     H_    0.704499 0.024166 0.327939 0.141209
H94   H     H_    0.584090 0.085641 0.352355 0.143053
H95   H     H_    0.166572 0.241145 0.417004 0.072664
H96   H     H_    0.833991 0.758630 0.583227 0.080634
O1    O     O_3   0.750010 0.499980 0.749990 -0.450445
O2    O     O_R   0.305750 0.265450 0.132730 -0.524107
O3    O     O_R   0.867280 0.265410 0.571220 -0.523590
O4    O     O_R   0.132720 0.734590 0.428780 -0.525807
O5    O     O_R   0.571230 0.734580 0.867270 -0.565876
O6    O     O_R   0.428770 0.265420 0.132730 -0.565529
O7    O     O_R   0.694200 0.438470 0.867270 -0.557110
O8    O     O_R   0.305800 0.561530 0.132730 -0.522849
O9    O     O_R   0.867340 0.561470 0.694210 -0.547719
O10   O     O_R   0.132660 0.438530 0.305790 -0.549199
O11   O     O_R   0.867310 0.438430 0.867270 -0.565331
O12   O     O_3   0.249990 0.500020 0.250010 -0.461230
O13   O     O_R   0.132690 0.561570 0.132730 -0.565403
O14   O     O_R   0.694200 0.438520 0.571220 -0.561847
O15   O     O_R   0.305800 0.561480 0.428780 -0.559519
O16   O     O_R   0.867340 0.561440 0.867270 -0.478352
O17   O     O_R   0.132660 0.438560 0.132730 -0.474132
O18   O     O_R   0.571190 0.561530 0.694210 -0.547744
O19   O     O_R   0.428810 0.438470 0.305790 -0.547740
O20   O     O_3   0.904826 0.907696 0.444124 -0.506727
O21   O     O_3   0.084890 0.090925 0.554066 -0.530980
O22   O     O_3   0.108064 0.935797 0.349523 -0.563700
O23   O     O_R   0.571190 0.561490 0.867270 -0.553274
O24   O     O_3   0.887445 0.033746 0.637763 -0.562115
O25   O     O_2   0.917946 0.656275 0.244758 -0.495641
O26   O     O_2   0.082125 0.341438 0.754341 -0.484110
O27   O     O_3   0.111511 0.308097 0.969581 -0.540893
O28   O     O_3   0.885125 0.694569 0.038079 -0.550491
O29   O     O_3   0.608927 0.310990 0.838095 -0.583539
O30   O     O_3   0.397894 0.688005 0.165571 -0.550553
O31   O     O_3   0.392698 0.069803 0.912448 -0.550423
O32   O     O_3   0.609563 0.926670 0.084697 -0.544852
O33   O     O_2   0.067526 0.278483 0.506385 -0.466697
O34   O     O_R   0.428810 0.438510 0.132730 -0.560472
O35   O     O_2   0.932388 0.720403 0.492401 -0.446653
O36   O     O_R   0.867310 0.438490 0.571220 -0.513992
O37   O     O_R   0.132690 0.561510 0.428780 -0.509135
O38   O     O_R   0.867280 0.265380 0.694210 -0.552751
O39   O     O_R   0.132720 0.734620 0.305790 -0.497928
O40   O     O_R   0.694250 0.734550 0.867270 -0.521344
Zn1   Zn    Zn3+2 0.618190 0.587870 0.793920 0.910772
Zn2   Zn    Zn3+2 0.381810 0.412130 0.206080 0.910550
Zn3   Zn    Zn3+2 0.793940 0.412090 0.793920 0.936653
Zn4   Zn    Zn3+2 0.206060 0.587910 0.206080 0.989328
Zn5   Zn    Zn3+2 0.793970 0.587840 0.793920 1.000251
Zn6   Zn    Zn3+2 0.206030 0.412160 0.206080 0.995004
Zn7   Zn    Zn3+2 0.793940 0.412130 0.618200 0.962760
Zn8   Zn    Zn3+2 0.206060 0.587870 0.381800 0.977429

loop_
_geom_bond_atom_site_label_1
_geom_bond_atom_site_label_2
_ccdc_geom_bond_type
C25   C31   S    
C23   H5    S    
C87   C88   S    
O1    Zn7   S    
C1    C21   S    
C53   H1    S    
C81   H68   S    
C14   C18   S    
C74   H51   S    
C60   H20   S    
C68   H40   S    
C35   O30   S    
C80   O29   S    
C63   H30   S    
C92   H93   S    
C56   C78   S    
C12   O39   A    
C70   H46   S    
C87   H82   S    
C18   O20   S    
C48   O13   A    
C85   H77   S    
C82   H70   S    
C23   C54   S    
C6    C8    S    
C33   C42   S    
C65   H33   S    
C14   C21   S    
C68   H39   S    
C19   C21   S    
C5    C11   S    
O34   Zn2   S    
C80   C81   S    
C92   H92   S    
C61   H25   S    
C82   H69   S    
C76   H58   S    
O1    Zn5   S    
C67   C89   S    
C33   C36   S    
C49   C57   S    
C27   C29   S    
C47   O11   A    
C86   H81   S    
C61   O21   S    
O5    Zn1   S    
O39   Zn4   S    
C67   O31   S    
O11   Zn3   S    
C13   H15   S    
C34   C52   S    
C94   O35   D    
C77   H59   S    
C79   H62   S    
C49   O18   A    
C24   O24   S    
C59   H18   S    
C23   C51   S    
C90   H88   S    
C50   O19   A    
C76   O28   S    
C68   C69   S    
C6    C94   S    
C22   O22   S    
C40   O23   A    
C45   C67   S    
C34   C57   S    
C85   H79   S    
C46   O37   A    
C7    H11   S    
O2    Zn6   S    
C26   C29   S    
C51   C57   S    
C86   O31   S    
C35   C43   S    
C62   H26   S    
O12   Zn4   S    
O23   Zn1   S    
C52   C55   S    
C71   H47   S    
C5    C93   S    
C61   C62   S    
C73   H50   S    
C58   O20   S    
C61   H24   S    
C49   O14   A    
C9    C46   S    
C69   H41   S    
C81   H66   S    
C58   H16   S    
C91   H90   S    
C4    C56   S    
C66   H36   S    
C68   O24   S    
C28   C72   S    
C37   H78   S    
C52   C54   S    
O17   Zn6   S    
C81   C82   S    
C66   H38   S    
O15   Zn8   S    
C51   H3    S    
C17   O2    A    
C15   C20   S    
C37   C39   S    
C83   H72   S    
C19   O21   S    
C74   C75   S    
C54   H12   S    
C29   C48   S    
C10   C44   S    
C58   H17   S    
O6    Zn2   S    
C30   C47   S    
C26   H56   S    
C19   C22   S    
C17   C89   S    
C84   C85   S    
C38   C41   S    
C84   H75   S    
O8    Zn4   S    
C91   C92   S    
C5    C7    S    
O7    Zn3   S    
C26   C32   S    
O14   Zn7   S    
C80   H65   S    
C39   C43   S    
C76   H57   S    
C75   H53   S    
C58   C59   S    
O37   Zn8   S    
C83   H73   S    
C3    C45   S    
O4    Zn8   S    
O16   Zn5   S    
C51   C53   S    
O19   Zn2   S    
C15   C19   S    
C34   H6    S    
C94   H96   S    
O12   Zn8   S    
C62   C63   S    
C2    C78   S    
C88   H86   S    
O9    Zn5   S    
C77   H60   S    
C87   H83   S    
C80   H64   S    
C83   C84   S    
C90   H87   S    
C7    C13   S    
C59   H19   S    
C14   H23   S    
C12   C20   S    
C37   C42   S    
C43   H2    S    
C77   C79   S    
C73   O27   S    
O40   Zn5   S    
C93   O33   D    
C33   C39   S    
C76   C77   S    
C23   C55   S    
C9    C11   S    
C6    C9    S    
O3    Zn7   S    
O38   Zn3   S    
C45   H7    S    
C70   H43   S    
C1    O38   A    
C8    C10   S    
C56   C89   S    
C72   O26   D    
C78   O32   S    
C70   H44   S    
C69   H42   S    
C64   H32   S    
C15   H34   S    
C36   H67   S    
C42   H89   S    
C18   C24   S    
C60   H22   S    
C25   C27   S    
C53   C55   S    
C8    H13   S    
C50   O15   A    
C39   C40   S    
C63   H28   S    
C27   C71   S    
C64   H31   S    
C35   C37   S    
C88   H85   S    
O12   Zn2   S    
C66   H37   S    
C73   H49   S    
C3    H9    S    
C25   C30   S    
C7    C9    S    
C15   C24   S    
C73   C74   S    
C16   O40   A    
C17   O6    A    
C47   O16   A    
C25   H45   S    
C27   C32   S    
C86   C87   S    
C33   O29   S    
C12   O4    A    
C74   H52   S    
C28   C31   S    
C72   H48   S    
C85   H76   S    
C20   C22   S    
C41   O8    A    
C36   C43   S    
C10   C13   S    
C79   H63   S    
C4    C67   S    
C63   H29   S    
C92   H94   S    
C90   O32   S    
C44   O9    A    
C93   H95   S    
C75   H54   S    
O1    Zn3   S    
C26   C28   S    
C50   C55   S    
C3    C89   S    
C64   C65   S    
C14   C22   S    
C36   C38   S    
C56   H8    S    
C5    C10   S    
C29   C31   S    
C16   O5    A    
C65   H35   S    
C6    C13   S    
C30   C32   S    
C83   O30   S    
O10   Zn6   S    
C90   C91   S    
C2    C16   S    
C75   H55   S    
C8    C11   S    
C71   O25   D    
C2    C4    S    
C4    H10   S    
C48   O17   A    
C52   H4    S    
C28   C30   S    
C18   C20   S    
C46   O10   A    
C1    O3    A    
C91   H91   S    
C69   C70   S    
C41   O34   A    
C2    C45   S    
O18   Zn1   S    
C79   H61   S    
C38   C42   S    
C59   C60   S    
C84   H74   S    
C34   C53   S    
O1    Zn1   S    
C65   C66   S    
C40   O7    A    
C21   C24   S    
O13   Zn4   S    
C11   H14   S    
O36   Zn7   S    
C35   C38   S    
C64   O22   S    
C60   H21   S    
C86   H80   S    
C3    C78   S    
C44   O36   A    
C88   H84   S    
C54   C57   S    
C62   H27   S    
C32   O28   S    
O12   Zn6   S    
C31   O27   S    
C82   H71   S    
