data_mof_unit_9349.cif
_audit_creation_date              2012-12-10T17:10:23-0500
_audit_creation_method            fapswitch 2.2
_symmetry_space_group_name_H-M    P1
_symmetry_Int_Tables_number       1
_space_group_crystal_system       triclinic
_cell_length_a                    10.686345
_cell_length_b                    13.006404
_cell_length_c                    11.648311
_cell_angle_alpha                 99.897736
_cell_angle_beta                  93.832458
_cell_angle_gamma                 90.483961
_cell_volume                      1591.01837555

loop_
_atom_site_label
_atom_site_type_symbol
_atom_type_description
_atom_site_fract_x
_atom_site_fract_y
_atom_site_fract_z
_atom_type_partial_charge
C1    C     C_R   0.498198 0.298977 0.478586 0.841850
C2    C     C_R   0.501891 0.701020 0.521422 0.768134
C3    C     C_R   0.503151 0.814374 0.533830 -0.046981
C4    C     C_R   0.497091 0.185535 0.466200 -0.060058
C5    C     C_R   0.486157 0.014810 0.343880 -0.202377
C6    C     C_R   0.514266 0.985041 0.656168 -0.202471
C7    C     C_R   0.487139 0.122921 0.354943 -0.190139
C8    C     C_R   0.513284 0.876938 0.645097 -0.179740
C9    C     C_R   0.506060 0.139326 0.566445 -0.259196
C10   C     C_R   0.494173 0.860554 0.433589 -0.262250
C11   C     C_R   0.505200 0.031296 0.556104 0.171016
C12   C     C_R   0.495135 0.968569 0.443939 0.171859
C13   C     C_R   0.419990 0.378395 0.020049 -0.304856
C14   C     C_R   0.575493 0.622971 0.979942 -0.309523
C15   C     C_R   0.423146 0.392954 0.142616 0.120744
C16   C     C_R   0.572707 0.608405 0.857505 0.093064
C17   C     C_R   0.525294 0.557439 0.157734 0.054787
C18   C     C_R   0.472415 0.443208 0.841929 0.030337
C19   C     C_R   0.525101 0.545770 0.034756 0.079950
C20   C     C_R   0.472445 0.454723 0.965042 0.091435
C21   C     C_R   0.264092 0.519375 0.501754 0.809873
C22   C     C_R   0.736434 0.520209 0.501464 0.809760
C23   C     C_R   0.147426 0.636778 0.711626 -0.136013
C24   C     C_R   0.857312 0.576460 0.292696 -0.134446
C25   C     C_R   0.090477 0.683109 0.810797 -0.243666
C26   C     C_R   0.914310 0.579172 0.189473 -0.258658
C27   C     C_R   0.960428 0.689794 0.809767 0.045575
C28   C     C_R   0.044196 0.579140 0.188746 0.051275
C29   C     C_R   0.886727 0.644874 0.708994 -0.130377
C30   C     C_R   0.116015 0.577769 0.293299 -0.124419
C31   C     C_R   0.942480 0.594330 0.608018 0.044418
C32   C     C_R   0.059971 0.562799 0.396676 0.037180
C33   C     C_R   0.075367 0.592185 0.608595 0.083337
C34   C     C_R   0.927326 0.562406 0.396328 0.093689
C35   C     C_R   0.869906 0.556817 0.502141 -0.221749
C36   C     C_R   0.131831 0.555778 0.502676 -0.219168
Cu1   Cu    Cu3+1 0.509250 0.507730 0.615930 0.935064
Cu2   Cu    Cu3+1 0.490750 0.492270 0.384070 0.937856
H1    H     H_    0.377559 0.307748 0.968912 0.129043
H2    H     H_    0.615346 0.694562 0.031215 0.170800
H3    H     H_    0.248004 0.646049 0.714905 0.173494
H4    H     H_    0.759338 0.593578 0.290684 0.158191
H5    H     H_    0.148975 0.719601 0.886702 0.157401
H6    H     H_    0.856775 0.587155 0.111360 0.138953
H7    H     H_    0.787124 0.657724 0.707058 0.169211
H8    H     H_    0.214448 0.595986 0.293040 0.199499
H9    H     H_    0.486354 0.812690 0.347357 0.153798
H10   H     H_    0.513776 0.187184 0.652676 0.147319
H11   H     H_    0.520439 0.842465 0.723514 0.165960
H12   H     H_    0.480085 0.157368 0.276513 0.152565
H13   H     H_    0.478408 0.967507 0.257409 0.140760
H14   H     H_    0.522081 0.032328 0.742642 0.140003
H15   H     H_    0.429494 0.374392 0.787730 0.121918
H16   H     H_    0.565006 0.627680 0.211427 0.097680
H17   H     H_    0.607691 0.669844 0.816306 0.168916
H18   H     H_    0.383124 0.333123 0.183744 0.119955
N1    N     N_R   0.523180 0.519350 0.790130 -0.195426
N2    N     N_R   0.476820 0.480650 0.209870 -0.182356
O1    O     O_R   0.506570 0.354460 0.582000 -0.584723
O2    O     O_R   0.493430 0.645540 0.418000 -0.607556
O3    O     O_R   0.490940 0.341410 0.386200 -0.591026
O4    O     O_R   0.509060 0.658590 0.613800 -0.620077
O5    O     O_R   0.327470 0.506520 0.597900 -0.579476
O6    O     O_R   0.672530 0.493480 0.402100 -0.581561
O7    O     O_R   0.311840 0.493460 0.402100 -0.584566
O8    O     O_R   0.688160 0.506540 0.597900 -0.575098
C37   C     C_2   0.103519 0.584485 0.078862 0.310681
H19   H     H_    0.045645 0.578326 0.997886 0.073808
O9    O     O_2   0.217028 0.594510 0.076972 -0.560478
C38   C     C_2   0.904672 0.750268 0.912549 0.301315
H20   H     H_    0.961737 0.773114 0.993793 0.076862
O10   O     O_2   0.796077 0.778130 0.907225 -0.590905

loop_
_geom_bond_atom_site_label_1
_geom_bond_atom_site_label_2
_ccdc_geom_bond_type
Cu1   Cu2   S    
C18   C20   A    
C38   O10   D    
C11   C12   A    
C31   C33   A    
C22   O8    A    
C38   H20   S    
C14   C16   A    
C27   C29   A    
C24   H4    S    
C18   N1    A    
C26   C28   A    
C19   C20   A    
C23   H3    S    
Cu2   O7    S    
C30   H8    S    
C17   N2    A    
Cu2   O3    S    
C6    H14   S    
C15   H18   S    
C25   H5    S    
C28   C30   A    
Cu1   O4    S    
C16   H17   S    
C26   H6    S    
C29   C31   A    
C21   C36   S    
Cu1   O8    S    
C30   C32   A    
C22   C35   S    
C9    C11   A    
C32   C34   A    
Cu1   O1    S    
C27   C38   S    
C10   C12   A    
C5    C12   A    
C4    C7    A    
Cu2   O2    S    
C32   C36   A    
C31   C35   A    
Cu1   O5    S    
C1    O1    A    
C24   C26   A    
C2    C3    S    
Cu2   O6    S    
C16   N1    A    
C23   C25   A    
C13   C15   A    
Cu1   N1    S    
C15   N2    A    
C2    O2    A    
C21   O5    A    
C1    C4    S    
C25   C27   A    
C22   O6    A    
C37   H19   S    
C6    C11   A    
C33   C36   A    
C1    O3    A    
C3    C8    A    
C9    H10   S    
C5    C7    A    
C34   C35   A    
C37   O9    D    
C10   H9    S    
C3    C10   A    
C17   H16   S    
C14   C19   A    
C17   C19   A    
C6    C8    A    
C18   H15   S    
C21   O7    A    
C4    C9    A    
Cu2   N2    S    
C14   H2    S    
C8    H11   S    
C13   C20   A    
C5    H13   S    
C13   H1    S    
C2    O4    A    
C7    H12   S    
C29   H7    S    
C28   C37   S    
C23   C33   A    
C24   C34   A    
