data_mof_unit_12858.cif
_audit_creation_date              2012-12-10T19:47:23-0500
_audit_creation_method            fapswitch 2.2
_symmetry_space_group_name_H-M    P1
_symmetry_Int_Tables_number       1
_space_group_crystal_system       triclinic
_cell_length_a                    10.825355
_cell_length_b                    10.870196
_cell_length_c                    12.71739
_cell_angle_alpha                 92.985614
_cell_angle_beta                  93.204545
_cell_angle_gamma                 90.284537
_cell_volume                      1492.08801071

loop_
_atom_site_label
_atom_site_type_symbol
_atom_type_description
_atom_site_fract_x
_atom_site_fract_y
_atom_site_fract_z
_atom_type_partial_charge
C1    C     C_R   0.261920 0.496381 0.500378 0.788815
C2    C     C_R   0.738080 0.503618 0.499622 0.788815
C3    C     C_R   0.494028 0.871706 0.497438 -0.085730
C4    C     C_R   0.505972 0.128294 0.502562 -0.085730
C5    C     C_R   0.451934 0.934213 0.407394 -0.008419
C6    C     C_R   0.548066 0.065787 0.592606 -0.008420
C7    C     C_R   0.247017 0.183958 0.706233 -0.110807
C8    C     C_R   0.752984 0.816042 0.293766 -0.110807
C9    C     C_R   0.191648 0.257342 0.630278 -0.123206
C10   C     C_R   0.808353 0.742658 0.369722 -0.123208
C11   C     C_R   0.129999 0.365492 0.661179 0.123732
C12   C     C_R   0.870001 0.634508 0.338821 0.123731
C13   C     C_R   0.124724 0.399383 0.768897 -0.146869
C14   C     C_R   0.875275 0.600615 0.231103 -0.146868
C15   C     C_R   0.181771 0.326529 0.844657 -0.147475
C16   C     C_R   0.818227 0.673469 0.155343 -0.147475
C17   C     C_R   0.242658 0.218749 0.813381 -0.109723
C18   C     C_R   0.757341 0.781249 0.186619 -0.109724
C19   C     C_R   0.938095 0.447540 0.579837 -0.245827
C20   C     C_R   0.061904 0.552460 0.420163 -0.245827
C21   C     C_R   0.871788 0.505783 0.499433 -0.076729
C22   C     C_R   0.128212 0.494217 0.500567 -0.076729
C23   C     C_R   0.503806 0.261890 0.500945 0.787046
C24   C     C_R   0.496194 0.738110 0.499055 0.787047
C25   C     C_R   0.933978 0.560404 0.419209 0.003354
C26   C     C_R   0.066022 0.439596 0.580790 0.003355
C27   C     C_2   0.471742 0.460421 0.030573 -0.271083
C28   C     C_2   0.528258 0.539579 0.969426 -0.271084
C29   C     C_1   0.522808 0.526824 0.852983 0.212944
C30   C     C_1   0.477192 0.473176 0.147017 0.212944
C31   C     C_R   0.760141 0.255158 0.787770 -0.128696
C32   C     C_R   0.239859 0.744842 0.212230 -0.128697
C33   C     C_R   0.709272 0.200492 0.692787 -0.093059
C34   C     C_R   0.290728 0.799508 0.307213 -0.093059
C35   C     C_R   0.601391 0.127838 0.692055 0.137021
C36   C     C_R   0.398609 0.872162 0.307945 0.137021
C37   C     C_R   0.548295 0.107687 0.788232 -0.154386
C38   C     C_R   0.451705 0.892313 0.211768 -0.154386
C39   C     C_R   0.598366 0.163904 0.882490 -0.144338
C40   C     C_R   0.401634 0.836095 0.117510 -0.144338
C41   C     C_R   0.704010 0.237940 0.882205 -0.106448
C42   C     C_R   0.295990 0.762060 0.117795 -0.106448
C43   C     C_R   0.540627 0.938164 0.588448 -0.252399
C44   C     C_R   0.459373 0.061836 0.411552 -0.252399
Cu1   Cu    Cu3+1 0.492140 0.492110 0.395880 0.980185
Cu2   Cu    Cu3+1 0.507860 0.507890 0.604120 0.980185
H1    H     H_    0.743187 0.280911 0.955336 0.125738
H2    H     H_    0.256813 0.719089 0.044664 0.125738
H3    H     H_    0.076687 0.482059 0.793979 0.120531
H4    H     H_    0.923311 0.517939 0.206021 0.120531
H5    H     H_    0.177989 0.353137 0.927613 0.121187
H6    H     H_    0.822008 0.646859 0.072387 0.121187
H7    H     H_    0.889512 0.403975 0.639936 0.143840
H8    H     H_    0.110488 0.596024 0.360063 0.143840
H9    H     H_    0.579923 0.617300 0.007033 0.158474
H10   H     H_    0.420077 0.382700 0.992967 0.158475
H11   H     H_    0.843615 0.310237 0.788946 0.119296
H12   H     H_    0.156385 0.689763 0.211054 0.119297
H13   H     H_    0.753962 0.213978 0.620131 0.099740
H14   H     H_    0.246038 0.786022 0.379869 0.099740
H15   H     H_    0.555845 0.149148 0.955889 0.119045
H16   H     H_    0.444155 0.850852 0.044111 0.119045
H17   H     H_    0.575032 0.890154 0.656671 0.162684
H18   H     H_    0.424968 0.109846 0.343329 0.162684
H19   H     H_    0.285709 0.161911 0.872229 0.113353
H20   H     H_    0.714290 0.838087 0.127770 0.113353
H21   H     H_    0.292278 0.099651 0.681688 0.126462
H22   H     H_    0.707723 0.900349 0.318310 0.126461
H23   H     H_    0.195169 0.229034 0.547558 0.104706
H24   H     H_    0.804833 0.770967 0.452441 0.104706
N1    N     N_1   0.480320 0.480250 0.239400 -0.153381
N2    N     N_1   0.519680 0.519750 0.760600 -0.153382
O1    O     O_R   0.313000 0.493330 0.412070 -0.585288
O2    O     O_R   0.687000 0.506670 0.587930 -0.585287
O3    O     O_R   0.326280 0.506660 0.587930 -0.565023
O4    O     O_R   0.673720 0.493340 0.412070 -0.565023
O5    O     O_R   0.493370 0.312980 0.412070 -0.588271
O6    O     O_R   0.506630 0.687020 0.587930 -0.588271
O7    O     O_R   0.506650 0.326310 0.587930 -0.561765
O8    O     O_R   0.493350 0.673690 0.412070 -0.561765
H25   H     H_    0.468286 0.048036 0.790370 0.110772
H26   H     H_    0.531714 0.951963 0.209630 0.110772

loop_
_geom_bond_atom_site_label_1
_geom_bond_atom_site_label_2
_ccdc_geom_bond_type
Cu1   N1    S    
C32   H12   S    
C30   N1    T    
C43   H17   S    
C39   C41   A    
Cu1   Cu2   S    
C44   H18   S    
C3    C43   A    
Cu1   O4    S    
C28   C29   S    
C19   C21   A    
C9    H23   S    
Cu2   O7    S    
C20   C25   A    
C5    C36   S    
C40   H16   S    
C6    C35   S    
Cu1   O1    S    
C19   C26   A    
C24   O8    A    
C7    C17   A    
C31   C33   A    
C15   H5    S    
Cu2   N2    S    
C2    O2    A    
C29   N2    T    
C19   H7    S    
C40   C42   A    
C1    C22   S    
C33   H13   S    
C38   H26   S    
C27   C30   S    
C34   H14   S    
C37   H25   S    
C3    C24   S    
Cu2   O3    S    
C28   H9    S    
C39   H15   S    
C1    O3    A    
C20   H8    S    
Cu2   O6    S    
C4    C23   S    
C27   H10   S    
C4    C44   A    
C11   C26   S    
C8    C18   A    
C32   C34   A    
C2    C21   S    
C41   H1    S    
C16   C18   A    
C42   H2    S    
C23   O5    A    
C9    C11   A    
C10   C12   A    
C13   H3    S    
C10   H24   S    
C4    C6    A    
C5    C44   A    
C20   C22   A    
C8    H22   S    
C6    C43   A    
C13   C15   A    
C14   C16   A    
Cu2   O2    S    
C2    O4    A    
C24   O6    A    
C15   C17   A    
C21   C25   A    
C31   C41   A    
C35   C37   A    
C16   H6    S    
C12   C14   A    
C3    C5    A    
C18   H20   S    
C17   H19   S    
C12   C25   S    
C1    O1    A    
C31   H11   S    
C36   C38   A    
C37   C39   A    
C38   C40   A    
C11   C13   A    
C14   H4    S    
C33   C35   A    
Cu1   O8    S    
C34   C36   A    
C7    H21   S    
C7    C9    A    
C8    C10   A    
C22   C26   A    
C27   C28   D    
C32   C42   A    
Cu1   O5    S    
C23   O7    A    
