data_mof_unit_14465.cif
_audit_creation_date              2012-10-26T20:51:12-0400
_audit_creation_method            fapswitch 2.2
_symmetry_space_group_name_H-M    P1
_symmetry_Int_Tables_number       1
_space_group_crystal_system       triclinic
_cell_length_a                    13.000233
_cell_length_b                    10.822163
_cell_length_c                    9.541427
_cell_angle_alpha                 90.068912
_cell_angle_beta                  96.419318
_cell_angle_gamma                 90.174006
_cell_volume                      1333.96531133

loop_
_atom_site_label
_atom_site_type_symbol
_atom_type_description
_atom_site_fract_x
_atom_site_fract_y
_atom_site_fract_z
_atom_type_partial_charge
C1    C     C_R   0.497921 0.262322 0.499571 0.549903
C2    C     C_R   0.474151 0.935364 0.369319 -0.160317
C3    C     C_R   0.488174 0.870822 0.497890 0.008310
C4    C     C_R   0.300372 0.497755 0.473097 0.574624
C5    C     C_R   0.487255 0.936622 0.623590 0.027034
C6    C     C_3   0.559917 0.931165 0.756233 -0.271286
C7    C     C_3   0.558842 0.071414 0.756496 -0.267450
C8    C     C_R   0.547258 0.593387 0.081028 0.158196
C9    C     C_R   0.444717 0.414978 0.065912 0.003560
C10   C     C_R   0.444692 0.414982 0.916990 -0.012982
C11   C     C_R   0.547698 0.592968 0.933627 0.159964
C12   C     C_R   0.027981 0.514386 0.563368 0.033113
C13   C     C_3   0.659815 0.625339 0.945981 -0.284309
C14   C     C_3   0.658862 0.628010 0.104561 -0.277162
C15   C     C_R   0.498313 0.737717 0.499720 0.545300
C16   C     C_R   0.699513 0.500269 0.526553 0.543111
C17   C     C_R   0.812358 0.501983 0.541765 0.004047
C18   C     C_R   0.187192 0.491864 0.456300 0.038318
C19   C     C_R   0.022637 0.447416 0.318847 -0.129352
C20   C     C_R   0.130888 0.454388 0.327809 0.237262
C21   C     C_R   0.135169 0.521510 0.572775 -0.179574
C22   C     C_R   0.971420 0.476976 0.435550 0.014979
C23   C     C_R   0.864100 0.470102 0.425975 -0.127962
C24   C     C_R   0.868890 0.538552 0.668887 -0.136028
C25   C     C_R   0.976364 0.544413 0.679860 -0.127394
C26   C     C_R   0.486709 0.063808 0.623469 0.020155
C27   C     C_R   0.487459 0.129231 0.497667 0.010385
C28   C     C_R   0.473783 0.064201 0.369206 -0.157250
Cu1   Cu    Cu3+1 0.499990 0.499980 0.640670 0.935418
Cu2   Cu    Cu3+1 0.500010 0.500020 0.359330 0.966336
H1    H     H_    0.636451 0.891876 0.739065 0.130491
H2    H     H_    0.830281 0.564950 0.758714 0.113589
H3    H     H_    0.978476 0.418598 0.221064 0.086193
H4    H     H_    0.468440 0.887064 0.269226 0.136181
H5    H     H_    0.523100 0.889993 0.845023 0.138312
H6    H     H_    0.820972 0.439903 0.328105 0.111445
H7    H     H_    0.018906 0.573498 0.778618 0.109418
H8    H     H_    0.131449 0.398912 0.133396 0.311318
H9    H     H_    0.178128 0.550745 0.671300 0.132763
H10   H     H_    0.467874 0.112184 0.269069 0.130533
H11   H     H_    0.520853 0.111213 0.844979 0.132740
H12   H     H_    0.634822 0.113419 0.740437 0.141424
H13   H     H_    0.401562 0.344744 0.115097 0.138023
H14   H     H_    0.401511 0.344738 0.854516 0.119091
H15   H     H_    0.707431 0.548676 0.911089 0.144235
H16   H     H_    0.674371 0.717229 0.900495 0.116611
H17   H     H_    0.707959 0.554869 0.158630 0.149109
H18   H     H_    0.670635 0.722051 0.150665 0.125784
N1    N     N_R   0.500660 0.500930 0.148010 -0.232831
N2    N     N_R   0.500660 0.500890 0.852110 -0.232663
O1    O     O_R   0.500000 0.319640 0.618810 -0.507047
O2    O     O_R   0.500010 0.319680 0.381230 -0.513919
O3    O     O_R   0.348990 0.499960 0.599490 -0.523878
O4    O     O_R   0.349000 0.500000 0.361910 -0.433619
O5    O     O_R   0.499990 0.680320 0.618770 -0.497776
O6    O     O_R   0.500000 0.680360 0.381190 -0.509009
O7    O     O_R   0.651000 0.500000 0.638090 -0.507661
O8    O     O_R   0.651010 0.500040 0.400510 -0.512697
O9    O     O_3   0.182523 0.422805 0.213987 -0.695110

loop_
_geom_bond_atom_site_label_1
_geom_bond_atom_site_label_2
_ccdc_geom_bond_type
C8    C14   S    
C24   H2    S    
C6    C7    S    
C4    O3    A    
C18   C21   A    
C11   C13   S    
C9    C10   A    
C19   C20   A    
C21   H9    S    
C12   C25   A    
C16   O7    A    
C4    C18   S    
C15   O6    A    
C2    H4    S    
C2    C3    A    
C3    C15   S    
C11   N2    A    
C16   O8    A    
C13   C14   S    
C24   C25   A    
C20   O9    S    
C13   H15   S    
Cu2   O4    S    
C26   C27   A    
C17   C23   A    
C7    C26   S    
Cu1   O3    S    
C8    C11   A    
Cu2   O8    S    
C8    N1    A    
Cu2   N1    S    
Cu1   O7    S    
C6    H1    S    
C18   C20   A    
Cu1   N2    S    
C7    H11   S    
Cu1   O1    S    
C5    C6    S    
C1    O2    A    
C9    H13   S    
C17   C24   A    
C28   H10   S    
C10   H14   S    
C5    C26   A    
C10   N2    A    
C12   C22   A    
C19   C22   A    
C9    N1    A    
C6    H5    S    
C23   H6    S    
C19   H3    S    
C7    H12   S    
C27   C28   A    
C1    C27   S    
C14   H18   S    
Cu2   O2    S    
C13   H16   S    
C2    C28   A    
C1    O1    A    
Cu1   O5    S    
C25   H7    S    
C22   C23   A    
C14   H17   S    
Cu2   O6    S    
C12   C21   A    
C4    O4    A    
Cu1   Cu2   S    
H8    O9    S    
C16   C17   S    
C3    C5    A    
C15   O5    A    
