data_mof_unit_24995.cif
_audit_creation_date              2012-12-10T20:26:23-0500
_audit_creation_method            fapswitch 2.2
_symmetry_space_group_name_H-M    P1
_symmetry_Int_Tables_number       1
_space_group_crystal_system       triclinic
_cell_length_a                    10.725074
_cell_length_b                    10.682237
_cell_length_c                    9.926643
_cell_angle_alpha                 89.718799
_cell_angle_beta                  90.960406
_cell_angle_gamma                 90.859699
_cell_volume                      1136.97337326

loop_
_atom_site_label
_atom_site_type_symbol
_atom_type_description
_atom_site_fract_x
_atom_site_fract_y
_atom_site_fract_z
_atom_type_partial_charge
C1    C     C_R   0.504236 0.260049 0.500240 0.870205
C2    C     C_R   0.525818 0.128802 0.500165 -0.107895
C3    C     C_R   0.541618 0.065860 0.377859 -0.215809
C4    C     C_R   0.542194 0.936374 0.377412 -0.217808
C5    C     C_R   0.526908 0.871380 0.499261 -0.116952
C6    C     C_R   0.536681 0.935402 0.620745 0.200570
C7    C     C_3   0.459144 0.924930 0.743929 -0.438433
C8    C     C_3   0.458178 0.066608 0.744500 -0.519540
C9    C     C_R   0.394624 0.468674 0.069034 0.203644
C10   C     C_R   0.598253 0.545389 0.076285 -0.209396
C11   C     C_R   0.599239 0.549171 0.933589 0.454852
C12   C     C_R   0.262938 0.503524 0.499080 0.922868
C13   C     C_R   0.394432 0.468952 0.927184 0.138100
C14   C     C_3   0.322606 0.348830 0.921121 -0.479211
C15   C     C_3   0.323471 0.348039 0.074297 -0.475575
C16   C     C_R   0.504727 0.739872 0.499651 0.894964
C17   C     C_R   0.737301 0.497741 0.500526 0.952456
C18   C     C_2   0.931395 0.510511 0.386816 -0.159759
C19   C     C_2   0.869143 0.487643 0.500205 -0.314410
C20   C     C_2   0.065267 0.502857 0.384884 -0.146898
C21   C     C_2   0.131823 0.518012 0.498203 -0.332980
C22   C     C_R   0.536220 0.063207 0.621335 0.134997
H1    H     H_    0.883979 0.533421 0.292469 0.194643
H2    H     H_    0.510326 0.107228 0.831988 0.213364
H3    H     H_    0.677502 0.578349 0.135356 0.205346
H4    H     H_    0.228070 0.360760 0.875694 0.217192
H5    H     H_    0.377492 0.272687 0.877873 0.206979
H6    H     H_    0.229280 0.359365 0.117113 0.202550
H7    H     H_    0.378926 0.270827 0.119435 0.209761
H8    H     H_    0.913721 0.457019 0.593089 0.190212
H9    H     H_    0.108811 0.485288 0.288915 0.177044
H10   H     H_    0.090954 0.544048 0.593070 0.168759
H11   H     H_    0.544041 0.115188 0.282299 0.176382
H12   H     H_    0.544846 0.888304 0.281679 0.185693
H13   H     H_    0.365694 0.881816 0.723678 0.198142
H14   H     H_    0.511728 0.884253 0.830709 0.236146
H15   H     H_    0.364002 0.105304 0.724085 0.206775
N1    N     N_R   0.499170 0.499140 0.142800 -0.142553
N2    N     N_R   0.499170 0.499180 0.857150 -0.171694
O1    O     O_R   0.500020 0.316790 0.614690 -0.621031
O2    O     O_R   0.500000 0.316760 0.385350 -0.624762
O3    O     O_R   0.319080 0.500020 0.614640 -0.623629
O4    O     O_R   0.319070 0.499980 0.385300 -0.612449
O5    O     O_R   0.500000 0.683240 0.614650 -0.571329
O6    O     O_R   0.499980 0.683210 0.385310 -0.627661
O7    O     O_R   0.680930 0.500020 0.614700 -0.524823
O8    O     O_R   0.680920 0.499980 0.385360 -0.638392
Zn1   Zn    Zn3+2 0.500010 0.500020 0.653130 1.014190
Zn2   Zn    Zn3+2 0.499990 0.499980 0.346870 0.950432
S1    S     S_3+6 0.738102 0.617869 0.868381 0.015610
O9    O     O_2   0.802807 0.694756 0.975946 -0.338014
O10   O     O_2   0.824393 0.515015 0.829739 -0.330763
O11   O     O_3   0.711916 0.713863 0.737094 -0.546317
H16   H     H_    0.795804 0.738684 0.705232 0.366209

loop_
_geom_bond_atom_site_label_1
_geom_bond_atom_site_label_2
_ccdc_geom_bond_type
C16   O6    A    
C2    C22   A    
S1    O10   D    
C17   O7    A    
C6    C7    S    
C8    H2    S    
C14   H5    S    
C7    H14   S    
C16   O5    A    
C8    C22   S    
O6    Zn2   S    
C10   N1    A    
C2    C3    A    
C9    C15   S    
C7    C8    S    
O8    Zn2   S    
N1    Zn2   S    
O3    Zn1   S    
C13   C14   S    
C14   H4    S    
C11   N2    A    
C15   H6    S    
C10   H3    S    
O2    Zn2   S    
C9    N1    A    
C17   C19   S    
C15   H7    S    
C12   O4    A    
C18   C20   S    
C5    C6    A    
C21   H10   S    
C4    H12   S    
C13   N2    A    
S1    O11   S    
C10   C11   A    
C3    H11   S    
C18   H1    S    
C6    C22   A    
O7    Zn1   S    
C17   O8    A    
O5    Zn1   S    
C20   C21   D    
O1    Zn1   S    
C1    C2    S    
C8    H15   S    
C1    O2    A    
C11   S1    S    
C9    C13   A    
C14   C15   S    
C18   C19   D    
C5    C16   S    
C12   O3    A    
C1    O1    A    
S1    O9    D    
O11   H16   S    
C19   H8    S    
C7    H13   S    
C12   C21   S    
O4    Zn2   S    
C3    C4    A    
C4    C5    A    
N2    Zn1   S    
C20   H9    S    
