data_mof_unit_67420.cif
_audit_creation_date              2012-12-10T16:41:54-0500
_audit_creation_method            fapswitch 2.2
_symmetry_space_group_name_H-M    P1
_symmetry_Int_Tables_number       1
_space_group_crystal_system       triclinic
_cell_length_a                    10.938223
_cell_length_b                    8.763544
_cell_length_c                    7.615332
_cell_angle_alpha                 103.732507
_cell_angle_beta                  95.461433
_cell_angle_gamma                 96.32838
_cell_volume                      699.211039666

loop_
_atom_site_label
_atom_site_type_symbol
_atom_type_description
_atom_site_fract_x
_atom_site_fract_y
_atom_site_fract_z
_atom_type_partial_charge
C1    C     C_R   0.494786 0.200126 0.453215 0.794396
C2    C     C_2   0.527721 0.969235 0.566838 -0.260525
C3    C     C_R   0.266749 0.501817 0.500278 0.776174
C4    C     C_R   0.505754 0.800013 0.546950 0.883386
C5    C     C_R   0.732949 0.490810 0.498434 0.912937
C6    C     C_2   0.924586 0.434773 0.355067 0.199613
C7    C     C_2   0.858370 0.450773 0.496948 -0.321072
C8    C     C_2   0.051531 0.402231 0.393116 0.073564
C9    C     C_2   0.137346 0.519884 0.499428 -0.210195
C10   C     C_2   0.476412 0.031102 0.433251 -0.228656
Cu1   Cu    Cu3+1 0.513740 0.517380 0.684380 1.031175
Cu2   Cu    Cu3+1 0.486260 0.482620 0.315620 1.002451
H1    H     H_    0.900076 0.430297 0.623185 0.133516
N1    N     N_2   0.465540 0.456420 0.038510 -0.095883
N2    N     N_2   0.534460 0.543580 0.961490 -0.183847
O1    O     O_R   0.508930 0.286130 0.619780 -0.610031
O2    O     O_R   0.485720 0.256780 0.308360 -0.570959
O3    O     O_R   0.333540 0.514670 0.655670 -0.601493
O4    O     O_R   0.310330 0.485320 0.344250 -0.593270
O5    O     O_R   0.514280 0.743220 0.691640 -0.513928
O6    O     O_R   0.491070 0.713870 0.380220 -0.535998
O7    O     O_R   0.689670 0.514680 0.655750 -0.556449
O8    O     O_R   0.666460 0.485330 0.344330 -0.568954
C11   C     C_3   0.881996 0.472067 0.175737 -0.306809
C12   C     C_3   0.980354 0.473059 0.045599 -0.856612
H2    H     H_    0.068327 0.546519 0.116700 0.271257
H3    H     H_    0.997558 0.350843 0.983121 0.233020
H4    H     H_    0.946594 0.526087 0.934818 0.251805
H5    H     H_    0.799973 0.386245 0.103583 0.212363
H6    H     H_    0.856622 0.593172 0.208211 0.241617
C13   C     C_3   0.078236 0.232844 0.320132 -0.398603
C14   C     C_3   0.992543 0.113253 0.384655 -0.761589
H7    H     H_    0.002312 0.142913 0.535942 0.243269
H8    H     H_    0.894388 0.112102 0.330632 0.268012
H9    H     H_    0.017618 0.992585 0.334020 0.271981
H10   H     H_    0.065602 0.201462 0.169195 0.217002
H11   H     H_    0.174491 0.217366 0.365305 0.188863
C15   C     C_2   0.110439 0.680469 0.595127 0.852078
O9    O     O_2   0.176395 0.754741 0.734772 -0.566745
O10   O     O_R   0.014252 0.749780 0.524347 -0.777072
H12   H     H_    0.006278 0.857786 0.604078 0.333819
C16   C     C_2   0.378353 0.938859 0.286189 0.858665
O11   O     O_2   0.396644 0.917265 0.126936 -0.540451
O12   O     O_R   0.266703 0.873955 0.331379 -0.773666
H13   H     H_    0.207531 0.813071 0.220016 0.340166
C17   C     C_2   0.628383 0.059473 0.712463 0.887045
O13   O     O_2   0.627777 0.046003 0.868583 -0.548342
O14   O     O_R   0.725619 0.155783 0.668883 -0.780548
H14   H     H_    0.789110 0.208968 0.778170 0.320938
C18   C     C_3   0.350771 0.364745 0.935544 -0.104239
C19   C     C_3   0.318739 0.208209 0.984356 -0.745182
H15   H     H_    0.398826 0.140781 0.971129 0.308710
H16   H     H_    0.290556 0.226226 0.121975 0.253004
H17   H     H_    0.238812 0.136317 0.888099 0.214974
H18   H     H_    0.273190 0.436201 0.957470 0.176690
H19   H     H_    0.357462 0.325013 0.791664 0.212860
C20   C     C_2   0.636516 0.665223 0.047996 1.071229
O15   O     O_2   0.696092 0.728538 0.950772 -0.572512
O16   O     O_R   0.669437 0.721779 0.234008 -0.762154
H20   H     H_    0.739293 0.813963 0.268878 0.309205

loop_
_geom_bond_atom_site_label_1
_geom_bond_atom_site_label_2
_ccdc_geom_bond_type
Cu2   O2    S    
C2    C4    S    
Cu1   Cu2   S    
Cu1   O3    S    
C3    O4    A    
C6    C7    D    
C3    C9    S    
C10   C16   S    
C18   H19   S    
Cu1   O1    S    
Cu1   O7    S    
C1    O2    A    
C18   H18   S    
C5    O8    A    
C19   H17   S    
C6    C11   S    
C14   H7    S    
N1    N2    D    
C18   C19   S    
O16   H20   S    
C1    O1    A    
C11   C12   S    
C12   H4    S    
C15   O10   S    
C4    O6    A    
N2    C20   S    
Cu2   O8    S    
C20   O15   D    
N1    C18   S    
C16   O12   S    
O14   H14   S    
Cu2   O4    S    
C9    C15   S    
Cu2   N1    S    
C11   H6    S    
C15   O9    D    
C17   O14   S    
Cu1   O5    S    
C20   O16   S    
C12   H3    S    
C16   O11   D    
C1    C10   S    
C19   H15   S    
C4    O5    A    
C14   H9    S    
C11   H5    S    
C7    H1    S    
O12   H13   S    
C3    O3    A    
C5    C7    S    
C13   H10   S    
O10   H12   S    
C6    C8    S    
C12   H2    S    
C17   O13   D    
C8    C13   S    
Cu1   N2    S    
Cu2   O6    S    
C2    C10   D    
C2    C17   S    
C5    O7    A    
C13   C14   S    
C13   H11   S    
C8    C9    D    
C19   H16   S    
C14   H8    S    
