data_mof_unit_32233.cif
_audit_creation_date              2012-12-11T17:23:09-0500
_audit_creation_method            fapswitch 2.2
_symmetry_space_group_name_H-M    P1
_symmetry_Int_Tables_number       1
_space_group_crystal_system       triclinic
_cell_length_a                    22.402547
_cell_length_b                    7.096002
_cell_length_c                    19.39447
_cell_angle_alpha                 90.164048
_cell_angle_beta                  99.580155
_cell_angle_gamma                 90.166428
_cell_volume                      3040.08196914

loop_
_atom_site_label
_atom_site_type_symbol
_atom_type_description
_atom_site_fract_x
_atom_site_fract_y
_atom_site_fract_z
_atom_type_partial_charge
O1    O     O_R   0.443980 0.494320 0.557430 -0.533343
O2    O     O_R   0.556020 0.994320 0.442570 -0.536226
O3    O     O_R   0.441210 0.822520 0.414610 -0.538584
O4    O     O_R   0.558790 0.322520 0.585390 -0.533569
C1    C     C_R   0.426725 0.654721 0.388752 0.703629
C2    C     C_R   0.573310 0.156010 0.611315 0.704338
O5    O     O_R   0.436920 0.823940 0.555180 -0.537140
O6    O     O_R   0.563080 0.323940 0.444820 -0.535524
O7    O     O_R   0.551700 0.995760 0.584140 -0.539641
O8    O     O_R   0.448300 0.495760 0.415860 -0.531046
C3    C     C_R   0.421592 0.655368 0.574852 0.724578
C4    C     C_R   0.578424 0.155418 0.425153 0.727057
O9    O     O_3   0.537660 0.661290 0.509340 -0.371156
O10   O     O_3   0.462340 0.161290 0.490660 -0.366846
V1    V     V_3+5 0.493010 0.935560 0.498270 1.461308
V2    V     V_3+5 0.506990 0.435560 0.501730 1.476112
H1    H     H_    0.707884 0.817588 0.294181 0.116306
H2    H     H_    0.291643 0.317450 0.705347 0.117368
C5    C     C_R   0.769154 0.931950 0.230326 -0.148683
C6    C     C_R   0.230592 0.431918 0.769429 -0.149902
H3    H     H_    0.783470 0.794039 0.215535 0.112902
H4    H     H_    0.216049 0.294027 0.783994 0.113123
C7    C     C_R   0.793493 0.095251 0.204850 0.133938
C8    C     C_R   0.206535 0.595265 0.795191 0.133862
C9    C     C_R   0.774107 0.272176 0.225004 -0.150282
C10   C     C_R   0.226210 0.772161 0.775326 -0.149598
H5    H     H_    0.792308 0.399982 0.206041 0.113433
H6    H     H_    0.208230 0.900002 0.794512 0.113684
C11   C     C_R   0.731038 0.285621 0.269897 -0.140970
C12   C     C_R   0.269285 0.785533 0.730436 -0.145171
H7    H     H_    0.716722 0.423533 0.284690 0.115036
H8    H     H_    0.283826 0.923426 0.715867 0.115188
C13   C     C_R   0.706697 0.122320 0.295372 0.136178
C14   C     C_R   0.293342 0.622187 0.704671 0.135060
C15   C     C_R   0.726084 0.945396 0.275218 -0.142147
C16   C     C_R   0.273667 0.445290 0.724538 -0.139392
C17   C     C_1   0.838411 0.081616 0.158586 -0.053675
C18   C     C_1   0.161602 0.581702 0.841444 -0.053541
C19   C     C_1   0.661779 0.135942 0.341638 -0.034646
C20   C     C_1   0.338257 0.635757 0.658395 -0.036510
C21   C     C_1   0.624023 0.145952 0.379949 -0.154376
C22   C     C_1   0.376005 0.645788 0.620072 -0.155770
C23   C     C_1   0.876171 0.071579 0.120283 -0.181762
C24   C     C_1   0.123831 0.571688 0.879735 -0.181368
C25   C     C_R   0.635706 0.221713 0.802158 -0.160838
C26   C     C_R   0.368559 0.609374 0.196031 -0.158862
H9    H     H_    0.548661 0.249611 0.737846 0.107302
H10   H     H_    0.456082 0.627744 0.260209 0.106210
H11   H     H_    0.718078 0.216964 0.916935 0.122216
H12   H     H_    0.286513 0.595515 0.080988 0.122232
H13   H     H_    0.618356 0.261167 0.849091 0.114246
H14   H     H_    0.387643 0.603705 0.148252 0.114108
C27   C     C_R   0.615848 0.153128 0.678266 -0.064583
C28   C     C_R   0.384496 0.642227 0.321811 -0.060867
C29   C     C_R   0.910794 0.041827 0.760610 -0.237358
C30   C     C_R   0.088510 0.554976 0.239469 -0.238363
C31   C     C_R   0.876191 0.064763 0.694883 -0.109533
C32   C     C_R   0.124668 0.534563 0.304390 -0.111686
C33   C     C_R   0.814672 0.108607 0.687022 0.377144
C34   C     C_R   0.187761 0.536554 0.311549 0.376614
C35   C     C_R   0.784890 0.114966 0.746687 -0.009571
C36   C     C_R   0.216427 0.576663 0.252639 -0.008290
C37   C     C_R   0.822432 0.107971 0.814445 0.027405
C38   C     C_R   0.178517 0.581827 0.185106 0.027850
C39   C     C_R   0.720448 0.136923 0.742776 0.094927
C40   C     C_R   0.280782 0.602093 0.256728 0.094755
C41   C     C_R   0.697425 0.182309 0.804820 0.135137
C42   C     C_R   0.305633 0.600501 0.193853 0.134590
C43   C     C_R   0.735748 0.185549 0.869446 -0.195266
C44   C     C_R   0.267707 0.593707 0.128999 -0.194016
C45   C     C_R   0.796720 0.142911 0.874512 -0.164136
C46   C     C_R   0.205255 0.590698 0.124611 -0.162443
C47   C     C_R   0.677363 0.108558 0.680766 -0.150391
C48   C     C_R   0.321467 0.637557 0.320039 -0.142040
C49   C     C_R   0.595738 0.212891 0.739057 -0.168852
C50   C     C_R   0.407639 0.625078 0.259618 -0.171196
C51   C     C_R   0.885467 0.070238 0.820756 -0.080016
C52   C     C_R   0.114422 0.571537 0.179219 -0.078764
H15   H     H_    0.689809 0.047438 0.634395 0.173386
H16   H     H_    0.305556 0.669614 0.368081 0.172296
H17   H     H_    0.958665 0.011910 0.764600 0.132076
H18   H     H_    0.039758 0.546614 0.235756 0.131182
H19   H     H_    0.898391 0.057201 0.649421 0.170510
H20   H     H_    0.103121 0.506509 0.349348 0.169873
H21   H     H_    0.823975 0.141733 0.926152 0.105832
H22   H     H_    0.177959 0.591220 0.072989 0.103359
O11   O     O_R   0.051730 0.724670 0.084120 -0.533922
O12   O     O_R   0.948270 0.224670 0.915880 -0.533256
O13   O     O_R   0.063080 0.393540 0.944820 -0.536585
O14   O     O_R   0.936920 0.893540 0.055180 -0.536542
C53   C     C_R   0.078215 0.562132 0.924910 0.715949
C54   C     C_R   0.921776 0.062096 0.075095 0.715715
O15   O     O_R   0.058800 0.395030 0.085390 -0.535384
O16   O     O_R   0.941200 0.895030 0.914610 -0.536264
O17   O     O_R   0.943980 0.223310 0.057440 -0.534615
O18   O     O_R   0.056020 0.723310 0.942560 -0.534028
C55   C     C_R   0.072934 0.563928 0.111288 0.696905
C56   C     C_R   0.926935 0.063165 0.888745 0.696374
O19   O     O_3   0.962360 0.556290 0.990650 -0.370319
O20   O     O_3   0.037640 0.056290 0.009350 -0.369836
V3    V     V_3+5 0.006980 0.281990 0.001730 1.436388
V4    V     V_3+5 0.993020 0.781990 0.998270 1.436109
Cl1   Cl    Cl    0.783347 0.192022 0.603142 -0.666013
Cl2   Cl    Cl    0.225233 0.446653 0.391976 -0.669093

loop_
_geom_bond_atom_site_label_1
_geom_bond_atom_site_label_2
_ccdc_geom_bond_type
C40   C42   A    
C17   C23   T    
O18   V4    S    
H10   C50   S    
O1    C3    A    
C38   C46   A    
O2    C4    A    
C2    O7    A    
C26   C50   A    
O12   V3    S    
C39   C47   A    
C19   C21   T    
O5    C3    A    
C13   C19   S    
C14   C20   S    
C5    H3    S    
C8    C10   A    
C29   C51   A    
C31   C33   A    
O16   C56   A    
C32   C34   A    
C40   C48   A    
C11   C13   A    
C30   C52   A    
C3    C22   S    
C34   C36   A    
C43   C45   A    
O14   V4    S    
C36   C38   A    
C26   C42   A    
C28   C48   A    
C6    C8    A    
C39   C41   A    
C25   C41   A    
C8    C18   S    
C31   H19   S    
O13   C53   A    
C20   C22   T    
C53   O18   A    
O6    V2    S    
C48   H16   S    
C27   C49   A    
C9    C11   A    
C33   C35   A    
C44   C46   A    
C36   C40   A    
C1    C28   S    
O4    C2    A    
O15   V3    S    
C12   C14   A    
C7    C17   S    
C54   O17   A    
C41   C43   A    
O4    V2    S    
C5    C7    A    
C18   C24   T    
C4    C21   S    
C32   H20   S    
O11   V4    S    
O14   C54   A    
O6    C4    A    
C52   C55   S    
O20   V4    S    
C47   H15   S    
C51   C56   S    
O1    V2    S    
O2    V1    S    
C24   C53   S    
C28   C50   A    
O19   V3    S    
C6    H4    S    
C5    C15   A    
C10   C12   A    
C29   C31   A    
C29   H17   S    
C2    C27   S    
O15   C55   A    
O3    V1    S    
C37   C51   A    
O13   V3    S    
C38   C52   A    
C35   C37   A    
C27   C47   A    
C37   C45   A    
O3    C1    A    
C46   H22   S    
C30   H18   S    
C9    H5    S    
C10   H6    S    
C23   C54   S    
C25   C49   A    
C33   Cl1   S    
H12   C44   S    
H9    C49   S    
C1    O8    A    
C11   H7    S    
O8    V2    S    
C26   H14   S    
C12   H8    S    
C45   H21   S    
O5    V1    S    
O20   V3    S    
C13   C15   A    
C30   C32   A    
C14   C16   A    
C7    C9    A    
O7    V1    S    
C6    C16   A    
C35   C39   A    
O19   V4    S    
O16   V4    S    
C42   C44   A    
O9    V2    S    
C25   H13   S    
O10   V1    S    
H11   C43   S    
H1    C15   S    
C34   Cl2   S    
H2    C16   S    
O12   C56   A    
O17   V3    S    
O11   C55   A    
