data_mof_unit_50419.cif
_audit_creation_date              2012-12-10T17:20:51-0500
_audit_creation_method            fapswitch 2.2
_symmetry_space_group_name_H-M    P1
_symmetry_Int_Tables_number       1
_space_group_crystal_system       triclinic
_cell_length_a                    14.333354
_cell_length_b                    10.768933
_cell_length_c                    9.658038
_cell_angle_alpha                 89.270157
_cell_angle_beta                  89.991719
_cell_angle_gamma                 93.804337
_cell_volume                      1487.35938004

loop_
_atom_site_label
_atom_site_type_symbol
_atom_type_description
_atom_site_fract_x
_atom_site_fract_y
_atom_site_fract_z
_atom_type_partial_charge
C1    C     C_R   0.499014 0.262960 0.500781 0.830996
C2    C     C_1   0.771024 0.499161 0.500242 -0.198858
C3    C     C_R   0.327369 0.114343 0.557585 -0.167450
C4    C     C_R   0.244744 0.041953 0.583435 -0.132790
C5    C     C_R   0.244306 0.912676 0.581654 -0.135221
C6    C     C_R   0.326504 0.855073 0.554090 -0.152705
C7    C     C_R   0.411023 0.926558 0.527973 0.095151
C8    C     C_R   0.411526 0.057777 0.529798 0.035858
C9    C     C_R   0.496113 0.128816 0.502500 -0.091834
C10   C     C_R   0.579087 0.071488 0.475813 0.148655
C11   C     C_R   0.578213 0.942566 0.476012 -0.273498
C12   C     C_R   0.331277 0.498676 0.500052 0.774478
C13   C     C_R   0.495158 0.870619 0.499500 -0.105416
C14   C     C_R   0.648619 0.647104 0.130771 0.212915
C15   C     C_R   0.724179 0.692399 0.048574 -0.238018
C16   C     C_R   0.716461 0.695897 0.907895 -0.247336
C17   C     C_R   0.635981 0.646487 0.847398 -0.111310
C18   C     C_R   0.567904 0.572102 0.922235 0.121713
C19   C     C_R   0.570508 0.571999 0.071751 0.180068
C20   C     C_R   0.435731 0.430545 0.075153 -0.118484
C21   C     C_R   0.436060 0.429217 0.927460 0.259844
C22   C     C_R   0.499291 0.737101 0.499536 0.786604
C23   C     C_R   0.668644 0.499448 0.500078 0.816505
C24   C     C_1   0.228875 0.498584 0.500143 -0.203290
C25   C     C_1   0.143410 0.498701 0.500260 -0.016423
C26   C     C_1   0.042690 0.498871 0.500335 -0.004850
C27   C     C_1   0.957212 0.498981 0.500344 -0.002513
C28   C     C_1   0.856488 0.499071 0.500306 -0.014743
Cu1   Cu    Cu3+1 0.499990 0.499990 0.640660 0.955005
Cu2   Cu    Cu3+1 0.500010 0.500010 0.359340 0.960311
H1    H     H_    0.770225 0.745430 0.845912 0.156948
H2    H     H_    0.631098 0.670423 0.741101 0.196909
H3    H     H_    0.324630 0.214486 0.559431 0.128299
H4    H     H_    0.180786 0.086359 0.604690 0.135044
H5    H     H_    0.180014 0.856765 0.601528 0.136740
H6    H     H_    0.323246 0.754606 0.553357 0.123874
H7    H     H_    0.643040 0.898532 0.459584 0.127978
H8    H     H_    0.383203 0.373278 0.131317 0.140042
H9    H     H_    0.783991 0.742965 0.094860 0.148972
N1    N     N_R   0.500820 0.501210 0.147910 -0.185964
N2    N     N_R   0.500850 0.501290 0.852040 -0.179009
O1    O     O_R   0.499990 0.319640 0.618810 -0.550748
O2    O     O_R   0.500000 0.319660 0.381240 -0.567016
O3    O     O_R   0.376050 0.499990 0.618810 -0.533255
O4    O     O_R   0.376060 0.500010 0.381240 -0.563020
O5    O     O_R   0.500000 0.680340 0.618760 -0.600301
O6    O     O_R   0.500010 0.680360 0.381190 -0.535629
O7    O     O_R   0.623940 0.499990 0.618760 -0.579284
O8    O     O_R   0.623950 0.500010 0.381190 -0.529215
N3    N     N_3   0.664698 0.144776 0.450247 -0.597544
H10   H     H_    0.713470 0.120553 0.524694 0.216388
H11   H     H_    0.689921 0.120968 0.353198 0.221366
N4    N     N_3   0.368083 0.350536 0.856513 -0.531857
H12   H     H_    0.375333 0.258838 0.889511 0.199010
H13   H     H_    0.301709 0.375120 0.886260 0.193055
N5    N     N_3   0.647135 0.704517 0.262008 -0.517018
H14   H     H_    0.712008 0.698389 0.310557 0.181831
H15   H     H_    0.638580 0.799178 0.244584 0.200040

loop_
_geom_bond_atom_site_label_1
_geom_bond_atom_site_label_2
_ccdc_geom_bond_type
C14   N5    S    
Cu1   Cu2   S    
C12   O4    A    
Cu1   O1    S    
C20   H8    S    
C9    C10   A    
C12   C24   S    
Cu2   O4    S    
N3    H11   S    
Cu1   O5    S    
Cu1   N2    S    
C22   O6    A    
Cu2   N1    S    
C7    C8    A    
C12   O3    A    
N4    H12   S    
C24   C25   T    
C16   H1    S    
C21   N4    S    
C11   C13   A    
C15   H9    S    
C26   C27   T    
C6    C7    A    
N5    H14   S    
C21   N2    A    
C4    C5    A    
C5    H5    S    
Cu2   O6    S    
C22   O5    A    
Cu2   O8    S    
C6    H6    S    
C13   C22   S    
C17   C18   A    
N4    H13   S    
Cu1   O3    S    
C5    C6    A    
C20   N1    A    
C4    H4    S    
Cu2   O2    S    
C23   O8    A    
C19   N1    A    
C3    H3    S    
Cu1   O7    S    
C15   C16   A    
C10   N3    S    
C1    O1    A    
C7    C13   A    
C1    C9    S    
C20   C21   A    
C3    C8    A    
C18   C19   A    
C10   C11   A    
C18   N2    A    
C2    C23   S    
C11   H7    S    
C17   H2    S    
C14   C15   A    
C16   C17   A    
C2    C28   T    
C23   O7    A    
N3    H10   S    
C25   C26   S    
C14   C19   A    
C1    O2    A    
C3    C4    A    
N5    H15   S    
C8    C9    A    
C27   C28   S    
