data_mof_unit_67950.cif
_audit_creation_date              2012-12-10T20:25:41-0500
_audit_creation_method            fapswitch 2.2
_symmetry_space_group_name_H-M    P1
_symmetry_Int_Tables_number       1
_space_group_crystal_system       triclinic
_cell_length_a                    8.608914
_cell_length_b                    10.785223
_cell_length_c                    9.973455
_cell_angle_alpha                 89.088783
_cell_angle_beta                  98.557543
_cell_angle_gamma                 91.476986
_cell_volume                      915.343921425

loop_
_atom_site_label
_atom_site_type_symbol
_atom_type_description
_atom_site_fract_x
_atom_site_fract_y
_atom_site_fract_z
_atom_type_partial_charge
C1    C     C_R   0.509262 0.260702 0.501533 0.920424
C2    C     C_R   0.478381 0.937734 0.369562 -0.122590
C3    C     C_R   0.471231 0.870908 0.491373 -0.145406
C4    C     C_R   0.451848 0.937106 0.604754 -0.130714
C5    C     C_3   0.416670 0.925807 0.748029 0.321899
C6    C     C_3   0.450352 0.067285 0.754014 0.377561
C7    C     C_R   0.425676 0.407264 0.063319 0.164135
C8    C     C_R   0.583758 0.587420 0.079853 -0.129885
C9    C     C_R   0.591167 0.582738 0.937467 0.450755
C10   C     C_R   0.425638 0.406850 0.921712 0.196794
C11   C     C_3   0.255531 0.369494 0.895752 -0.559249
C12   C     C_R   0.201576 0.500110 0.464304 0.952735
C13   C     C_3   0.255163 0.373295 0.048550 -0.267785
C14   C     C_R   0.488974 0.739018 0.497455 0.885174
C15   C     C_R   0.798361 0.501307 0.535459 0.992349
C16   C     C_2   0.036180 0.498682 0.445157 -0.281021
C17   C     C_2   0.963585 0.505659 0.553618 -0.425995
C18   C     C_R   0.476368 0.060097 0.609296 -0.158833
C19   C     C_R   0.514158 0.128047 0.499926 -0.158554
C20   C     C_R   0.530474 0.063277 0.379613 -0.096396
H1    H     H_    0.974602 0.490156 0.342149 0.202637
H2    H     H_    0.182008 0.440098 0.838231 0.190652
H3    H     H_    0.235592 0.276046 0.851772 0.208693
H4    H     H_    0.182662 0.447654 0.080541 0.168758
H5    H     H_    0.025035 0.515753 0.655970 0.146249
H6    H     H_    0.501092 0.869361 0.816932 0.197986
H7    H     H_    0.345298 0.121706 0.762910 0.129525
N1    N     N_R   0.498950 0.499140 0.142680 -0.191559
N2    N     N_R   0.498950 0.499180 0.857030 -0.164909
O1    O     O_R   0.500020 0.316790 0.614690 -0.618213
O2    O     O_R   0.500000 0.316760 0.385350 -0.598966
O3    O     O_R   0.271760 0.500010 0.587850 -0.635670
O4    O     O_R   0.271740 0.499970 0.358500 -0.615770
O5    O     O_R   0.500000 0.683240 0.614650 -0.604401
O6    O     O_R   0.499980 0.683210 0.385310 -0.598335
O7    O     O_R   0.728260 0.500030 0.641500 -0.651023
O8    O     O_R   0.728240 0.499990 0.412150 -0.548311
Zn1   Zn    Zn3+2 0.500010 0.500020 0.653130 0.967630
Zn2   Zn    Zn3+2 0.499990 0.499980 0.346870 1.005745
O9    O     O_3   0.681880 0.670110 0.878756 -0.612040
C21   C     C_3   0.838050 0.628729 0.883480 0.108511
H8    H     H_    0.879516 0.665108 0.790183 0.169216
H9    H     H_    0.846524 0.525628 0.882393 0.127871
C22   C     C_3   0.949443 0.679315 0.006293 -0.443478
H10   H     H_    0.913761 0.773434 0.030596 0.260142
H11   H     H_    0.941384 0.616699 0.094542 0.227531
C23   C     C_3   0.121528 0.687313 0.983305 -0.919315
H12   H     H_    0.144222 0.627284 0.900212 0.244024
H13   H     H_    0.200309 0.660995 0.077277 0.283817
H14   H     H_    0.154175 0.783537 0.957735 0.319331
C24   C     C_2   0.226208 0.250672 0.114140 0.968069
O10   O     O_2   0.295815 0.159597 0.086802 -0.563411
O11   O     O_R   0.120991 0.241741 0.207984 -0.841066
H15   H     H_    0.112442 0.154630 0.246444 0.332833
C25   C     C_2   0.626935 0.118116 0.280167 0.929523
O12   O     O_2   0.598493 0.093375 0.160059 -0.537702
O13   O     O_R   0.754661 0.197091 0.326007 -0.818542
H16   H     H_    0.810191 0.230140 0.249590 0.353509
C26   C     C_2   0.360754 0.899586 0.252128 0.981488
O14   O     O_2   0.380739 0.921527 0.135529 -0.505459
O15   O     O_R   0.219865 0.843463 0.277819 -0.856083
H17   H     H_    0.136327 0.841631 0.195240 0.337401
O16   O     O_3   0.257820 0.903263 0.767540 -0.651065
C27   C     C_3   0.163283 0.836288 0.663464 0.095073
H18   H     H_    0.079497 0.777924 0.711956 0.153043
H19   H     H_    0.228773 0.770282 0.610746 0.159324
C28   C     C_3   0.067801 0.925452 0.563870 -0.387129
H20   H     H_    0.013652 0.996309 0.620667 0.226497
H21   H     H_    0.145623 0.974527 0.500130 0.247327
C29   C     C_3   0.937472 0.856376 0.472236 -0.822737
H22   H     H_    0.987931 0.781890 0.417813 0.308138
H23   H     H_    0.875611 0.921881 0.396767 0.258712
H24   H     H_    0.850968 0.814592 0.533108 0.243212
O17   O     O_3   0.581018 0.103723 0.851979 -0.574167
C30   C     C_3   0.728957 0.074156 0.816606 0.130889
H25   H     H_    0.762903 0.143163 0.741419 0.142349
H26   H     H_    0.727637 0.979503 0.773549 0.132332
C31   C     C_3   0.852076 0.078213 0.943227 -0.344859
H27   H     H_    0.871368 0.175091 0.979574 0.231803
H28   H     H_    0.810108 0.020974 0.024138 0.268280
C32   C     C_3   0.006036 0.025827 0.915151 -0.879329
H29   H     H_    0.983910 0.936357 0.861842 0.272903
H30   H     H_    0.082736 0.007672 0.012331 0.304749
H31   H     H_    0.065671 0.091878 0.852042 0.271977
C33   C     C_2   0.661071 0.694382 0.154588 0.964023
O18   O     O_2   0.751406 0.679407 0.259117 -0.655242
O19   O     O_R   0.643069 0.813008 0.098068 -0.750678
H32   H     H_    0.706605 0.877027 0.157484 0.332294

loop_
_geom_bond_atom_site_label_1
_geom_bond_atom_site_label_2
_ccdc_geom_bond_type
C7    C10   A    
O19   H32   S    
C31   H27   S    
C16   H1    S    
C21   H8    S    
C19   C20   A    
C10   N2    A    
C25   O12   D    
C32   H29   S    
C23   H13   S    
C33   O18   D    
C5    O16   S    
O4    Zn2   S    
C18   C19   A    
C5    C6    S    
C31   H28   S    
C1    O2    A    
O1    Zn1   S    
C8    C33   S    
C15   O8    A    
C13   C24   S    
C23   H12   S    
C16   C17   D    
N2    Zn1   S    
C29   H22   S    
O3    Zn1   S    
C22   C23   S    
C9    N2    A    
C4    C18   A    
C26   O14   D    
C12   O3    A    
C21   H9    S    
C20   C25   S    
C32   H30   S    
C22   H11   S    
C6    O17   S    
C23   H14   S    
C33   O19   S    
C6    C18   S    
C26   O15   S    
C1    C19   S    
O17   C30   S    
O16   C27   S    
C2    C20   A    
C28   H20   S    
C27   C28   S    
C12   C16   S    
C14   O6    A    
C2    C26   S    
C8    C9    A    
N1    Zn2   S    
O11   H15   S    
C9    O9    S    
C7    N1    A    
C24   O10   D    
C13   H4    S    
C28   H21   S    
C27   H19   S    
O6    Zn2   S    
C30   H25   S    
C6    H7    S    
C29   H24   S    
C30   H26   S    
C3    C14   S    
O9    C21   S    
C25   O13   S    
C8    N1    A    
C21   C22   S    
C3    C4    A    
C15   O7    A    
C32   H31   S    
C22   H10   S    
C15   C17   S    
O5    Zn1   S    
C4    C5    S    
C14   O5    A    
C11   H2    S    
C28   C29   S    
C17   H5    S    
C27   H18   S    
O7    Zn1   S    
C2    C3    A    
O8    Zn2   S    
C11   C13   S    
C31   C32   S    
O13   H16   S    
C11   H3    S    
C1    O1    A    
O2    Zn2   S    
O15   H17   S    
C30   C31   S    
C10   C11   S    
C5    H6    S    
C7    C13   S    
C29   H23   S    
C24   O11   S    
C12   O4    A    
