data_mof_unit_62409.cif
_audit_creation_date              2012-12-10T19:29:29-0500
_audit_creation_method            fapswitch 2.2
_symmetry_space_group_name_H-M    P1
_symmetry_Int_Tables_number       1
_space_group_crystal_system       triclinic
_cell_length_a                    22.306742
_cell_length_b                    22.294092
_cell_length_c                    14.944791
_cell_angle_alpha                 90.003721
_cell_angle_beta                  90.079692
_cell_angle_gamma                 90.000343
_cell_volume                      7432.16526249

loop_
_atom_site_label
_atom_site_type_symbol
_atom_type_description
_atom_site_fract_x
_atom_site_fract_y
_atom_site_fract_z
_atom_type_partial_charge
C1    C     C_R   0.418824 0.918809 0.499944 0.903367
C2    C     C_R   0.581176 0.081191 0.500057 0.903451
C3    C     C_R   0.581178 0.918810 0.500052 0.903453
C4    C     C_R   0.418821 0.081190 0.499949 0.903349
C5    C     C_R   0.918824 0.418809 0.499943 0.903451
C6    C     C_R   0.081176 0.581191 0.500056 0.903367
C7    C     C_R   0.081178 0.418810 0.500051 0.903349
C8    C     C_R   0.918822 0.581190 0.499948 0.903453
C9    C     C_1   0.337033 0.162967 0.499544 0.153087
C10   C     C_1   0.662968 0.837034 0.500469 0.153059
C11   C     C_1   0.662952 0.162984 0.500499 0.153027
C12   C     C_1   0.337053 0.837011 0.499515 0.153044
C13   C     C_1   0.837032 0.662966 0.499530 0.153059
C14   C     C_1   0.162967 0.337033 0.500456 0.153087
C15   C     C_1   0.162947 0.662989 0.500485 0.153044
C16   C     C_1   0.837048 0.337016 0.499501 0.153027
C17   C     C_1   0.500016 0.000000 0.189691 0.099765
C18   C     C_1   0.499984 1.000000 0.810308 0.099762
C19   C     C_1   0.000016 0.500000 0.189692 0.099763
C20   C     C_1   0.999984 0.500000 0.810308 0.099767
C21   C     C_3   0.471756 0.950820 0.969827 -0.133538
C22   C     C_3   0.528243 0.049181 0.030173 -0.133534
C23   C     C_3   0.528449 0.950940 0.030163 -0.133546
C24   C     C_3   0.471550 0.049061 0.969837 -0.133563
C25   C     C_3   0.971802 0.450794 0.969827 -0.133538
C26   C     C_3   0.028199 0.549206 0.030173 -0.133541
C27   C     C_3   0.028494 0.450965 0.030163 -0.133567
C28   C     C_3   0.971506 0.549035 0.969836 -0.133551
C29   C     C_3   0.701291 0.728758 0.541372 -0.146006
C30   C     C_3   0.298999 0.271519 0.459725 -0.146182
C31   C     C_3   0.298870 0.728564 0.459268 -0.146052
C32   C     C_3   0.701527 0.271047 0.542210 -0.145869
C33   C     C_3   0.201001 0.228481 0.540275 -0.146182
C34   C     C_3   0.798709 0.771242 0.458628 -0.146005
C35   C     C_3   0.798473 0.228952 0.457790 -0.145869
C36   C     C_3   0.201130 0.771435 0.540732 -0.146052
C37   C     C_3   0.229710 0.202177 0.455190 -0.143745
C38   C     C_3   0.770599 0.798132 0.543753 -0.143779
C39   C     C_3   0.770817 0.201637 0.542941 -0.143909
C40   C     C_3   0.229598 0.797952 0.455616 -0.143825
C41   C     C_3   0.729400 0.701868 0.456247 -0.143780
C42   C     C_3   0.270290 0.297823 0.544810 -0.143744
C43   C     C_3   0.270402 0.702048 0.544384 -0.143825
C44   C     C_3   0.729183 0.298363 0.457058 -0.143908
C45   C     C_1   0.374541 0.125463 0.499820 -0.071184
C46   C     C_1   0.625459 0.874537 0.500184 -0.071173
C47   C     C_1   0.625449 0.125473 0.500203 -0.071206
C48   C     C_1   0.374554 0.874524 0.499802 -0.071212
C49   C     C_1   0.874541 0.625463 0.499816 -0.071173
C50   C     C_1   0.125458 0.374537 0.500180 -0.071184
C51   C     C_1   0.125446 0.625476 0.500198 -0.071212
C52   C     C_1   0.874551 0.374526 0.499797 -0.071207
C53   C     C_3   0.263376 0.234212 0.584804 0.105336
C54   C     C_3   0.736024 0.765201 0.415173 0.105268
C55   C     C_3   0.735555 0.235239 0.415172 0.105190
C56   C     C_3   0.263636 0.765557 0.584809 0.105275
C57   C     C_3   0.763976 0.734799 0.584827 0.105267
C58   C     C_3   0.236623 0.265788 0.415196 0.105336
C59   C     C_3   0.236364 0.734442 0.415191 0.105275
C60   C     C_3   0.764445 0.264761 0.584828 0.105189
C61   C     C_3   0.291720 0.208288 0.499160 -0.025862
C62   C     C_3   0.708283 0.791714 0.500857 -0.025865
C63   C     C_3   0.708271 0.208297 0.500883 -0.025829
C64   C     C_3   0.291737 0.791695 0.499133 -0.025845
C65   C     C_3   0.791717 0.708286 0.499143 -0.025864
C66   C     C_3   0.208280 0.291712 0.500839 -0.025862
C67   C     C_3   0.208263 0.708305 0.500867 -0.025845
C68   C     C_3   0.791729 0.291702 0.499117 -0.025829
C69   C     C_3   0.443315 0.999880 0.030004 -0.133943
C70   C     C_3   0.556684 0.000121 0.969996 -0.133926
C71   C     C_3   0.943316 0.499828 0.030004 -0.133928
C72   C     C_3   0.056685 0.500171 0.969996 -0.133945
C73   C     C_3   0.500006 0.000001 0.089227 0.079084
C74   C     C_3   0.499993 1.000000 0.910773 0.079083
C75   C     C_3   0.000007 0.500000 0.089227 0.079088
C76   C     C_3   0.999994 0.499999 0.910772 0.079088
H1    H     H_    0.603602 0.000219 0.945333 0.162477
H2    H     H_    0.396397 0.999781 0.054667 0.162413
H3    H     H_    0.103602 0.500312 0.945334 0.162415
H4    H     H_    0.896398 0.499687 0.054665 0.162478
H5    H     H_    0.552000 0.910338 0.054967 0.164800
H6    H     H_    0.447999 0.089662 0.945033 0.164767
H7    H     H_    0.448377 0.910117 0.945016 0.164769
H8    H     H_    0.551622 0.089883 0.054984 0.164798
H9    H     H_    0.052081 0.410385 0.054966 0.164770
H10   H     H_    0.947920 0.589615 0.945034 0.164804
H11   H     H_    0.948460 0.410071 0.945017 0.164798
H12   H     H_    0.051541 0.589929 0.054983 0.164768
N1    N     N_1   0.500020 1.000000 0.268010 -0.077876
N2    N     N_1   0.499980 1.000000 0.731990 -0.077878
N3    N     N_1   0.000020 0.500000 0.268010 -0.077878
N4    N     N_1   0.999980 0.500000 0.731990 -0.077877
O1    O     O_R   0.438390 0.938390 0.574460 -0.608577
O2    O     O_R   0.561610 0.061610 0.425540 -0.608571
O3    O     O_R   0.561610 0.938390 0.425540 -0.608579
O4    O     O_R   0.438390 0.061610 0.574460 -0.608579
O5    O     O_R   0.938390 0.438390 0.574460 -0.608570
O6    O     O_R   0.061610 0.561610 0.425540 -0.608577
O7    O     O_R   0.061610 0.438390 0.425540 -0.608579
O8    O     O_R   0.938390 0.561610 0.574460 -0.608579
O9    O     O_R   0.438400 0.938390 0.425520 -0.599442
O10   O     O_R   0.561600 0.061610 0.574480 -0.599435
O11   O     O_R   0.561600 0.938390 0.574480 -0.599431
O12   O     O_R   0.438400 0.061610 0.425520 -0.599444
O13   O     O_R   0.938400 0.438390 0.425520 -0.599435
O14   O     O_R   0.061600 0.561610 0.574480 -0.599442
O15   O     O_R   0.061600 0.438390 0.574480 -0.599444
O16   O     O_R   0.938400 0.561610 0.425520 -0.599430
Zn1   Zn    Zn3+2 0.500000 1.000000 0.599450 1.036976
Zn2   Zn    Zn3+2 0.500000 0.000000 0.400550 1.036968
Zn3   Zn    Zn3+2 1.000000 0.500000 0.599450 1.036968
Zn4   Zn    Zn3+2 1.000000 0.500000 0.400550 1.036976
C77   C     C_2   0.206139 0.148844 0.405000 1.002138
O17   O     O_2   0.155463 0.150239 0.373906 -0.570634
O18   O     O_R   0.241894 0.097926 0.394204 -0.789056
H13   H     H_    0.220844 0.065022 0.359443 0.357499
C78   C     C_2   0.794513 0.851807 0.592764 1.002228
O19   O     O_2   0.845421 0.850643 0.623024 -0.570648
O20   O     O_R   0.758808 0.902773 0.603428 -0.789065
H14   H     H_    0.780089 0.935905 0.637384 0.357210
C79   C     C_2   0.794972 0.147707 0.591057 1.002379
O21   O     O_2   0.846060 0.148684 0.620643 -0.570474
O22   O     O_R   0.759282 0.096725 0.601670 -0.788965
H15   H     H_    0.780728 0.063422 0.635007 0.357464
C80   C     C_2   0.205906 0.851425 0.405886 1.002209
O23   O     O_2   0.155115 0.850153 0.375200 -0.570617
O24   O     O_R   0.241680 0.902324 0.395038 -0.789019
H16   H     H_    0.220551 0.935320 0.360587 0.357627
C81   C     C_2   0.705487 0.648193 0.407236 1.002226
O25   O     O_2   0.654579 0.649357 0.376976 -0.570648
O26   O     O_R   0.741192 0.597226 0.396571 -0.789064
H17   H     H_    0.719910 0.564095 0.362616 0.357210
C82   C     C_2   0.293861 0.351156 0.595000 1.002138
O27   O     O_2   0.344537 0.349760 0.626094 -0.570635
O28   O     O_R   0.258106 0.402074 0.605796 -0.789055
H18   H     H_    0.279156 0.434978 0.640557 0.357499
C83   C     C_2   0.294094 0.648575 0.594114 1.002209
O29   O     O_2   0.344885 0.649847 0.624800 -0.570617
O30   O     O_R   0.258320 0.597675 0.604962 -0.789019
H19   H     H_    0.279449 0.564680 0.639413 0.357626
C84   C     C_2   0.705028 0.352293 0.408943 1.002379
O31   O     O_2   0.653940 0.351316 0.379357 -0.570473
O32   O     O_R   0.740718 0.403274 0.398329 -0.788966
H20   H     H_    0.719272 0.436578 0.364993 0.357464
C85   C     C_2   0.646962 0.704132 0.587678 1.001825
O33   O     O_2   0.647725 0.652786 0.616266 -0.560358
O34   O     O_R   0.595848 0.739678 0.597720 -0.789438
H21   H     H_    0.562253 0.717894 0.629754 0.368463
C86   C     C_2   0.353651 0.296461 0.414662 1.001976
O35   O     O_2   0.353091 0.348005 0.386868 -0.560011
O36   O     O_R   0.404831 0.260980 0.404868 -0.789443
H22   H     H_    0.438651 0.282983 0.373709 0.368704
C87   C     C_2   0.353378 0.703723 0.413685 1.001944
O37   O     O_2   0.352707 0.652263 0.385539 -0.560100
O38   O     O_R   0.404554 0.739201 0.403809 -0.789406
H23   H     H_    0.438273 0.717271 0.372284 0.368601
C88   C     C_2   0.647464 0.295451 0.589467 1.001838
O39   O     O_2   0.648409 0.346640 0.618676 -0.560473
O40   O     O_R   0.596384 0.259877 0.599687 -0.789376
H24   H     H_    0.562974 0.281502 0.632390 0.368319
C89   C     C_2   0.146349 0.203539 0.585338 1.001976
O41   O     O_2   0.146909 0.151995 0.613132 -0.560011
O42   O     O_R   0.095169 0.239020 0.595132 -0.789443
H25   H     H_    0.061349 0.217017 0.626291 0.368704
C90   C     C_2   0.853038 0.795868 0.412322 1.001824
O43   O     O_2   0.852275 0.847214 0.383734 -0.560358
O44   O     O_R   0.904152 0.760322 0.402280 -0.789438
H26   H     H_    0.937747 0.782106 0.370246 0.368463
C91   C     C_2   0.852536 0.204549 0.410533 1.001837
O45   O     O_2   0.851591 0.153359 0.381324 -0.560473
O46   O     O_R   0.903616 0.240122 0.400313 -0.789376
H27   H     H_    0.937026 0.218497 0.367610 0.368319
C92   C     C_2   0.146622 0.796277 0.586315 1.001944
O47   O     O_2   0.147293 0.847737 0.614461 -0.560100
O48   O     O_R   0.095446 0.760799 0.596191 -0.789405
H28   H     H_    0.061727 0.782729 0.627715 0.368602
I1    I     I_    0.712851 0.790289 0.281251 -0.202133
I2    I     I_    0.285603 0.208194 0.718685 -0.201889
I3    I     I_    0.286278 0.791208 0.718701 -0.202062
I4    I     I_    0.711637 0.210847 0.281248 -0.202420
I5    I     I_    0.214397 0.291807 0.281315 -0.201893
I6    I     I_    0.787148 0.709711 0.718749 -0.202137
I7    I     I_    0.788363 0.289153 0.718752 -0.202417
I8    I     I_    0.213722 0.708791 0.281299 -0.202058

loop_
_geom_bond_atom_site_label_1
_geom_bond_atom_site_label_2
_ccdc_geom_bond_type
C41   C81   S    
O46   H27   S    
C9    C45   T    
C90   O43   D    
C26   C72   S    
C91   O45   D    
C11   C47   T    
O42   H25   S    
C12   C48   T    
C53   I2    S    
C89   O41   D    
C36   C67   S    
O28   H18   S    
C5    O13   A    
C92   O47   D    
C83   O30   S    
C88   O39   D    
C31   C43   S    
C42   C82   S    
C9    C61   S    
C6    O6    A    
C22   C24   S    
C32   C88   S    
C72   H3    S    
C11   C63   S    
C78   O20   S    
C42   C53   S    
C29   C85   S    
C12   C64   S    
C37   C77   S    
C40   C80   S    
O32   H20   S    
C4    O12   A    
C25   H11   S    
C20   C76   S    
C55   I4    S    
C31   C59   S    
C27   H9    S    
C24   H6    S    
C71   H4    S    
C36   C40   S    
C59   C67   S    
C4    O4    A    
C38   C78   S    
C53   C61   S    
C58   C66   S    
O34   H21   S    
C44   C84   S    
C55   C63   S    
C70   C74   S    
O36   H22   S    
C56   C64   S    
C5    C52   S    
C69   C73   S    
C16   C68   S    
C15   C51   T    
C6    C51   S    
C87   O38   S    
C34   C90   S    
C37   C58   S    
C72   C76   S    
O14   Zn3   S    
C60   I7    S    
C36   C92   S    
C90   O44   S    
C40   C59   S    
C33   C89   S    
C70   H1    S    
C17   C73   S    
C91   O46   S    
C23   C70   S    
C69   H2    S    
C10   C62   S    
C84   O31   D    
C23   C73   S    
C14   C50   T    
C27   C75   S    
C8    O16   A    
C34   C65   S    
C57   I6    S    
C89   O42   S    
C24   C69   S    
C85   O33   D    
N2    Zn1   S    
C4    C45   S    
C92   O48   S    
C33   C53   S    
O6    Zn4   S    
C85   O34   S    
C35   C55   S    
C18   N2    T    
C21   H7    S    
O22   H15   S    
C17   N1    T    
C7    C50   S    
O44   H26   S    
C30   C86   S    
C41   C65   S    
C54   C62   S    
O9    Zn2   S    
C38   C62   S    
N1    Zn2   S    
O2    Zn2   S    
C33   C37   S    
O16   Zn4   S    
C21   C69   S    
C84   O32   S    
C22   H8    S    
N3    Zn4   S    
C88   O40   S    
C35   C39   S    
O18   H13   S    
C43   C67   S    
C10   C46   T    
C36   C56   S    
C38   C57   S    
C20   N4    T    
C18   C74   S    
O7    Zn4   S    
O40   H24   S    
C2    O2    A    
O20   H14   S    
C15   C67   S    
C33   C66   S    
C26   C75   S    
C14   C66   S    
N4    Zn3   S    
C6    O14   A    
C60   C68   S    
C79   O21   D    
O4    Zn1   S    
C7    O7    A    
C25   C71   S    
C26   H12   S    
O13   Zn4   S    
C5    O5    A    
C34   C54   S    
C21   C23   S    
C28   H10   S    
C80   O23   D    
C35   C91   S    
C13   C49   T    
C44   C68   S    
C28   C71   S    
C32   C60   S    
O26   H17   S    
C21   C74   S    
C1    O9    A    
O12   Zn2   S    
C80   O24   S    
C77   O17   D    
C29   C57   S    
C3    O11   A    
C29   C62   S    
C23   H5    S    
C29   C41   S    
C34   C38   S    
O15   Zn3   S    
C31   C64   S    
C42   C66   S    
C16   C52   T    
C32   C63   S    
C57   C65   S    
O3    Zn2   S    
C40   C64   S    
C37   C61   S    
O30   H19   S    
C1    C48   S    
C2    C47   S    
C25   C27   S    
C39   C63   S    
C83   O29   D    
C3    C46   S    
C26   C28   S    
C39   C79   S    
C54   I1    S    
O11   Zn1   S    
C25   C76   S    
C86   O36   S    
C81   O25   D    
O48   H28   S    
C78   O19   D    
C71   C75   S    
C44   C55   S    
C24   C74   S    
C8    O8    A    
C82   O27   D    
C35   C68   S    
O5    Zn3   S    
C39   C60   S    
C30   C58   S    
C19   C75   S    
C43   C83   S    
C7    O15   A    
C31   C87   S    
C59   I8    S    
C13   C65   S    
C41   C54   S    
C79   O22   S    
C19   N3    T    
C43   C56   S    
C32   C44   S    
O8    Zn3   S    
C1    O1    A    
C30   C61   S    
O38   H23   S    
C82   O28   S    
C2    O10   A    
C30   C42   S    
O10   Zn1   S    
C3    O3    A    
C22   C73   S    
C81   O26   S    
C87   O37   D    
C86   O35   D    
C58   I5    S    
C8    C49   S    
C22   C70   S    
C27   C72   S    
O24   H16   S    
O1    Zn1   S    
C77   O18   S    
C56   I3    S    
C28   C76   S    
