data_mof_unit_67554.cif
_audit_creation_date              2012-10-26T18:48:18-0400
_audit_creation_method            fapswitch 2.2
_symmetry_space_group_name_H-M    P1
_symmetry_Int_Tables_number       1
_space_group_crystal_system       triclinic
_cell_length_a                    10.627343
_cell_length_b                    8.941565
_cell_length_c                    7.594528
_cell_angle_alpha                 102.697879
_cell_angle_beta                  95.192869
_cell_angle_gamma                 93.816556
_cell_volume                      698.349253499

loop_
_atom_site_label
_atom_site_type_symbol
_atom_type_description
_atom_site_fract_x
_atom_site_fract_y
_atom_site_fract_z
_atom_type_partial_charge
C1    C     C_R   0.494570 0.201357 0.454919 0.533564
C2    C     C_3   0.124088 0.501141 0.499593 0.039410
C3    C     C_3   0.971908 0.535395 0.669281 0.203698
C4    C     C_3   0.026930 0.463489 0.328453 0.202395
C5    C     C_2   0.484831 0.034644 0.430561 -0.022798
C6    C     C_2   0.523023 0.965228 0.567600 -0.018698
C7    C     C_3   0.878482 0.198831 0.322635 -0.272430
C8    C     C_3   0.968920 0.093940 0.222011 -0.418466
C9    C     C_3   0.111869 0.802263 0.681627 -0.270475
C10   C     C_3   0.174668 0.886055 0.554052 -0.426076
C11   C     C_3   0.443693 0.947599 0.237530 -0.261949
C12   C     C_R   0.508657 0.798646 0.544821 0.533958
C13   C     C_3   0.563950 0.910992 0.147027 -0.390589
C14   C     C_3   0.572959 0.052592 0.757307 -0.262936
C15   C     C_3   0.459044 0.092372 0.860430 -0.399952
C16   C     C_R   0.260327 0.499535 0.500140 0.577629
C17   C     C_R   0.739380 0.499658 0.499610 0.577151
C18   C     C_3   0.041433 0.396280 0.587278 0.220468
C19   C     C_3   0.956753 0.602159 0.410875 0.222454
C20   C     C_3   0.944973 0.357081 0.415570 -0.060495
C21   C     C_3   0.053590 0.641789 0.581894 -0.044832
C22   C     C_3   0.875102 0.497597 0.499142 0.027747
Cu1   Cu    Cu3+1 0.514140 0.517380 0.684380 1.044953
Cu2   Cu    Cu3+1 0.485860 0.482620 0.315620 1.042231
H1    H     H_    0.990846 0.130478 0.096891 0.165213
H2    H     H_    0.183340 0.791955 0.793505 0.145423
H3    H     H_    0.013673 0.241667 0.722315 0.326468
H4    H     H_    0.964740 0.717939 0.226835 0.333804
H5    H     H_    0.021162 0.614415 0.922891 0.343438
H6    H     H_    0.977095 0.395110 0.073481 0.357096
H7    H     H_    0.303728 0.356403 0.026335 0.359612
H8    H     H_    0.697459 0.640525 0.972637 0.356633
H9    H     H_    0.629845 0.854236 0.227364 0.218237
H10   H     H_    0.617551 0.018407 0.135994 0.124319
H11   H     H_    0.537730 0.835916 0.012005 0.188388
H12   H     H_    0.058844 0.096917 0.309511 0.178635
H13   H     H_    0.374442 0.846736 0.224640 0.171525
H14   H     H_    0.385561 0.016956 0.163950 0.134979
H15   H     H_    0.390564 0.151612 0.788476 0.211319
H16   H     H_    0.405379 0.985484 0.872994 0.134281
H17   H     H_    0.492652 0.167181 0.993495 0.190318
H18   H     H_    0.633212 0.981963 0.826903 0.136506
H19   H     H_    0.640913 0.153041 0.761007 0.173160
H20   H     H_    0.923583 0.974357 0.181526 0.153657
H21   H     H_    0.838875 0.145157 0.426858 0.146824
H22   H     H_    0.798920 0.213214 0.224186 0.152004
H23   H     H_    0.251968 0.821606 0.494875 0.150718
H24   H     H_    0.104597 0.898583 0.442841 0.171158
H25   H     H_    0.213624 0.002795 0.629271 0.165119
H26   H     H_    0.035985 0.870137 0.741293 0.166977
N1    N     N_2   0.464560 0.456420 0.038510 0.061688
N2    N     N_2   0.535440 0.543580 0.961490 0.063240
O1    O     O_R   0.509190 0.286130 0.619780 -0.503883
O2    O     O_3   0.905798 0.706654 0.317738 -0.685028
O3    O     O_3   0.940369 0.572272 0.847302 -0.694201
O4    O     O_3   0.058760 0.428726 0.150420 -0.685116
O5    O     O_3   0.349740 0.410378 0.947694 -0.559210
O6    O     O_3   0.650576 0.588237 0.051910 -0.563727
O7    O     O_R   0.490810 0.713870 0.380220 -0.504604
O8    O     O_R   0.485310 0.256770 0.308360 -0.555539
O9    O     O_R   0.514690 0.743230 0.691640 -0.551102
O10   O     O_R   0.328790 0.514640 0.655680 -0.438722
O11   O     O_R   0.671210 0.485360 0.344320 -0.442273
O12   O     O_R   0.304910 0.485280 0.344260 -0.499236
O13   O     O_R   0.695090 0.514720 0.655740 -0.499094
O14   O     O_3   0.088844 0.290936 0.682076 -0.674964

loop_
_geom_bond_atom_site_label_1
_geom_bond_atom_site_label_2
_ccdc_geom_bond_type
C11   H14   S    
C2    C4    S    
Cu1   Cu2   S    
C5    C11   S    
C13   H9    S    
N1    O5    S    
H8    O6    S    
C6    C14   S    
C2    C16   S    
C9    C10   S    
C17   O13   A    
C17   C22   S    
C4    C19   S    
Cu2   O8    S    
C14   H18   S    
C9    C21   S    
H6    O4    S    
Cu1   O13   S    
C2    C21   S    
C13   H10   S    
Cu2   O12   S    
H3    O14   S    
C17   O11   A    
C6    C12   S    
C12   O9    A    
C11   C13   S    
C15   H15   S    
Cu1   N2    S    
N2    O6    S    
Cu2   N1    S    
Cu2   O7    S    
C1    C5    S    
C7    H21   S    
C19   O2    S    
H5    O3    S    
C19   C21   S    
C20   C22   S    
C9    H2    S    
Cu1   O1    S    
Cu2   O11   S    
C18   C20   S    
C12   O7    A    
C10   H24   S    
C5    C6    D    
C1    O8    A    
C15   H16   S    
C3    C21   S    
C2    C18   S    
C9    H26   S    
Cu1   O10   S    
C8    H1    S    
N1    N2    D    
C4    C20   S    
C7    H22   S    
C7    C8    S    
C19   C22   S    
C15   H17   S    
C3    C18   S    
C7    C20   S    
C8    H12   S    
Cu1   O9    S    
C10   H23   S    
C11   H13   S    
H4    O2    S    
C18   O14   S    
C3    C22   S    
C1    O1    A    
C16   O12   A    
C14   C15   S    
C10   H25   S    
C3    O3    S    
C16   O10   A    
C13   H11   S    
C4    O4    S    
H7    O5    S    
C8    H20   S    
C14   H19   S    
