data_mof_unit_39653.cif
_audit_creation_date              2012-12-11T15:22:29-0500
_audit_creation_method            fapswitch 2.2
_symmetry_space_group_name_H-M    P1
_symmetry_Int_Tables_number       1
_space_group_crystal_system       triclinic
_cell_length_a                    22.311432
_cell_length_b                    12.992906
_cell_length_c                    26.869966
_cell_angle_alpha                 89.965253
_cell_angle_beta                  90.181739
_cell_angle_gamma                 90.342858
_cell_volume                      7789.163555

loop_
_atom_site_label
_atom_site_type_symbol
_atom_type_description
_atom_site_fract_x
_atom_site_fract_y
_atom_site_fract_z
_atom_type_partial_charge
C1    C     C_R   0.720870 0.346001 0.178163 0.532090
C2    C     C_R   0.279005 0.346077 0.821760 0.548933
C3    C     C_R   0.221428 0.846760 0.178721 0.536160
C4    C     C_R   0.778974 0.846207 0.821731 0.543889
C5    C     C_R   0.476466 0.167387 0.870302 -0.009011
C6    C     C_R   0.531791 0.159645 0.125998 -0.001520
C7    C     C_R   0.976533 0.664478 0.870863 -0.004889
C8    C     C_R   0.026250 0.661652 0.127816 -0.010004
C9    C     C_R   0.512689 0.251499 0.103734 -0.136894
C10   C     C_R   0.470069 0.258508 0.898043 -0.130068
C11   C     C_R   0.018367 0.756160 0.103236 -0.132553
C12   C     C_R   0.979133 0.758549 0.896703 -0.135315
C13   C     C_R   0.501671 0.254481 0.052367 0.014093
C14   C     C_R   0.482703 0.259132 0.948921 0.011213
C15   C     C_R   0.007987 0.758146 0.051766 0.010893
C16   C     C_R   0.991425 0.759719 0.947834 0.009280
C17   C     C_R   0.511703 0.165433 0.023388 0.061420
C18   C     C_R   0.503042 0.168109 0.971746 0.061038
C19   C     C_R   0.007115 0.664744 0.024918 0.057319
C20   C     C_R   0.000568 0.665783 0.972975 0.058624
C21   C     C_R   0.481890 0.344937 0.029229 -0.127972
C22   C     C_R   0.472325 0.347229 0.977812 -0.121523
C23   C     C_R   0.000828 0.851634 0.026288 -0.116033
C24   C     C_R   0.991948 0.852275 0.974720 -0.117184
C25   C     C_R   0.721500 0.020405 0.121275 0.028044
C26   C     C_R   0.276360 0.014605 0.878762 0.019257
C27   C     C_R   0.222811 0.516941 0.121811 0.021540
C28   C     C_R   0.779206 0.523547 0.879001 0.027449
C29   C     C_R   0.730224 0.100206 0.087084 -0.135804
C30   C     C_R   0.221072 0.992997 0.901228 -0.127394
C31   C     C_R   0.267504 0.450806 0.104625 -0.125369
C32   C     C_R   0.762261 0.601676 0.911721 -0.132794
C33   C     C_R   0.729448 0.079685 0.036267 -0.067946
C34   C     C_R   0.218375 0.972983 0.951984 -0.078724
C35   C     C_R   0.270300 0.426470 0.054273 -0.095207
C36   C     C_R   0.763094 0.584789 0.962874 -0.063252
C37   C     C_R   0.721528 0.978507 0.019147 0.067059
C38   C     C_R   0.270539 0.977410 0.981297 0.054972
C39   C     C_R   0.228370 0.467762 0.020855 0.046773
C40   C     C_R   0.779132 0.488087 0.981878 0.065841
C41   C     C_R   0.710495 0.899053 0.053255 -0.123883
C42   C     C_R   0.325973 0.997084 0.958796 -0.137426
C43   C     C_R   0.183113 0.532554 0.038115 -0.128398
C44   C     C_R   0.798312 0.411080 0.949239 -0.120930
C45   C     C_R   0.554722 0.156668 0.177032 0.541781
C46   C     C_R   0.446823 0.157928 0.821984 0.538005
C47   C     C_R   0.053507 0.656992 0.177575 0.534679
C48   C     C_R   0.946774 0.657550 0.822205 0.543365
C49   C     C_R   0.710034 0.920002 0.104152 -0.116490
C50   C     C_R   0.328849 0.014884 0.907709 -0.143263
C51   C     C_R   0.180598 0.557438 0.088523 -0.148021
C52   C     C_R   0.798872 0.428829 0.898088 -0.112649
C53   C     C_R   0.690019 0.899587 0.938410 -0.174464
C54   C     C_R   0.302126 0.883739 0.057439 -0.171335
C55   C     C_R   0.193964 0.389664 0.941185 -0.168782
C56   C     C_R   0.811420 0.413209 0.063452 -0.173710
C57   C     C_R   0.702992 0.869380 0.889700 -0.161757
C58   C     C_R   0.290655 0.851559 0.105965 -0.143952
C59   C     C_R   0.205810 0.360101 0.892194 -0.142910
C60   C     C_R   0.797772 0.378282 0.111397 -0.157202
C61   C     C_R   0.801107 0.948989 0.897142 -0.105908
C62   C     C_R   0.211488 0.977827 0.112098 -0.116388
C63   C     C_R   0.298812 0.457677 0.894792 -0.116243
C64   C     C_R   0.697187 0.445073 0.102039 -0.108644
C65   C     C_R   0.788349 0.980252 0.945595 0.271032
C66   C     C_R   0.223373 0.012196 0.063628 0.269512
C67   C     C_R   0.287168 0.487866 0.943663 0.269385
C68   C     C_R   0.710290 0.480484 0.054191 0.268932
C69   C     C_R   0.732699 0.954107 0.966622 0.040845
C70   C     C_R   0.266409 0.959610 0.035212 0.041480
C71   C     C_R   0.235758 0.449772 0.967495 0.038290
C72   C     C_R   0.767633 0.462821 0.034446 0.039171
C73   C     C_R   0.759285 0.891897 0.869113 -0.026324
C74   C     C_R   0.243361 0.895162 0.132737 -0.020111
C75   C     C_R   0.259280 0.391479 0.869156 -0.019640
C76   C     C_R   0.740197 0.392851 0.130782 -0.026657
C77   C     C_R   0.524544 0.169639 0.369754 0.025389
C78   C     C_R   0.472300 0.169424 0.628795 0.016536
C79   C     C_R   0.024301 0.669585 0.369666 0.026482
C80   C     C_R   0.972266 0.669482 0.628776 0.016482
C81   C     C_R   0.533560 0.260737 0.396949 -0.104142
C82   C     C_R   0.464346 0.261568 0.602282 -0.106755
C83   C     C_R   0.032724 0.761015 0.396724 -0.089448
C84   C     C_R   0.964144 0.761556 0.602240 -0.106752
C85   C     C_R   0.520755 0.263683 0.447406 -0.099596
C86   C     C_R   0.472812 0.264037 0.551125 -0.105993
C87   C     C_R   0.019976 0.763964 0.447201 -0.104595
C88   C     C_R   0.972534 0.764008 0.551074 -0.105867
C89   C     C_R   0.719142 0.045330 0.174238 0.558886
C90   C     C_R   0.279939 0.042638 0.826041 0.560190
C91   C     C_R   0.219439 0.545155 0.174171 0.557598
C92   C     C_R   0.781027 0.545594 0.825604 0.562111
C93   C     C_R   0.497469 0.176325 0.471325 0.026691
C94   C     C_R   0.491166 0.175308 0.525834 0.024363
C95   C     C_R   0.997225 0.676320 0.471249 0.024383
C96   C     C_R   0.991033 0.675361 0.525786 0.025190
C97   C     C_R   0.483125 0.088417 0.443111 -0.122626
C98   C     C_R   0.504041 0.085674 0.553021 -0.125614
C99   C     C_R   0.983294 0.588104 0.443122 -0.123624
C100  C     C_R   0.004124 0.585845 0.553006 -0.125293
C101  C     C_R   0.497123 0.084731 0.392679 -0.124009
C102  C     C_R   0.494280 0.082520 0.604100 -0.130303
C103  C     C_R   0.997304 0.584392 0.392695 -0.126247
C104  C     C_R   0.994387 0.582678 0.604093 -0.130502
C105  C     C_R   0.743415 0.941639 0.368339 0.003484
C106  C     C_R   0.263296 0.963797 0.625650 0.008319
C107  C     C_R   0.243370 0.441689 0.368360 -0.001176
C108  C     C_R   0.763296 0.463812 0.625646 0.008324
C109  C     C_R   0.694143 0.926047 0.399947 -0.154917
C110  C     C_R   0.316798 0.960976 0.597975 -0.159575
C111  C     C_R   0.194114 0.426838 0.400064 -0.153467
C112  C     C_R   0.816799 0.460993 0.597973 -0.159657
C113  C     C_R   0.702367 0.890933 0.448082 -0.131342
C114  C     C_R   0.315414 0.953999 0.546801 -0.137015
C115  C     C_R   0.202294 0.391623 0.448181 -0.130959
C116  C     C_R   0.815417 0.454035 0.546797 -0.137037
C117  C     C_R   0.759991 0.870442 0.465678 0.002089
C118  C     C_R   0.260607 0.947660 0.522100 0.005442
C119  C     C_R   0.259863 0.370373 0.465683 0.000687
C120  C     C_R   0.760611 0.447704 0.522095 0.005485
C121  C     C_R   0.809115 0.877407 0.433435 -0.119973
C122  C     C_R   0.206950 0.943388 0.549231 -0.120274
C123  C     C_R   0.308929 0.376547 0.433338 -0.117206
C124  C     C_R   0.706954 0.443429 0.549223 -0.120297
C125  C     C_R   0.801521 0.911989 0.384247 0.046386
C126  C     C_R   0.207513 0.950293 0.601293 0.048466
C127  C     C_R   0.301402 0.411059 0.384170 0.044862
C128  C     C_R   0.707514 0.450327 0.601284 0.048309
C129  C     C_R   0.803087 0.767695 0.535411 -0.111490
C130  C     C_R   0.217031 0.994456 0.440387 -0.122041
C131  C     C_R   0.302978 0.267592 0.535417 -0.111586
C132  C     C_R   0.717036 0.494487 0.440379 -0.121999
C133  C     C_R   0.721660 0.348831 0.321163 0.545619
C134  C     C_R   0.296280 0.304082 0.673205 0.553040
C135  C     C_R   0.221661 0.848833 0.321162 0.543459
C136  C     C_R   0.796274 0.804093 0.673203 0.553499
C137  C     C_R   0.811400 0.751999 0.586257 -0.141439
C138  C     C_R   0.208537 0.972117 0.390376 -0.123543
C139  C     C_R   0.311349 0.251937 0.586260 -0.141082
C140  C     C_R   0.708537 0.472127 0.390372 -0.123289
C141  C     C_R   0.752382 0.903899 0.604165 -0.101531
C142  C     C_R   0.289451 0.848096 0.394070 -0.127350
C143  C     C_R   0.252431 0.403943 0.604181 -0.101522
C144  C     C_R   0.789446 0.348097 0.394073 -0.127518
C145  C     C_R   0.743543 0.919103 0.553515 -0.116505
C146  C     C_R   0.297772 0.870239 0.444088 -0.119339
C147  C     C_R   0.243562 0.419142 0.553537 -0.116119
C148  C     C_R   0.797771 0.370258 0.444088 -0.119258
C149  C     C_R   0.768912 0.851281 0.518879 0.029145
C150  C     C_R   0.259499 0.939537 0.467961 0.032219
C151  C     C_R   0.268831 0.351226 0.518890 0.028951
C152  C     C_R   0.759505 0.439574 0.467956 0.032316
C153  C     C_R   0.786436 0.820526 0.620505 0.032857
C154  C     C_R   0.242376 0.894384 0.367783 0.022522
C155  C     C_R   0.286441 0.320516 0.620511 0.033144
C156  C     C_R   0.742373 0.394384 0.367784 0.022802
C157  C     C_R   0.553537 0.158856 0.321244 0.544625
C158  C     C_R   0.445995 0.159085 0.678438 0.528546
C159  C     C_R   0.053493 0.658850 0.321223 0.544354
C160  C     C_R   0.945992 0.659093 0.678433 0.527702
C161  C     C_R   0.732286 0.999477 0.322261 0.594044
C162  C     C_R   0.268560 0.002472 0.676615 0.585328
C163  C     C_R   0.232293 0.499444 0.322247 0.585842
C164  C     C_R   0.768559 0.502474 0.676614 0.585498
C165  C     C_R   0.538698 0.070459 0.096987 -0.128685
C166  C     C_R   0.500848 0.079562 0.892452 -0.140775
C167  C     C_R   0.019904 0.569060 0.101225 -0.138217
C168  C     C_R   0.991872 0.572832 0.895306 -0.128962
C169  C     C_R   0.530217 0.073256 0.046005 0.009391
C170  C     C_R   0.513256 0.078706 0.943146 0.011189
C171  C     C_R   0.013048 0.569999 0.049907 0.004985
C172  C     C_R   0.002140 0.572405 0.946320 0.012000
C173  C     C_R   0.532780 0.988205 0.966077 -0.141235
C174  C     C_R   0.541311 0.985522 0.017295 -0.138591
C175  C     C_R   0.010732 0.479227 0.971410 -0.144096
C176  C     C_R   0.014996 0.477734 0.023027 -0.148823
Cr1   Cr    Cr6+3 0.756570 0.170940 0.251190 1.037819
Cr2   Cr    Cr6+3 0.243430 0.170940 0.748810 1.039131
Cr3   Cr    Cr6+3 0.256570 0.670940 0.251190 1.042093
Cr4   Cr    Cr6+3 0.743430 0.670940 0.748810 1.042403
Cr5   Cr    Cr6+3 0.623740 0.299110 0.249580 1.011605
Cr6   Cr    Cr6+3 0.376260 0.299110 0.750420 1.011737
Cr7   Cr    Cr6+3 0.123740 0.799110 0.249580 1.014482
Cr8   Cr    Cr6+3 0.876260 0.799110 0.750420 1.008901
Cr9   Cr    Cr6+3 0.625990 0.036240 0.250480 1.018820
Cr10  Cr    Cr6+3 0.374010 0.036240 0.749520 1.012776
Cr11  Cr    Cr6+3 0.125990 0.536240 0.250480 1.014485
Cr12  Cr    Cr6+3 0.874010 0.536240 0.749520 1.011579
H1    H     H_    0.506085 0.009498 0.871003 0.130551
H2    H     H_    0.554336 0.999285 0.113518 0.137361
H3    H     H_    0.990847 0.500108 0.875511 0.133343
H4    H     H_    0.025718 0.495607 0.119720 0.134680
H5    H     H_    0.845559 0.964075 0.882793 0.135735
H6    H     H_    0.174931 0.011800 0.132543 0.129697
H7    H     H_    0.340850 0.481479 0.878203 0.133096
H8    H     H_    0.651703 0.452820 0.115313 0.138191
H9    H     H_    0.704633 0.820520 0.040606 0.087145
H10   H     H_    0.366701 0.000363 0.980824 0.116587
H11   H     H_    0.151058 0.565897 0.012481 0.126954
H12   H     H_    0.810301 0.336025 0.963192 0.085549
H13   H     H_    0.702055 0.857654 0.130121 0.126890
H14   H     H_    0.371830 0.031515 0.891012 0.134028
H15   H     H_    0.146601 0.609879 0.101464 0.114075
H16   H     H_    0.813127 0.367755 0.873483 0.125211
H17   H     H_    0.554854 0.327449 0.380279 0.135740
H18   H     H_    0.446956 0.329704 0.620252 0.148706
H19   H     H_    0.053617 0.827994 0.379958 0.146959
H20   H     H_    0.946647 0.829622 0.620200 0.148465
H21   H     H_    0.520369 0.017223 0.534671 0.106304
H22   H     H_    0.463139 0.021221 0.460390 0.101137
H23   H     H_    0.020591 0.517468 0.534682 0.106244
H24   H     H_    0.963654 0.520681 0.460464 0.101831
H25   H     H_    0.501090 0.010729 0.623775 0.133512
H26   H     H_    0.489240 0.014026 0.372285 0.127889
H27   H     H_    0.001338 0.510951 0.623787 0.133176
H28   H     H_    0.989807 0.513448 0.372399 0.128496
H29   H     H_    0.532546 0.332373 0.468108 0.119007
H30   H     H_    0.462244 0.334088 0.531190 0.121442
H31   H     H_    0.031431 0.832931 0.467811 0.118546
H32   H     H_    0.961773 0.833970 0.531141 0.120161
H33   H     H_    0.649232 0.947197 0.388539 0.140356
H34   H     H_    0.360212 0.971791 0.615443 0.147136
H35   H     H_    0.149274 0.448605 0.388738 0.140912
H36   H     H_    0.860212 0.471793 0.615443 0.147207
H37   H     H_    0.822734 0.714549 0.509127 0.121890
H38   H     H_    0.188401 0.050491 0.458155 0.117881
H39   H     H_    0.322565 0.214370 0.509135 0.121532
H40   H     H_    0.688408 0.550529 0.458145 0.117439
H41   H     H_    0.837488 0.686970 0.598924 0.099068
H42   H     H_    0.172688 0.010299 0.370482 0.134826
H43   H     H_    0.337432 0.186891 0.598920 0.098906
H44   H     H_    0.672686 0.510304 0.370476 0.133365
H45   H     H_    0.540573 0.919229 0.944493 0.098082
H46   H     H_    0.556620 0.915006 0.034512 0.102194
H47   H     H_    0.013094 0.407465 0.951143 0.104705
H48   H     H_    0.020625 0.404626 0.041833 0.105466
H49   H     H_    0.663903 0.884172 0.472420 0.118315
H50   H     H_    0.357211 0.957052 0.526392 0.112080
H51   H     H_    0.163854 0.385407 0.472578 0.118220
H52   H     H_    0.857214 0.457087 0.526391 0.112184
H53   H     H_    0.717629 0.984722 0.541261 0.116786
H54   H     H_    0.331111 0.827581 0.464838 0.113248
H55   H     H_    0.217693 0.484833 0.541304 0.116711
H56   H     H_    0.831108 0.327600 0.464841 0.113284
H57   H     H_    0.732964 0.957029 0.630575 0.132321
H58   H     H_    0.316534 0.788598 0.377307 0.137329
H59   H     H_    0.233064 0.457126 0.630596 0.131967
H60   H     H_    0.816525 0.288587 0.377314 0.137423
H61   H     H_    0.853477 0.858666 0.447171 0.142434
H62   H     H_    0.164787 0.932769 0.529685 0.140909
H63   H     H_    0.353209 0.357194 0.447034 0.151605
H64   H     H_    0.664791 0.432812 0.529675 0.140637
H65   H     H_    0.451104 0.326685 0.881008 0.131928
H66   H     H_    0.507910 0.320518 0.125994 0.118958
H67   H     H_    0.967895 0.829751 0.877892 0.124232
H68   H     H_    0.023184 0.827794 0.123567 0.127949
H69   H     H_    0.456171 0.417433 0.960742 0.124951
H70   H     H_    0.473244 0.413456 0.050928 0.109507
H71   H     H_    0.985499 0.924977 0.955841 0.107887
H72   H     H_    0.001712 0.924076 0.046247 0.115147
H73   H     H_    0.737102 0.178402 0.099721 0.110622
H74   H     H_    0.179987 0.991296 0.879668 0.135038
H75   H     H_    0.300191 0.418612 0.130039 0.136893
H76   H     H_    0.748799 0.675828 0.897623 0.114929
H77   H     H_    0.647485 0.877868 0.954677 0.110515
H78   H     H_    0.336218 0.844593 0.036147 0.107873
H79   H     H_    0.153943 0.361170 0.959469 0.117614
H80   H     H_    0.855578 0.398993 0.048361 0.118367
H81   H     H_    0.670270 0.824475 0.869096 0.135169
H82   H     H_    0.316045 0.788008 0.121159 0.143714
H83   H     H_    0.174753 0.308887 0.873322 0.136622
H84   H     H_    0.831420 0.337324 0.132582 0.135982
H85   H     H_    0.736609 0.142234 0.010272 0.112932
H86   H     H_    0.175380 0.954573 0.968486 0.146132
H87   H     H_    0.305596 0.376526 0.041116 0.134323
H88   H     H_    0.749320 0.646014 0.987578 0.116428
O1    O     O_R   0.769900 0.064540 0.196060 -0.486816
O2    O     O_R   0.230100 0.064540 0.803940 -0.508005
O3    O     O_R   0.269900 0.564540 0.196060 -0.496419
O4    O     O_R   0.730100 0.564540 0.803940 -0.491534
O5    O     O_R   0.574760 0.239320 0.300850 -0.500344
O6    O     O_R   0.425240 0.239320 0.699150 -0.517625
O7    O     O_R   0.074760 0.739320 0.300850 -0.496392
O8    O     O_R   0.925240 0.739320 0.699150 -0.518309
O9    O     O_R   0.566290 0.069580 0.305400 -0.519481
O10   O     O_R   0.433710 0.069580 0.694600 -0.521002
O11   O     O_R   0.066290 0.569580 0.305400 -0.520614
O12   O     O_R   0.933710 0.569580 0.694600 -0.521570
O13   O     O_R   0.680760 0.993330 0.302620 -0.503074
O14   O     O_R   0.319240 0.993330 0.697380 -0.508856
O15   O     O_R   0.180760 0.493330 0.302620 -0.503896
O16   O     O_R   0.819240 0.493330 0.697380 -0.509404
O17   O     O_3   0.668770 0.168760 0.250420 -0.267352
O18   O     O_3   0.331230 0.168760 0.749580 -0.291757
O19   O     O_3   0.168770 0.668760 0.250420 -0.266109
O20   O     O_3   0.831230 0.668760 0.749580 -0.294292
O21   O     O_R   0.750800 0.274080 0.199250 -0.519873
O22   O     O_R   0.249200 0.274080 0.800750 -0.509300
O23   O     O_R   0.250800 0.774080 0.199250 -0.517711
O24   O     O_R   0.749200 0.774080 0.800750 -0.515391
O25   O     O_R   0.669990 0.371670 0.194150 -0.520537
O26   O     O_R   0.330010 0.371670 0.805850 -0.519556
O27   O     O_R   0.169990 0.871670 0.194150 -0.521379
O28   O     O_R   0.830010 0.871670 0.805850 -0.516993
O29   O     O_R   0.574600 0.238480 0.197800 -0.499380
O30   O     O_R   0.425400 0.238480 0.802200 -0.501239
O31   O     O_R   0.074600 0.738480 0.197800 -0.500171
O32   O     O_R   0.925400 0.738480 0.802200 -0.502690
O33   O     O_R   0.566130 0.068680 0.194240 -0.529295
O34   O     O_R   0.433870 0.068680 0.805760 -0.528812
O35   O     O_R   0.066130 0.568680 0.194240 -0.529564
O36   O     O_R   0.933870 0.568680 0.805760 -0.522957
O37   O     O_R   0.680610 0.992490 0.199570 -0.502512
O38   O     O_R   0.319390 0.992490 0.800430 -0.489476
O39   O     O_R   0.180610 0.492490 0.199570 -0.498531
O40   O     O_R   0.819390 0.492490 0.800430 -0.496965
O41   O     O_R   0.770060 0.065440 0.307230 -0.475870
O42   O     O_R   0.229940 0.065440 0.692770 -0.477375
O43   O     O_R   0.270060 0.565440 0.307230 -0.474903
O44   O     O_R   0.729940 0.565440 0.692770 -0.476999
O45   O     O_R   0.750960 0.274920 0.302300 -0.505304
O46   O     O_R   0.249040 0.274920 0.697700 -0.493339
O47   O     O_R   0.250960 0.774920 0.302300 -0.505523
O48   O     O_R   0.749040 0.774920 0.697700 -0.492605
O49   O     O_R   0.670160 0.372580 0.305320 -0.520532
O50   O     O_R   0.329840 0.372580 0.694680 -0.506192
O51   O     O_R   0.170160 0.872580 0.305320 -0.520304
O52   O     O_R   0.829840 0.872580 0.694680 -0.505893
C177  C     C_2   0.854296 0.914227 0.350616 0.577724
O53   O     O_2   0.904800 0.923924 0.367927 -0.540606
O54   O     O_R   0.846697 0.901403 0.299303 -0.675450
H89   H     H_    0.886071 0.903315 0.280578 0.338737
C178  C     C_2   0.150102 0.940387 0.628905 0.583647
O55   O     O_2   0.102670 0.960843 0.608290 -0.535960
O56   O     O_R   0.149846 0.904310 0.677957 -0.680138
H90   H     H_    0.107985 0.899955 0.692415 0.338671
C179  C     C_2   0.354419 0.412209 0.350776 0.577641
O57   O     O_2   0.348070 0.404324 0.305714 -0.501129
O58   O     O_R   0.412124 0.418285 0.371125 -0.719290
H91   H     H_    0.444579 0.416755 0.344809 0.336260
C180  C     C_2   0.650099 0.440431 0.628889 0.583646
O59   O     O_2   0.602673 0.460931 0.608273 -0.535857
O60   O     O_R   0.649832 0.404321 0.677935 -0.677677
H92   H     H_    0.607966 0.399972 0.692386 0.340574
O61   O     O_3   0.833479 0.021264 0.975240 -0.566055
C181  C     C_3   0.849995 0.120905 0.958687 -0.002045
H93   H     H_    0.842724 0.174724 0.990144 0.143386
H94   H     H_    0.823206 0.150190 0.926462 0.112372
C182  C     C_3   0.916607 0.123116 0.945693 -0.259778
H95   H     H_    0.943215 0.098983 0.978701 0.170045
H96   H     H_    0.925505 0.068597 0.914818 0.152481
C183  C     C_3   0.936589 0.230734 0.929993 -0.489077
H97   H     H_    0.911706 0.255630 0.896243 0.151881
H98   H     H_    0.985224 0.230189 0.921391 0.141769
H99   H     H_    0.928447 0.286433 0.960548 0.144494
O62   O     O_3   0.187890 0.086213 0.040784 -0.585758
C184  C     C_3   0.183979 0.177763 0.069133 0.006855
H100  H     H_    0.198748 0.242319 0.044932 0.160683
H101  H     H_    0.213522 0.179956 0.102736 0.120014
C185  C     C_3   0.118637 0.195897 0.083770 -0.273678
H102  H     H_    0.090311 0.198164 0.049666 0.167872
H103  H     H_    0.102447 0.131618 0.107520 0.159443
C186  C     C_3   0.111509 0.296843 0.111997 -0.472363
H104  H     H_    0.140666 0.298036 0.145579 0.172853
H105  H     H_    0.064184 0.305418 0.123852 0.138377
H106  H     H_    0.123364 0.362536 0.087534 0.161905
O63   O     O_3   0.329820 0.542001 0.970856 -0.581630
C187  C     C_3   0.339725 0.641355 0.950687 0.006704
H107  H     H_    0.322741 0.698553 0.977828 0.155714
H108  H     H_    0.316255 0.656443 0.914647 0.121768
C188  C     C_3   0.407092 0.657927 0.943696 -0.267410
H109  H     H_    0.430913 0.640709 0.979108 0.173133
H110  H     H_    0.423615 0.604210 0.914709 0.154993
C189  C     C_3   0.421538 0.768265 0.928152 -0.477910
H111  H     H_    0.396723 0.788917 0.893692 0.164095
H112  H     H_    0.470313 0.775716 0.920890 0.140296
H113  H     H_    0.409446 0.822446 0.958367 0.146611
O64   O     O_3   0.664689 0.514471 0.023073 -0.565940
C190  C     C_3   0.636020 0.602917 0.042278 -0.001556
H114  H     H_    0.641786 0.665891 0.014675 0.139462
H115  H     H_    0.654847 0.631858 0.078245 0.107333
C191  C     C_3   0.569009 0.580621 0.048041 -0.254632
H116  H     H_    0.551122 0.547470 0.012825 0.183544
H117  H     H_    0.562163 0.523498 0.078288 0.152787
C192  C     C_3   0.534153 0.678047 0.060135 -0.493000
H118  H     H_    0.552552 0.715478 0.094109 0.150254
H119  H     H_    0.486362 0.658088 0.066688 0.149974
H120  H     H_    0.536599 0.732621 0.028386 0.138496

loop_
_geom_bond_atom_site_label_1
_geom_bond_atom_site_label_2
_ccdc_geom_bond_type
C99   C103  A    
C7    C168  A    
C92   O40   A    
C184  H100  S    
C37   C69   S    
C142  C146  A    
C131  C151  A    
C19   C20   A    
C45   O29   A    
C128  C180  S    
C53   C69   A    
C38   C70   S    
C179  O57   D    
C178  O55   D    
C108  C164  S    
C67   O63   S    
C55   C59   A    
C26   C50   A    
C95   C99   A    
C29   C33   A    
C100  C104  A    
C31   H75   S    
C32   H76   S    
C3    C74   S    
C9    C13   A    
C163  O43   A    
C146  C150  A    
C77   C101  A    
Cr7   O51   S    
C12   C16   A    
C142  H58   S    
C169  C174  A    
C172  C175  A    
C141  C145  A    
C108  C112  A    
C138  C154  A    
C6    C165  A    
C35   H87   S    
C21   C22   A    
C119  C151  S    
C112  H36   S    
C125  C177  S    
C174  H46   S    
C41   C49   A    
C187  H107  S    
Cr12  O16   S    
C50   H14   S    
C22   H69   S    
C25   C29   A    
C27   C31   A    
C28   C32   A    
Cr9   O13   S    
Cr10  O10   S    
C62   C66   A    
C167  C171  A    
C98   C102  A    
C60   C76   A    
Cr6   O30   S    
C30   H74   S    
C78   C82   A    
C102  H25   S    
C134  C155  S    
C54   C70   A    
C57   H81   S    
C68   C72   A    
C183  H97   S    
C11   H68   S    
C137  C153  A    
C2    O26   A    
C3    O23   A    
Cr8   O28   S    
C20   C172  A    
C184  C185  S    
C175  H47   S    
C132  C152  A    
C62   H6    S    
C130  C138  A    
C109  H33   S    
C160  O8    A    
C84   C88   A    
Cr6   O6    S    
C119  C123  A    
C26   C90   S    
C5    C46   S    
C58   H82   S    
C105  C125  A    
C7    C48   S    
Cr6   O26   S    
Cr3   O23   S    
C8    C47   S    
C107  C127  A    
C115  H51   S    
C136  C153  S    
C66   C70   A    
C53   H77   S    
O56   H90   S    
C61   C65   A    
C158  O6    A    
C129  C137  A    
C130  H38   S    
C39   C71   S    
C117  C149  S    
C4    O24   A    
O64   C190  S    
C89   O37   A    
C103  H28   S    
C127  C179  S    
C187  C188  S    
C55   C71   A    
C2    C75   S    
C192  H119  S    
C92   O4    A    
C182  H95   S    
Cr10  O38   S    
C10   H65   S    
C161  O13   A    
C134  O46   A    
Cr4   O4    S    
C46   O34   A    
C6    C9    A    
C129  C149  A    
C64   C68   A    
Cr5   O17   S    
C183  H99   S    
C48   O36   A    
C86   H30   S    
C81   H17   S    
C57   C73   A    
C189  H111  S    
C83   H19   S    
C123  C127  A    
C78   C158  S    
C87   C95   A    
C130  C150  A    
C141  H57   S    
C23   C24   A    
C27   C91   S    
C110  C114  A    
C114  H50   S    
C44   C52   A    
C164  O44   A    
C177  O54   S    
C79   C103  A    
C11   C15   A    
C185  H102  S    
C27   C51   A    
C189  H112  S    
C180  O60   S    
C7    C12   A    
C98   H21   S    
C49   H13   S    
C30   C34   A    
C59   H83   S    
C138  H42   S    
C41   H9    S    
C10   C14   A    
C164  O16   A    
C190  C191  S    
C133  O49   A    
C56   C72   A    
C142  C154  A    
C116  C120  A    
C189  H113  S    
C144  C156  A    
C147  C151  A    
C121  C125  A    
C131  H39   S    
C122  H62   S    
C84   H20   S    
C181  H94   S    
C139  C155  A    
Cr5   O25   S    
C188  C189  S    
C146  H54   S    
C89   O1    A    
C17   C18   A    
C5    C166  A    
C108  C128  A    
C91   O3    A    
C4    C73   S    
Cr12  O20   S    
C42   C50   A    
C113  C117  A    
C107  C163  S    
C23   H72   S    
C26   C30   A    
C182  C183  S    
C115  C119  A    
C186  H106  S    
C105  C161  S    
Cr9   O17   S    
Cr10  O14   S    
C61   H5    S    
C82   H18   S    
Cr11  O19   S    
C58   C74   A    
C181  C182  S    
Cr4   O44   S    
C105  C109  A    
C40   C72   S    
C1    C76   S    
C107  C111  A    
C148  C152  A    
C139  H43   S    
C44   H12   S    
C117  C121  A    
C171  C176  A    
C100  H23   S    
C13   C17   A    
C166  H1    S    
C14   C22   A    
C124  H64   S    
Cr3   O47   S    
C141  C153  A    
C63   C75   A    
C64   H8    S    
C36   H88   S    
C37   C41   A    
C56   H80   S    
C163  O15   A    
C131  C139  A    
C40   C44   A    
C129  H37   S    
C148  H56   S    
C185  C186  S    
C81   C85   A    
C83   C87   A    
C88   C96   A    
Cr1   O17   S    
C191  H116  S    
C6    C45   S    
C93   C97   A    
C78   C102  A    
C133  C156  S    
Cr3   O19   S    
Cr2   O22   S    
Cr7   O19   S    
C80   C84   A    
C187  H108  S    
C190  H114  S    
C15   C19   A    
C135  C154  S    
C80   C104  A    
C1    O21   A    
C132  H40   S    
C79   C159  S    
C80   C160  S    
C112  C116  A    
C94   C98   A    
C135  O47   A    
C188  H109  S    
C47   O35   A    
C4    O28   A    
C118  C150  S    
C90   O38   A    
Cr1   O21   S    
Cr12  O12   S    
C173  H45   S    
C183  H98   S    
C159  O7    A    
C186  H104  S    
Cr11  O39   S    
C46   O30   A    
C124  C128  A    
C18   C170  A    
C184  H101  S    
C12   H67   S    
Cr4   O20   S    
C165  C169  A    
Cr7   O31   S    
Cr6   O18   S    
C179  O58   S    
C51   H15   S    
C178  O56   S    
C162  O42   A    
C137  H41   S    
C53   C57   A    
C157  O9    A    
C191  C192  S    
C61   C73   A    
C82   C86   A    
C33   C37   A    
C56   C60   A    
C52   H16   S    
Cr12  O36   S    
Cr7   O7    S    
O54   H89   S    
C8    C167  A    
O58   H91   S    
Cr4   O48   S    
C42   H10   S    
C101  H26   S    
Cr9   O33   S    
C111  H35   S    
Cr11  O35   S    
C140  H44   S    
C54   C58   A    
C63   H7    S    
C136  O52   A    
Cr1   O41   S    
C110  H34   S    
C32   C36   A    
Cr3   O43   S    
C133  O45   A    
C192  H118  S    
C104  H27   S    
Cr8   O8    S    
C162  O14   A    
C132  C140  A    
C106  C126  A    
C25   C89   S    
C143  C155  A    
C90   O2    A    
C45   O33   A    
Cr12  O40   S    
C79   C83   A    
C43   C51   A    
C65   C69   A    
C143  H59   S    
C67   C71   A    
C106  C162  S    
Cr10  O18   S    
C25   C49   A    
Cr11  O15   S    
C88   H32   S    
C168  C172  A    
C134  O50   A    
C62   C74   A    
Cr8   O52   S    
C145  C149  A    
C170  C173  A    
O60   H92   S    
C93   C94   S    
Cr2   O46   S    
C177  O53   D    
C14   C18   A    
C35   C39   A    
C9    H66   S    
C144  C148  A    
Cr8   O20   S    
C185  H103  S    
C173  C174  A    
C143  C147  A    
C167  H4    S    
C34   H86   S    
C24   H71   S    
C54   H78   S    
C168  H3    S    
C33   H85   S    
C161  O41   A    
C19   C171  A    
C38   C42   A    
Cr8   O32   S    
C17   C169  A    
C21   H70   S    
C190  H115  S    
C96   C100  A    
Cr2   O2    S    
C36   C40   A    
C85   H29   S    
C86   C94   A    
Cr11  O11   S    
C175  C176  A    
C188  H110  S    
Cr5   O29   S    
Cr2   O18   S    
C29   H73   S    
C77   C81   A    
C16   C20   A    
C192  H120  S    
Cr5   O49   S    
C15   C23   A    
Cr3   O3    S    
C16   C24   A    
C186  H105  S    
C1    O25   A    
Cr1   O45   S    
C2    O22   A    
C47   O31   A    
C3    O27   A    
C165  H2    S    
C99   H24   S    
C135  O51   A    
C63   C67   A    
C120  C152  S    
C97   H22   S    
C126  C178  S    
C13   C21   A    
C48   O32   A    
C55   H79   S    
C91   O39   A    
C39   C43   A    
C159  O11   A    
C160  O12   A    
C122  C126  A    
C65   O61   S    
C118  C122  A    
C123  H63   S    
O63   C187  S    
C121  H61   S    
C85   C93   A    
Cr4   O24   S    
C64   C76   A    
C145  H53   S    
C28   C92   S    
C60   H84   S    
C109  C113  A    
Cr7   O27   S    
C114  C118  A    
C140  C156  A    
C147  H55   S    
C87   H31   S    
C144  H60   S    
Cr5   O5    S    
C59   C75   A    
C157  O5    A    
C106  C110  A    
C66   O62   S    
C158  O10   A    
C191  H117  S    
C34   C38   A    
C43   H11   S    
Cr1   O1    S    
C116  H52   S    
Cr9   O37   S    
Cr6   O50   S    
Cr10  O34   S    
C5    C10   A    
C28   C52   A    
C181  H93   S    
C176  H48   S    
C8    C11   A    
C113  H49   S    
O62   C184  S    
C166  C170  A    
C136  O48   A    
C31   C35   A    
Cr2   O42   S    
C182  H96   S    
Cr9   O9    S    
C68   O64   S    
C95   C96   S    
C180  O59   D    
C111  C115  A    
O61   C181  S    
C97   C101  A    
C120  C124  A    
C77   C157  S    
