data_mof_unit_61642.cif
_audit_creation_date              2012-12-10T18:17:50-0500
_audit_creation_method            fapswitch 2.2
_symmetry_space_group_name_H-M    P1
_symmetry_Int_Tables_number       1
_space_group_crystal_system       triclinic
_cell_length_a                    26.227772
_cell_length_b                    33.018168
_cell_length_c                    33.017593
_cell_angle_alpha                 90.000048
_cell_angle_beta                  89.960584
_cell_angle_gamma                 89.999892
_cell_volume                      28592.9970598

loop_
_atom_site_label
_atom_site_type_symbol
_atom_type_description
_atom_site_fract_x
_atom_site_fract_y
_atom_site_fract_z
_atom_type_partial_charge
C1    C     C_R   0.392291 0.500723 0.749419 0.893953
C2    C     C_R   0.107709 0.000722 0.250581 0.893949
C3    C     C_1   0.749799 0.999925 0.399512 -0.162896
C4    C     C_1   0.249873 0.999903 0.100495 -0.165986
C5    C     C_1   0.750127 0.999903 0.899505 -0.165994
C6    C     C_1   0.750201 0.999925 0.100488 -0.162905
C7    C     C_1   0.249799 0.999925 0.899512 -0.162927
C8    C     C_1   0.249769 0.499848 0.563033 0.001409
C9    C     C_1   0.750231 0.499847 0.436966 0.001409
C10   C     C_1   0.750293 0.499872 0.563026 -0.001933
C11   C     C_1   0.249707 0.499872 0.436974 -0.001935
C12   C     C_1   0.749769 0.499847 0.063034 0.001404
C13   C     C_R   0.107650 0.999923 0.750316 0.870174
C14   C     C_1   0.250231 0.499848 0.936966 0.001406
C15   C     C_1   0.250293 0.499872 0.063026 -0.001934
C16   C     C_1   0.749707 0.499872 0.936974 -0.001936
C17   C     C_1   0.749768 0.999847 0.563033 0.001406
C18   C     C_1   0.250230 0.999848 0.436966 0.001412
C19   C     C_1   0.250292 0.999873 0.563026 -0.001920
C20   C     C_1   0.749707 0.999872 0.436974 -0.001932
C21   C     C_1   0.249769 0.999848 0.063034 0.001398
C22   C     C_1   0.750231 0.999847 0.936966 0.001381
C23   C     C_1   0.750293 0.999872 0.063026 -0.001944
C24   C     C_R   0.892350 0.999922 0.249684 0.870186
C25   C     C_1   0.249707 0.999872 0.936974 -0.001960
C26   C     C_1   0.249687 0.499824 0.518735 0.012462
C27   C     C_1   0.750313 0.499824 0.481265 0.012462
C28   C     C_1   0.750334 0.499833 0.518728 0.012295
C29   C     C_1   0.249666 0.499833 0.481272 0.012295
C30   C     C_1   0.749687 0.499824 0.018735 0.012461
C31   C     C_1   0.250313 0.499824 0.981265 0.012460
C32   C     C_1   0.250334 0.499833 0.018728 0.012294
C33   C     C_1   0.749666 0.499833 0.981272 0.012293
C34   C     C_1   0.749687 0.999824 0.518735 0.012462
C35   C     C_R   0.392291 0.000722 0.249419 0.893943
C36   C     C_1   0.250311 0.999825 0.481265 0.012468
C37   C     C_1   0.250332 0.999834 0.518727 0.012301
C38   C     C_1   0.749666 0.999833 0.481272 0.012301
C39   C     C_1   0.249687 0.999824 0.018735 0.012448
C40   C     C_1   0.750313 0.999824 0.981265 0.012444
C41   C     C_1   0.750334 0.999833 0.018728 0.012282
C42   C     C_1   0.249666 0.999833 0.981272 0.012276
C43   C     C_R   0.250016 0.500007 0.854445 0.805370
C44   C     C_R   0.749984 0.500007 0.145555 0.805380
C45   C     C_R   0.749939 0.500000 0.854448 0.808156
C46   C     C_R   0.607708 0.000722 0.750580 0.893798
C47   C     C_R   0.250061 0.500000 0.145552 0.808157
C48   C     C_R   0.750016 0.500007 0.354445 0.805370
C49   C     C_R   0.249984 0.500007 0.645555 0.805369
C50   C     C_R   0.249939 0.500000 0.354448 0.808157
C51   C     C_R   0.750061 0.500000 0.645552 0.808156
C52   C     C_R   0.750016 0.000007 0.854445 0.805324
C53   C     C_R   0.249984 0.000007 0.145555 0.805367
C54   C     C_R   0.249939 1.000000 0.854448 0.808103
C55   C     C_R   0.750061 1.000000 0.145552 0.808151
C56   C     C_R   0.250016 0.000007 0.354445 0.805367
C57   C     C_R   0.607650 0.999923 0.250316 0.870182
C58   C     C_R   0.749983 0.000006 0.645555 0.805314
C59   C     C_R   0.749939 1.000000 0.354448 0.808155
C60   C     C_R   0.250061 1.000000 0.645552 0.808117
C61   C     C_R   0.250000 0.604443 0.750000 0.833601
C62   C     C_R   0.750000 0.604443 0.250000 0.833603
C63   C     C_R   0.750000 0.604453 0.750000 0.835703
C64   C     C_R   0.250000 0.604453 0.250000 0.835704
C65   C     C_R   0.750000 0.104443 0.750000 0.833534
C66   C     C_R   0.250000 0.104443 0.250000 0.833596
C67   C     C_R   0.250000 0.104453 0.750000 0.835672
C68   C     C_R   0.392350 0.999927 0.749688 0.870101
C69   C     C_R   0.750000 0.104453 0.250000 0.835701
C70   C     C_R   0.250000 0.395599 0.750000 0.795961
C71   C     C_R   0.750000 0.395599 0.250000 0.795959
C72   C     C_R   0.750000 0.395601 0.750000 0.793770
C73   C     C_R   0.250000 0.395600 0.250000 0.793770
C74   C     C_R   0.750000 0.895598 0.750000 0.795980
C75   C     C_R   0.250000 0.895598 0.250000 0.795962
C76   C     C_R   0.250000 0.895601 0.750000 0.793785
C77   C     C_R   0.750000 0.895601 0.250000 0.793772
C78   C     C_1   0.250000 0.350535 0.750000 -0.163078
C79   C     C_1   0.250000 0.149526 0.750000 -0.133882
C80   C     C_1   0.750000 0.350535 0.250000 -0.163080
C81   C     C_1   0.750000 0.350528 0.750000 -0.163545
C82   C     C_1   0.250000 0.350528 0.250000 -0.163547
C83   C     C_1   0.750000 0.850535 0.750000 -0.163103
C84   C     C_1   0.250000 0.850535 0.250000 -0.163084
C85   C     C_1   0.250000 0.850528 0.750000 -0.163561
C86   C     C_1   0.750000 0.850528 0.250000 -0.163549
C87   C     C_1   0.250000 0.313070 0.750000 -0.002149
C88   C     C_1   0.750000 0.313070 0.250000 -0.002155
C89   C     C_1   0.750000 0.313060 0.750000 -0.001334
C90   C     C_1   0.750000 0.149526 0.250000 -0.133945
C91   C     C_1   0.250000 0.313060 0.250000 -0.001338
C92   C     C_1   0.749999 0.813070 0.750000 -0.002160
C93   C     C_1   0.250000 0.813070 0.250000 -0.002156
C94   C     C_1   0.250000 0.813060 0.750000 -0.001342
C95   C     C_1   0.750000 0.813060 0.250000 -0.001340
C96   C     C_1   0.250000 0.268765 0.750000 0.017032
C97   C     C_1   0.750000 0.268765 0.250000 0.017021
C98   C     C_1   0.750000 0.268755 0.750000 0.017682
C99   C     C_1   0.250000 0.268755 0.250000 0.017676
C100  C     C_1   0.749999 0.768765 0.750000 0.017018
C101  C     C_1   0.750000 0.149515 0.750000 -0.126145
C102  C     C_1   0.250000 0.768765 0.250000 0.017020
C103  C     C_1   0.250000 0.768755 0.750000 0.017673
C104  C     C_1   0.750000 0.768755 0.250000 0.017675
C105  C     C_1   0.250000 0.231299 0.750000 0.023047
C106  C     C_1   0.750000 0.231299 0.250000 0.023032
C107  C     C_1   0.750000 0.231288 0.750000 0.024059
C108  C     C_1   0.250000 0.231288 0.250000 0.024052
C109  C     C_1   0.750000 0.731299 0.750000 0.023028
C110  C     C_1   0.250000 0.731299 0.250000 0.023030
C111  C     C_1   0.250000 0.731288 0.750000 0.024049
C112  C     C_R   0.607709 0.500723 0.250581 0.893942
C113  C     C_1   0.250000 0.149515 0.250000 -0.126168
C114  C     C_1   0.750000 0.731288 0.250000 0.024051
C115  C     C_1   0.250000 0.186993 0.750000 0.019078
C116  C     C_1   0.750000 0.186993 0.250000 0.019051
C117  C     C_1   0.750000 0.186982 0.750000 0.021455
C118  C     C_1   0.250000 0.186982 0.250000 0.021446
C119  C     C_1   0.750000 0.686993 0.750000 0.019048
C120  C     C_1   0.250000 0.686993 0.250000 0.019049
C121  C     C_1   0.250000 0.686982 0.750000 0.021445
C122  C     C_1   0.750000 0.686982 0.250000 0.021446
C123  C     C_3   0.061160 0.458651 0.680680 -0.434800
C124  C     C_1   0.750000 0.649526 0.750000 -0.133950
C125  C     C_3   0.106083 0.428758 0.684574 -0.368246
C126  C     C_3   0.134204 0.424058 0.644342 -0.863811
C127  C     C_3   0.938840 0.458660 0.319326 -0.434793
C128  C     C_3   0.893916 0.428767 0.315435 -0.368242
C129  C     C_3   0.865795 0.424071 0.355667 -0.863808
C130  C     C_3   0.951103 0.479263 0.672258 -0.431917
C131  C     C_3   0.932015 0.441451 0.649599 -0.363075
C132  C     C_3   0.919311 0.451199 0.605570 -0.853463
C133  C     C_3   0.048894 0.479280 0.327747 -0.431910
C134  C     C_3   0.067987 0.441473 0.350413 -0.363076
C135  C     C_1   0.250000 0.649526 0.250000 -0.133950
C136  C     C_3   0.080693 0.451232 0.394440 -0.853460
C137  C     C_3   0.561159 0.458648 0.180681 -0.434802
C138  C     C_3   0.606087 0.428759 0.184576 -0.368229
C139  C     C_3   0.634199 0.424051 0.144342 -0.863840
C140  C     C_3   0.438840 0.458653 0.819321 -0.434800
C141  C     C_3   0.393917 0.428760 0.815427 -0.368238
C142  C     C_3   0.365797 0.424060 0.855659 -0.863825
C143  C     C_3   0.451101 0.479256 0.172260 -0.431919
C144  C     C_3   0.432015 0.441441 0.149605 -0.363078
C145  C     C_3   0.419309 0.451184 0.105575 -0.853472
C146  C     C_1   0.250000 0.649515 0.750000 -0.126170
C147  C     C_3   0.548897 0.479266 0.827743 -0.431913
C148  C     C_3   0.567986 0.441455 0.850402 -0.363077
C149  C     C_3   0.580690 0.451205 0.894431 -0.853472
C150  C     C_3   0.561153 0.958492 0.680781 -0.434926
C151  C     C_3   0.606067 0.928597 0.684726 -0.368348
C152  C     C_3   0.634212 0.923846 0.644511 -0.863846
C153  C     C_3   0.438841 0.958645 0.319316 -0.434804
C154  C     C_3   0.393918 0.928751 0.315419 -0.368252
C155  C     C_3   0.365796 0.924049 0.355650 -0.863811
C156  C     C_3   0.451054 0.978978 0.672339 -0.432015
C157  C     C_1   0.750000 0.649515 0.250000 -0.126170
C158  C     C_3   0.432053 0.941063 0.649805 -0.363068
C159  C     C_3   0.419364 0.950640 0.605736 -0.853515
C160  C     C_3   0.548899 0.979251 0.327739 -0.431920
C161  C     C_3   0.567983 0.941434 0.350392 -0.363084
C162  C     C_3   0.580687 0.951175 0.394423 -0.853451
C163  C     C_3   0.061160 0.958650 0.180681 -0.434801
C164  C     C_3   0.106083 0.928757 0.184576 -0.368246
C165  C     C_3   0.134204 0.924056 0.144344 -0.863814
C166  C     C_3   0.938842 0.958621 0.819301 -0.434826
C167  C     C_3   0.893918 0.928729 0.815397 -0.368256
C168  C     C_3   0.030286 0.464744 0.720991 -0.137827
C169  C     C_3   0.865798 0.924016 0.855628 -0.863822
C170  C     C_3   0.951102 0.979260 0.172259 -0.431917
C171  C     C_3   0.932015 0.941447 0.149602 -0.363078
C172  C     C_3   0.919311 0.951193 0.105572 -0.853460
C173  C     C_3   0.048907 0.979207 0.827726 -0.431939
C174  C     C_3   0.067979 0.941374 0.850359 -0.363076
C175  C     C_3   0.080680 0.951088 0.894397 -0.853471
C176  C     C_3   0.969714 0.464748 0.279014 -0.137832
C177  C     C_3   0.970235 0.469095 0.716159 -0.173796
C178  C     C_3   0.029765 0.469101 0.283847 -0.173799
C179  C     C_3   0.530286 0.464742 0.220994 -0.137826
C180  C     C_R   0.607650 0.499922 0.750317 0.870188
C181  C     C_3   0.469714 0.464744 0.779009 -0.137828
C182  C     C_3   0.470235 0.469092 0.216162 -0.173799
C183  C     C_3   0.529765 0.469096 0.783842 -0.173799
C184  C     C_3   0.530288 0.964666 0.721087 -0.137718
C185  C     C_3   0.469714 0.964740 0.279004 -0.137823
C186  C     C_3   0.470229 0.968980 0.716267 -0.173754
C187  C     C_3   0.529766 0.969090 0.283836 -0.173796
C188  C     C_3   0.030286 0.964743 0.220993 -0.137826
C189  C     C_3   0.969713 0.964728 0.778990 -0.137806
C190  C     C_3   0.970235 0.969093 0.216160 -0.173796
C191  C     C_R   0.392350 0.499922 0.249684 0.870184
C192  C     C_3   0.029766 0.969072 0.783819 -0.173788
C193  C     C_3   0.029172 0.492593 0.792330 -0.435687
C194  C     C_3   0.970828 0.492585 0.207671 -0.435688
C195  C     C_3   0.970767 0.487623 0.790871 -0.400118
C196  C     C_3   0.029233 0.487615 0.209131 -0.400110
C197  C     C_3   0.529172 0.492596 0.292331 -0.435689
C198  C     C_3   0.470828 0.492592 0.707670 -0.435687
C199  C     C_3   0.470767 0.487627 0.290872 -0.400116
C200  C     C_3   0.529233 0.487622 0.709129 -0.400112
C201  C     C_3   0.529174 0.992724 0.792349 -0.435735
C202  C     C_R   0.892291 0.500722 0.249419 0.893961
C203  C     C_3   0.470828 0.992599 0.207669 -0.435697
C204  C     C_3   0.470766 0.987773 0.790912 -0.400198
C205  C     C_3   0.529233 0.987630 0.209127 -0.400124
C206  C     C_3   0.029172 0.992594 0.292330 -0.435689
C207  C     C_3   0.970828 0.992618 0.707666 -0.435698
C208  C     C_3   0.970767 0.987625 0.290872 -0.400118
C209  C     C_3   0.029233 0.987653 0.709121 -0.400132
C210  C     C_3   0.029375 0.541850 0.733900 0.211438
C211  C     C_3   0.970624 0.541852 0.266093 0.211433
C212  C     C_3   0.970216 0.543297 0.738245 0.229645
C213  C     C_R   0.107709 0.500722 0.750581 0.893951
C214  C     C_3   0.029784 0.543299 0.261746 0.229642
C215  C     C_3   0.529376 0.541849 0.233897 0.211439
C216  C     C_3   0.470624 0.541850 0.766099 0.211438
C217  C     C_3   0.470216 0.543296 0.238241 0.229647
C218  C     C_3   0.529784 0.543297 0.761753 0.229645
C219  C     C_3   0.529377 0.041807 0.733773 0.211540
C220  C     C_3   0.470624 0.041848 0.266106 0.211443
C221  C     C_3   0.470214 0.043258 0.738089 0.229722
C222  C     C_3   0.529784 0.043295 0.261762 0.229649
C223  C     C_3   0.029376 0.041849 0.233898 0.211440
C224  C     C_R   0.107650 0.499922 0.250317 0.870192
C225  C     C_3   0.970624 0.041842 0.766125 0.211458
C226  C     C_3   0.970216 0.043296 0.238243 0.229645
C227  C     C_3   0.029784 0.043289 0.761786 0.229659
C228  C     C_3   0.050629 0.500043 0.749066 -0.021529
C229  C     C_3   0.949371 0.500043 0.250934 -0.021526
C230  C     C_3   0.949642 0.500088 0.748582 -0.044558
C231  C     C_3   0.050358 0.500088 0.251418 -0.044560
C232  C     C_3   0.550629 0.500043 0.249066 -0.021523
C233  C     C_3   0.449371 0.500043 0.750934 -0.021529
C234  C     C_3   0.449642 0.500088 0.248582 -0.044558
C235  C     C_R   0.892350 0.499922 0.749683 0.870187
C236  C     C_3   0.550358 0.500088 0.751418 -0.044561
C237  C     C_3   0.550628 0.000045 0.749063 -0.021586
C238  C     C_3   0.449371 0.000043 0.250934 -0.021527
C239  C     C_3   0.449641 0.000087 0.748581 -0.044543
C240  C     C_3   0.550358 0.000088 0.251418 -0.044554
C241  C     C_3   0.050629 0.000043 0.249066 -0.021528
C242  C     C_3   0.949371 0.000044 0.750934 -0.021537
C243  C     C_3   0.949642 0.000088 0.248582 -0.044557
C244  C     C_3   0.050358 0.000088 0.751418 -0.044556
C245  C     C_1   0.249873 0.499903 0.600495 -0.165978
C246  C     C_R   0.892291 0.000723 0.749419 0.893923
C247  C     C_1   0.750127 0.499903 0.399505 -0.165983
C248  C     C_1   0.750201 0.499925 0.600488 -0.162895
C249  C     C_1   0.249799 0.499925 0.399512 -0.162899
C250  C     C_1   0.749873 0.499903 0.100495 -0.165979
C251  C     C_1   0.250127 0.499903 0.899505 -0.165981
C252  C     C_1   0.250201 0.499925 0.100488 -0.162896
C253  C     C_1   0.749799 0.499925 0.899512 -0.162899
C254  C     C_1   0.749872 0.999903 0.600495 -0.165918
C255  C     C_1   0.250126 0.999903 0.399505 -0.165974
C256  C     C_1   0.250200 0.999925 0.600488 -0.162883
Cl1   Cl    Cl    0.060555 0.584598 0.757441 -0.532183
Cl2   Cl    Cl    0.439446 0.084599 0.242569 -0.532180
Cl3   Cl    Cl    0.447234 0.080219 0.774069 -0.539299
Cl4   Cl    Cl    0.552731 0.080125 0.225637 -0.539434
Cl5   Cl    Cl    0.060554 0.084598 0.257438 -0.532180
Cl6   Cl    Cl    0.939449 0.084603 0.742603 -0.532152
Cl7   Cl    Cl    0.947269 0.080122 0.274373 -0.539429
Cl8   Cl    Cl    0.052737 0.080141 0.725685 -0.539403
Cl9   Cl    Cl    0.939443 0.584597 0.242546 -0.532190
Cl10  Cl    Cl    0.947270 0.580121 0.774376 -0.539431
Cl11  Cl    Cl    0.052728 0.580115 0.225606 -0.539439
Cl12  Cl    Cl    0.560554 0.584599 0.257436 -0.532180
Cl13  Cl    Cl    0.439444 0.584598 0.742557 -0.532187
Cl14  Cl    Cl    0.447269 0.580124 0.274368 -0.539427
Cl15  Cl    Cl    0.552729 0.580120 0.725621 -0.539435
Cl16  Cl    Cl    0.560532 0.084622 0.757216 -0.532045
H1    H     H_    0.035899 0.436109 0.738331 0.171029
H2    H     H_    0.464099 0.936107 0.261661 0.171030
H3    H     H_    0.391804 0.411746 0.879169 0.263632
H4    H     H_    0.350708 0.453779 0.865890 0.257995
H5    H     H_    0.333311 0.402831 0.851834 0.247527
H6    H     H_    0.365919 0.438867 0.792603 0.229318
H7    H     H_    0.408487 0.398591 0.805953 0.221096
H8    H     H_    0.463151 0.445362 0.843097 0.236056
H9    H     H_    0.425020 0.488217 0.831001 0.213412
H10   H     H_    0.389306 0.474891 0.104020 0.263354
H11   H     H_    0.453921 0.461926 0.089415 0.260540
H12   H     H_    0.405006 0.423503 0.090237 0.252156
H13   H     H_    0.453540 0.939086 0.724745 0.160838
H14   H     H_    0.460767 0.416804 0.150406 0.225281
H15   H     H_    0.397003 0.429960 0.164765 0.212891
H16   H     H_    0.418637 0.500553 0.172616 0.219697
H17   H     H_    0.480582 0.495640 0.154579 0.208327
H18   H     H_    0.610692 0.474913 0.895983 0.263357
H19   H     H_    0.546077 0.461947 0.910590 0.260540
H20   H     H_    0.594994 0.423526 0.909774 0.252154
H21   H     H_    0.539235 0.416817 0.849605 0.225280
H22   H     H_    0.602998 0.429974 0.835244 0.212890
H23   H     H_    0.581360 0.500565 0.827385 0.219702
H24   H     H_    0.546473 0.939170 0.275471 0.160725
H25   H     H_    0.519414 0.495651 0.845421 0.208325
H26   H     H_    0.608212 0.911526 0.621000 0.263674
H27   H     H_    0.649336 0.953549 0.634262 0.257914
H28   H     H_    0.666677 0.902603 0.648371 0.247561
H29   H     H_    0.634052 0.938726 0.707549 0.229474
H30   H     H_    0.591481 0.898442 0.694231 0.221157
H31   H     H_    0.536844 0.945166 0.657025 0.236125
H32   H     H_    0.574985 0.988031 0.669046 0.213330
H33   H     H_    0.391803 0.911735 0.379160 0.263638
H34   H     H_    0.350705 0.953768 0.365882 0.257991
H35   H     H_    0.035900 0.936108 0.238333 0.171028
H36   H     H_    0.333311 0.902819 0.351823 0.247528
H37   H     H_    0.365921 0.938859 0.292595 0.229325
H38   H     H_    0.408489 0.898583 0.305943 0.221098
H39   H     H_    0.463151 0.945352 0.343091 0.236061
H40   H     H_    0.425019 0.988207 0.330999 0.213410
H41   H     H_    0.389323 0.974311 0.604084 0.263288
H42   H     H_    0.453971 0.961360 0.589553 0.260538
H43   H     H_    0.405118 0.922890 0.590487 0.252200
H44   H     H_    0.460846 0.916460 0.650705 0.225348
H45   H     H_    0.397051 0.929595 0.664988 0.212916
H46   H     H_    0.964094 0.936103 0.761636 0.171033
H47   H     H_    0.418531 0.000222 0.672642 0.219528
H48   H     H_    0.480489 0.995358 0.654605 0.208363
H49   H     H_    0.610692 0.974881 0.395980 0.263353
H50   H     H_    0.546075 0.961916 0.410583 0.260544
H51   H     H_    0.594988 0.923492 0.409760 0.252158
H52   H     H_    0.539230 0.916798 0.349589 0.225285
H53   H     H_    0.602996 0.929954 0.335232 0.212892
H54   H     H_    0.581365 0.000547 0.327384 0.219695
H55   H     H_    0.519419 0.995636 0.345420 0.208331
H56   H     H_    0.108197 0.911742 0.120834 0.263636
H57   H     H_    0.953527 0.939173 0.224522 0.160720
H58   H     H_    0.149293 0.953775 0.134113 0.257993
H59   H     H_    0.166690 0.902826 0.148170 0.247528
H60   H     H_    0.134080 0.938864 0.207400 0.229320
H61   H     H_    0.091513 0.898588 0.194051 0.221095
H62   H     H_    0.036849 0.945357 0.156905 0.236058
H63   H     H_    0.074980 0.988213 0.168999 0.213410
H64   H     H_    0.891806 0.911696 0.879134 0.263641
H65   H     H_    0.850707 0.953732 0.865868 0.257985
H66   H     H_    0.833313 0.902787 0.851796 0.247536
H67   H     H_    0.865920 0.938844 0.792577 0.229348
H68   H     H_    0.046470 0.939156 0.775436 0.160744
H69   H     H_    0.908488 0.898564 0.805912 0.221106
H70   H     H_    0.963153 0.945320 0.843071 0.236074
H71   H     H_    0.925022 0.988180 0.830993 0.213393
H72   H     H_    0.889308 0.974900 0.104018 0.263354
H73   H     H_    0.953924 0.961935 0.089413 0.260539
H74   H     H_    0.905008 0.923512 0.090232 0.252158
H75   H     H_    0.960767 0.916810 0.150402 0.225282
H76   H     H_    0.897003 0.929966 0.164761 0.212892
H77   H     H_    0.918638 0.000558 0.172616 0.219699
H78   H     H_    0.980584 0.995645 0.154579 0.208327
H79   H     H_    0.046123 0.464833 0.805895 0.188857
H80   H     H_    0.110690 0.974788 0.895969 0.263344
H81   H     H_    0.046068 0.961825 0.910560 0.260538
H82   H     H_    0.094973 0.923394 0.909719 0.252166
H83   H     H_    0.039219 0.916743 0.849540 0.225294
H84   H     H_    0.102989 0.929896 0.835196 0.212898
H85   H     H_    0.081382 0.000495 0.827380 0.219668
H86   H     H_    0.019435 0.995590 0.845416 0.208334
H87   H     H_    0.953876 0.464824 0.194110 0.188858
H88   H     H_    0.960805 0.455463 0.797186 0.181998
H89   H     H_    0.964103 0.436111 0.261678 0.171027
H90   H     H_    0.039194 0.455452 0.202823 0.181993
H91   H     H_    0.546123 0.464837 0.305897 0.188858
H92   H     H_    0.453877 0.464831 0.694105 0.188861
H93   H     H_    0.460804 0.455467 0.297190 0.181999
H94   H     H_    0.539195 0.455461 0.702815 0.182001
H95   H     H_    0.546113 0.964995 0.805988 0.188840
H96   H     H_    0.453877 0.964840 0.194100 0.188855
H97   H     H_    0.460785 0.955640 0.797349 0.182059
H98   H     H_    0.539196 0.955470 0.202807 0.181999
H99   H     H_    0.046123 0.964835 0.305897 0.188856
H100  H     H_    0.953527 0.439174 0.724519 0.160720
H101  H     H_    0.953879 0.964865 0.694086 0.188853
H102  H     H_    0.960805 0.955465 0.297188 0.181997
H103  H     H_    0.039199 0.955498 0.702781 0.182009
H104  H     H_    0.038552 0.544702 0.701144 0.085163
H105  H     H_    0.961449 0.544709 0.298849 0.085167
H106  H     H_    0.954478 0.553562 0.708741 0.099584
H107  H     H_    0.045522 0.553571 0.291247 0.099585
H108  H     H_    0.538553 0.544699 0.201140 0.085163
H109  H     H_    0.461448 0.544703 0.798855 0.085164
H110  H     H_    0.454479 0.553557 0.208736 0.099582
H111  H     H_    0.046474 0.439179 0.275494 0.160713
H112  H     H_    0.545521 0.553563 0.791257 0.099584
H113  H     H_    0.538575 0.044575 0.701014 0.085114
H114  H     H_    0.461447 0.044697 0.298862 0.085165
H115  H     H_    0.454492 0.053403 0.708538 0.099549
H116  H     H_    0.545521 0.053555 0.291267 0.099585
H117  H     H_    0.038552 0.044700 0.201142 0.085163
H118  H     H_    0.961443 0.044677 0.798882 0.085154
H119  H     H_    0.954478 0.053560 0.208739 0.099584
H120  H     H_    0.045518 0.053530 0.791299 0.099575
H121  H     H_    0.039245 0.518328 0.812551 0.241531
H122  H     H_    0.535901 0.436108 0.238335 0.171028
H123  H     H_    0.960756 0.518318 0.187446 0.241537
H124  H     H_    0.953139 0.506018 0.815384 0.231051
H125  H     H_    0.046862 0.506003 0.184615 0.231056
H126  H     H_    0.539246 0.518332 0.312550 0.241528
H127  H     H_    0.460755 0.518326 0.687448 0.241532
H128  H     H_    0.453139 0.506024 0.315383 0.231049
H129  H     H_    0.546861 0.506015 0.684616 0.231052
H130  H     H_    0.539267 0.018510 0.812497 0.241436
H131  H     H_    0.460754 0.018336 0.187451 0.241523
H132  H     H_    0.453151 0.006266 0.815356 0.230964
H133  H     H_    0.464101 0.436109 0.761670 0.171032
H134  H     H_    0.546860 0.006028 0.184617 0.231043
H135  H     H_    0.039245 0.018330 0.312550 0.241529
H136  H     H_    0.960750 0.018364 0.687459 0.241512
H137  H     H_    0.953139 0.006020 0.315384 0.231049
H138  H     H_    0.046858 0.006067 0.684621 0.231034
H139  H     H_    0.108198 0.411745 0.620832 0.263635
H140  H     H_    0.149294 0.453778 0.634112 0.257992
H141  H     H_    0.166690 0.402829 0.648168 0.247529
H142  H     H_    0.134080 0.438865 0.707399 0.229319
H143  H     H_    0.091512 0.398589 0.694048 0.221096
H144  H     H_    0.453528 0.439171 0.224525 0.160723
H145  H     H_    0.036849 0.445360 0.656904 0.236057
H146  H     H_    0.074980 0.488215 0.668999 0.213411
H147  H     H_    0.891802 0.411759 0.379178 0.263632
H148  H     H_    0.850707 0.453792 0.365895 0.257997
H149  H     H_    0.833309 0.402842 0.351843 0.247526
H150  H     H_    0.865919 0.438872 0.292609 0.229311
H151  H     H_    0.908487 0.398597 0.305963 0.221092
H152  H     H_    0.963151 0.445371 0.343103 0.236053
H153  H     H_    0.925019 0.488226 0.331003 0.213417
H154  H     H_    0.889308 0.474907 0.604017 0.263355
H155  H     H_    0.546473 0.439175 0.775483 0.160721
H156  H     H_    0.953924 0.461941 0.589411 0.260539
H157  H     H_    0.905008 0.423519 0.590229 0.252158
H158  H     H_    0.960767 0.416814 0.650398 0.225282
H159  H     H_    0.897003 0.429970 0.664758 0.212891
H160  H     H_    0.918639 0.500562 0.672615 0.219701
H161  H     H_    0.980585 0.495648 0.654579 0.208326
H162  H     H_    0.110693 0.474941 0.395987 0.263359
H163  H     H_    0.046079 0.461975 0.410598 0.260539
H164  H     H_    0.095000 0.423556 0.409786 0.252155
H165  H     H_    0.039238 0.416834 0.349620 0.225278
H166  H     H_    0.535930 0.936078 0.738499 0.171058
H167  H     H_    0.103000 0.429991 0.335256 0.212890
H168  H     H_    0.081355 0.500581 0.327386 0.219710
H169  H     H_    0.019409 0.495665 0.345423 0.208324
H170  H     H_    0.608189 0.411729 0.120839 0.263636
H171  H     H_    0.649281 0.453770 0.134101 0.257998
H172  H     H_    0.666690 0.402827 0.148168 0.247530
H173  H     H_    0.634088 0.438873 0.207394 0.229318
H174  H     H_    0.591522 0.398591 0.194059 0.221093
H175  H     H_    0.536848 0.445353 0.156908 0.236062
H176  H     H_    0.574976 0.488212 0.168998 0.213404
O1    O     O_3   0.250000 0.500030 0.750000 -0.448427
O2    O     O_R   0.633160 0.478000 0.271990 -0.664289
O3    O     O_R   0.866840 0.022050 0.227940 -0.637469
O4    O     O_R   0.366840 0.022050 0.272060 -0.612184
O5    O     O_R   0.633160 0.022050 0.727940 -0.612061
O6    O     O_R   0.633160 0.022050 0.272060 -0.637462
O7    O     O_R   0.366840 0.022050 0.727940 -0.637266
O8    O     O_R   0.633160 0.478000 0.728010 -0.645382
O9    O     O_R   0.366840 0.478000 0.271990 -0.645387
O10   O     O_R   0.866840 0.478000 0.228010 -0.664285
O11   O     O_R   0.133160 0.478000 0.771990 -0.664289
O12   O     O_R   0.133160 0.478000 0.228010 -0.645380
O13   O     O_R   0.866840 0.478000 0.771990 -0.645385
O14   O     O_R   0.866840 0.978000 0.728010 -0.664300
O15   O     O_R   0.133160 0.978000 0.271990 -0.664290
O16   O     O_R   0.133160 0.978000 0.728010 -0.645401
O17   O     O_3   0.750000 0.500030 0.250000 -0.448427
O18   O     O_R   0.866840 0.978000 0.271990 -0.645386
O19   O     O_R   0.366840 0.978000 0.228010 -0.664293
O20   O     O_R   0.633160 0.978000 0.771990 -0.664353
O21   O     O_R   0.633160 0.978000 0.228010 -0.645390
O22   O     O_R   0.366840 0.978000 0.771990 -0.645471
O23   O     O_R   0.280630 0.522060 0.834040 -0.626039
O24   O     O_R   0.719370 0.522060 0.165960 -0.626035
O25   O     O_R   0.719370 0.522060 0.834040 -0.630813
O26   O     O_R   0.280630 0.522060 0.165960 -0.630812
O27   O     O_R   0.780630 0.522060 0.334040 -0.626040
O28   O     O_3   0.750000 0.500030 0.750000 -0.444878
O29   O     O_R   0.219370 0.522060 0.665960 -0.626039
O30   O     O_R   0.219370 0.522060 0.334040 -0.630814
O31   O     O_R   0.780630 0.522060 0.665960 -0.630814
O32   O     O_R   0.780630 0.022060 0.834040 -0.626031
O33   O     O_R   0.219370 0.022060 0.165960 -0.626038
O34   O     O_R   0.219370 0.022060 0.834040 -0.630804
O35   O     O_R   0.780630 0.022060 0.165960 -0.630812
O36   O     O_R   0.280630 0.022060 0.334040 -0.626034
O37   O     O_R   0.719370 0.022060 0.665960 -0.626004
O38   O     O_R   0.719370 0.022060 0.334040 -0.630809
O39   O     O_3   0.250000 0.500030 0.250000 -0.444878
O40   O     O_R   0.280630 0.022060 0.665960 -0.630788
O41   O     O_R   0.280630 0.584040 0.772060 -0.607315
O42   O     O_R   0.719370 0.584040 0.227940 -0.607313
O43   O     O_R   0.719370 0.584040 0.772060 -0.611467
O44   O     O_R   0.280630 0.584040 0.227940 -0.611460
O45   O     O_R   0.780630 0.584040 0.272060 -0.607317
O46   O     O_R   0.219370 0.584040 0.727940 -0.607315
O47   O     O_R   0.219370 0.584040 0.272060 -0.611472
O48   O     O_R   0.780630 0.584040 0.727940 -0.611464
O49   O     O_R   0.780630 0.084040 0.772060 -0.607323
O50   O     O_3   0.750000 0.000030 0.750000 -0.448426
O51   O     O_R   0.219370 0.084040 0.227940 -0.607317
O52   O     O_R   0.219370 0.084040 0.772060 -0.611480
O53   O     O_R   0.780630 0.084040 0.227940 -0.611466
O54   O     O_R   0.280630 0.084040 0.272060 -0.607311
O55   O     O_R   0.719370 0.084040 0.727940 -0.607267
O56   O     O_R   0.719370 0.084040 0.272060 -0.611460
O57   O     O_R   0.280630 0.084040 0.727940 -0.611369
O58   O     O_R   0.280630 0.416020 0.728000 -0.630524
O59   O     O_R   0.719370 0.416020 0.272000 -0.630526
O60   O     O_R   0.719370 0.416020 0.728000 -0.628815
O61   O     O_3   0.250000 0.000030 0.250000 -0.448426
O62   O     O_R   0.280630 0.416020 0.272000 -0.628818
O63   O     O_R   0.780630 0.416020 0.228000 -0.630529
O64   O     O_R   0.219370 0.416020 0.772000 -0.630529
O65   O     O_R   0.219370 0.416020 0.228000 -0.628819
O66   O     O_R   0.780630 0.416020 0.772000 -0.628820
O67   O     O_R   0.780630 0.916020 0.728000 -0.630519
O68   O     O_R   0.219370 0.916020 0.272000 -0.630527
O69   O     O_R   0.219370 0.916020 0.728000 -0.628811
O70   O     O_R   0.780630 0.916020 0.272000 -0.628818
O71   O     O_R   0.280630 0.916020 0.228000 -0.630529
O72   O     O_3   0.250000 0.000030 0.750000 -0.444897
O73   O     O_R   0.719370 0.916020 0.772000 -0.630544
O74   O     O_R   0.719370 0.916020 0.228000 -0.628818
O75   O     O_R   0.280630 0.916020 0.772000 -0.628811
O76   O     O_R   0.219370 0.478010 0.834030 -0.620651
O77   O     O_R   0.780630 0.478010 0.165970 -0.620653
O78   O     O_R   0.780630 0.478010 0.834030 -0.621423
O79   O     O_R   0.219370 0.478010 0.165970 -0.621422
O80   O     O_R   0.719370 0.478010 0.334030 -0.620650
O81   O     O_R   0.280630 0.478010 0.665970 -0.620649
O82   O     O_R   0.280630 0.478010 0.334030 -0.621422
O83   O     O_3   0.750000 0.000030 0.250000 -0.444878
O84   O     O_R   0.719370 0.478010 0.665970 -0.621420
O85   O     O_R   0.719370 0.978010 0.834030 -0.620674
O86   O     O_R   0.280630 0.978010 0.165970 -0.620655
O87   O     O_R   0.280630 0.978010 0.834030 -0.621453
O88   O     O_R   0.719370 0.978010 0.165970 -0.621426
O89   O     O_R   0.219370 0.978010 0.334030 -0.620653
O90   O     O_R   0.780630 0.978010 0.665970 -0.620661
O91   O     O_R   0.780630 0.978010 0.334030 -0.621424
O92   O     O_R   0.219370 0.978010 0.665970 -0.621432
O93   O     O_R   0.366840 0.522050 0.772060 -0.612192
O94   O     O_R   0.366840 0.478000 0.728010 -0.664287
O95   O     O_R   0.633160 0.522050 0.227940 -0.612190
O96   O     O_R   0.633160 0.522050 0.772060 -0.637474
O97   O     O_R   0.366840 0.522050 0.227940 -0.637466
O98   O     O_R   0.866840 0.522050 0.272060 -0.612197
O99   O     O_R   0.133160 0.522050 0.727940 -0.612191
O100  O     O_R   0.133160 0.522050 0.272060 -0.637483
O101  O     O_R   0.866840 0.522050 0.727940 -0.637472
O102  O     O_R   0.866840 0.022050 0.772060 -0.612162
O103  O     O_R   0.133160 0.022050 0.227940 -0.612189
O104  O     O_R   0.133160 0.022050 0.772060 -0.637426
Zn1   Zn    Zn3+2 0.206230 0.468570 0.781490 0.976800
Zn2   Zn    Zn3+2 0.293770 0.968570 0.218510 0.976793
Zn3   Zn    Zn3+2 0.293770 0.968570 0.781490 0.986363
Zn4   Zn    Zn3+2 0.706230 0.968570 0.218510 0.986439
Zn5   Zn    Zn3+2 0.206230 0.968570 0.281490 0.976799
Zn6   Zn    Zn3+2 0.793770 0.968570 0.718510 0.976797
Zn7   Zn    Zn3+2 0.793770 0.968570 0.281490 0.986445
Zn8   Zn    Zn3+2 0.206230 0.968570 0.718510 0.986437
Zn9   Zn    Zn3+2 0.293770 0.531500 0.781500 1.024924
Zn10  Zn    Zn3+2 0.706230 0.531500 0.218500 1.024927
Zn11  Zn    Zn3+2 0.706230 0.531500 0.781500 1.014454
Zn12  Zn    Zn3+2 0.793770 0.468570 0.218510 0.976803
Zn13  Zn    Zn3+2 0.293770 0.531500 0.218500 1.014462
Zn14  Zn    Zn3+2 0.793770 0.531500 0.281500 1.024920
Zn15  Zn    Zn3+2 0.206230 0.531500 0.718500 1.024926
Zn16  Zn    Zn3+2 0.206230 0.531500 0.281500 1.014447
Zn17  Zn    Zn3+2 0.793770 0.531500 0.718500 1.014456
Zn18  Zn    Zn3+2 0.793770 0.031500 0.781500 1.024908
Zn19  Zn    Zn3+2 0.206230 0.031500 0.218500 1.024923
Zn20  Zn    Zn3+2 0.206230 0.031500 0.781500 1.014450
Zn21  Zn    Zn3+2 0.793770 0.031500 0.218500 1.014455
Zn22  Zn    Zn3+2 0.293770 0.031500 0.281500 1.024932
Zn23  Zn    Zn3+2 0.793770 0.468570 0.781490 0.986446
Zn24  Zn    Zn3+2 0.706230 0.031500 0.718500 1.025010
Zn25  Zn    Zn3+2 0.706230 0.031500 0.281500 1.014465
Zn26  Zn    Zn3+2 0.293770 0.031500 0.718500 1.014599
Zn27  Zn    Zn3+2 0.206230 0.468570 0.218510 0.986451
Zn28  Zn    Zn3+2 0.706230 0.468570 0.281490 0.976798
Zn29  Zn    Zn3+2 0.293770 0.468570 0.718510 0.976807
Zn30  Zn    Zn3+2 0.293770 0.468570 0.281490 0.986446
Zn31  Zn    Zn3+2 0.706230 0.468570 0.718510 0.986453
Zn32  Zn    Zn3+2 0.706230 0.968570 0.781490 0.976721

loop_
_geom_bond_atom_site_label_1
_geom_bond_atom_site_label_2
_ccdc_geom_bond_type
C217  Cl14  S    
C194  C196  S    
C149  H19   S    
C8    C26   S    
C209  H103  S    
C163  H62   S    
C74   C83   S    
O61   Zn5   S    
C223  C226  S    
C15   C32   S    
O20   Zn32  S    
C203  C205  S    
C112  O2    A    
C11   C249  T    
C225  H118  S    
C57   O21   A    
O59   Zn28  S    
C173  H86   S    
C143  C144  S    
O38   Zn25  S    
O31   Zn17  S    
C158  H45   S    
C197  C199  S    
C218  H112  S    
C203  C238  S    
C19   C37   S    
C203  H131  S    
C60   O40   A    
C226  H119  S    
C143  H17   S    
C209  H138  S    
C1    C233  S    
C227  H120  S    
C125  H143  S    
O84   Zn31  S    
C90   C116  T    
C6    C55   S    
C88   C97   S    
O28   Zn23  S    
C210  H104  S    
C183  C236  S    
C164  H61   S    
C12   C30   S    
O62   Zn30  S    
C125  C126  S    
C197  H91   S    
C212  Cl10  S    
C100  C109  T    
C144  H15   S    
C216  C233  S    
C220  C238  S    
C188  C241  S    
C175  H82   S    
O17   Zn14  S    
C166  H70   S    
C204  C239  S    
C214  C231  S    
C142  H5    S    
C131  H159  S    
C227  Cl8   S    
C51   O84   A    
C181  C183  S    
C13   O16   A    
O50   Zn24  S    
C47   O79   A    
C67   C79   S    
C140  C141  S    
O16   Zn8   S    
O27   Zn14  S    
C159  H43   S    
C192  H68   S    
C14   C251  T    
C225  C242  S    
C144  H14   S    
C68   C239  S    
C82   C91   T    
C217  C234  S    
C61   C146  S    
C190  H57   S    
C54   O87   A    
O100  Zn16  S    
C130  C177  S    
C108  C118  S    
C45   O25   A    
C16   C253  T    
C137  C179  S    
C161  H53   S    
C43   O23   A    
O3    Zn21  S    
C150  H31   S    
C62   C157  S    
C151  H30   S    
O18   Zn7   S    
C211  Cl9   S    
C136  H163  S    
C154  C155  S    
O53   Zn21  S    
C214  Cl11  S    
C8    C245  T    
C64   O44   A    
C160  H55   S    
C158  C159  S    
C74   O73   A    
C73   O65   A    
C199  C234  S    
C17   C34   S    
C213  O11   A    
O95   Zn10  S    
O19   Zn2   S    
C67   O57   A    
C227  C244  S    
C148  H22   S    
O83   Zn4   S    
C129  H147  S    
C197  C232  S    
C127  C176  S    
C35   O19   A    
C221  H115  S    
C210  C228  S    
O101  Zn17  S    
C144  C145  S    
C112  C232  S    
C141  H6    S    
O24   Zn10  S    
C216  H109  S    
O67   Zn6   S    
C176  H89   S    
C23   C41   S    
C120  C135  T    
C219  C237  S    
C156  C158  S    
C130  C131  S    
C101  C117  T    
O64   Zn1   S    
C80   C88   T    
C213  C228  S    
O8    Zn31  S    
C128  H150  S    
C138  H174  S    
C223  C241  S    
C212  H106  S    
C139  H171  S    
O78   Zn23  S    
C58   C254  S    
C84   C93   T    
O25   Zn11  S    
C47   O26   A    
C86   C95   T    
C167  H69   S    
C49   O81   A    
C186  C239  S    
C43   C251  S    
C178  C231  S    
O55   Zn24  S    
C180  C236  S    
C63   O48   A    
O35   Zn21  S    
O40   Zn26  S    
C163  C188  S    
C46   O5    A    
C198  C200  S    
C130  H160  S    
C226  Cl7   S    
O42   Zn10  S    
C153  H39   S    
C150  C151  S    
C78   C87   T    
O82   Zn30  S    
C156  H47   S    
O81   Zn29  S    
O104  Zn20  S    
C66   C113  S    
C79   C115  T    
C137  H176  S    
C140  H8    S    
C69   O56   A    
C147  C148  S    
C208  C243  S    
C65   C101  S    
C14   C31   S    
C128  C129  S    
C159  H41   S    
C63   C124  S    
C198  H127  S    
O87   Zn3   S    
C167  C169  S    
O93   Zn9   S    
C191  C234  S    
C148  H21   S    
C221  C239  S    
O1    Zn29  S    
C169  H66   S    
C163  H63   S    
C36   C37   T    
O83   Zn21  S    
C189  H46   S    
O83   Zn7   S    
C75   C84   S    
C46   C237  S    
C170  C171  S    
C60   C256  S    
C212  C230  S    
C188  C190  S    
O1    Zn15  S    
C71   O59   A    
C152  H27   S    
C174  C175  S    
C178  H111  S    
C202  O10   A    
C172  H73   S    
C155  H33   S    
O11   Zn1   S    
C165  H58   S    
C155  H34   S    
O75   Zn3   S    
O80   Zn28  S    
O4    Zn22  S    
C219  H113  S    
C170  H77   S    
C129  H149  S    
C49   O29   A    
C162  H50   S    
C176  C178  S    
C196  H125  S    
C58   O37   A    
O39   Zn13  S    
C195  H124  S    
C203  H96   S    
C152  H28   S    
O47   Zn16  S    
C132  H157  S    
C17   C254  T    
O70   Zn7   S    
C63   O43   A    
C215  C232  S    
C143  C182  S    
O10   Zn12  S    
C75   O68   A    
C193  C228  S    
C224  C231  S    
C177  C230  S    
C202  O98   A    
C182  C234  S    
O7    Zn26  S    
C150  C184  S    
C59   O38   A    
O39   Zn16  S    
O22   Zn3   S    
C44   O77   A    
C126  H140  S    
C205  C240  S    
C220  Cl2   S    
C72   O66   A    
O28   Zn11  S    
C57   O6    A    
O23   Zn9   S    
C220  H114  S    
C31   C32   T    
C134  H167  S    
C151  C152  S    
O79   Zn27  S    
O30   Zn16  S    
C1    O93   A    
C74   O67   A    
C160  H54   S    
C50   C249  S    
C202  C229  S    
O63   Zn12  S    
C154  H38   S    
C210  C212  S    
C217  H110  S    
C71   O63   A    
C208  H102  S    
C206  C241  S    
C123  C168  S    
C145  H11   S    
C136  H162  S    
O57   Zn26  S    
C55   O35   A    
C54   O34   A    
C64   O47   A    
O34   Zn20  S    
C149  H18   S    
C53   O33   A    
C105  C115  S    
O36   Zn22  S    
O41   Zn9   S    
C198  C233  S    
C195  H88   S    
C156  C186  S    
O68   Zn5   S    
C89   C98   S    
C166  C189  S    
C204  H97   S    
C65   O55   A    
C208  H137  S    
C185  H2    S    
O29   Zn15  S    
C173  H85   S    
C176  C229  S    
C156  H48   S    
O5    Zn24  S    
O65   Zn27  S    
C107  C117  S    
C73   C82   S    
C143  H16   S    
C75   O71   A    
C200  H129  S    
C223  H117  S    
C211  C214  S    
C70   O64   A    
C207  C209  S    
C123  H146  S    
O102  Zn18  S    
C125  H142  S    
C194  H87   S    
C24   O3    A    
C91   C99   S    
C49   C245  S    
C194  H123  S    
O39   Zn30  S    
O45   Zn14  S    
C96   C105  T    
C130  H161  S    
C4    C53   S    
C216  Cl13  S    
C133  H168  S    
C171  H76   S    
C175  H81   S    
O72   Zn3   S    
C166  H71   S    
O37   Zn24  S    
C50   O82   A    
C161  C162  S    
C72   O60   A    
C242  C246  S    
C35   O4    A    
C180  O8    A    
C207  H101  S    
C69   O53   A    
C164  C165  S    
C133  C178  S    
C52   O32   A    
C190  C243  S    
C206  C208  S    
C123  C125  S    
C13   C244  S    
C111  C121  S    
C15   C252  T    
C134  H165  S    
C147  C183  S    
C168  C177  S    
C193  H79   S    
C12   C250  T    
C209  C244  S    
C103  C111  T    
C165  H56   S    
C50   O30   A    
C76   C85   S    
C197  H126  S    
C44   O24   A    
C2    O103  A    
C222  H116  S    
C147  H25   S    
C161  H52   S    
C150  H32   S    
C67   O52   A    
O26   Zn13  S    
C151  H29   S    
C152  H26   S    
C136  H164  S    
C72   C81   S    
C179  C182  S    
C81   C89   T    
C169  H64   S    
C149  H20   S    
O50   Zn32  S    
O9    Zn30  S    
C194  C229  S    
C25   C42   S    
O6    Zn25  S    
C46   O20   A    
C187  C240  S    
C39   C42   T    
O85   Zn32  S    
C200  C236  S    
C48   O80   A    
C207  C242  S    
C51   O31   A    
O48   Zn17  S    
O28   Zn17  S    
C127  H152  S    
C198  H92   S    
C132  H156  S    
C173  C174  S    
C98   C107  T    
C195  C230  S    
C106  C116  S    
C52   O85   A    
C210  Cl1   S    
C158  H44   S    
C205  H134  S    
C76   O69   A    
O72   Zn8   S    
C168  C228  S    
C95   C104  S    
C62   O42   A    
O77   Zn12  S    
C61   O41   A    
C201  H130  S    
C3    C20   T    
O52   Zn20  S    
O60   Zn31  S    
C141  H7    S    
C184  H166  S    
C97   C106  T    
C44   C250  S    
C94   C103  S    
O98   Zn14  S    
C133  C134  S    
C213  O99   A    
O43   Zn11  S    
C102  C110  T    
C131  C132  S    
C179  H122  S    
C142  H4    S    
C184  C237  S    
C223  Cl5   S    
O94   Zn29  S    
C77   O74   A    
C109  C119  S    
C10   C28   S    
O71   Zn2   S    
C170  C190  S    
C211  C229  S    
O92   Zn8   S    
C137  H175  S    
C140  C181  S    
C216  C218  S    
C207  H136  S    
C186  H13   S    
O50   Zn18  S    
C93   C102  S    
O17   Zn10  S    
C60   O92   A    
C2    O15   A    
C112  O95   A    
C18   C255  T    
C191  O9    A    
C173  C192  S    
C7    C25   T    
C133  H169  S    
O61   Zn19  S    
C169  H65   S    
C51   C248  S    
C218  C236  S    
C55   O88   A    
O72   Zn20  S    
O17   Zn28  S    
C226  C243  S    
C147  H23   S    
O49   Zn18  S    
C222  C240  S    
C122  C157  T    
C184  C186  S    
O83   Zn25  S    
O58   Zn29  S    
C45   O78   A    
C9    C247  T    
O21   Zn4   S    
C185  C187  S    
C138  C139  S    
C56   O36   A    
C181  C233  S    
C19   C256  T    
C172  H74   S    
C155  H36   S    
C189  C242  S    
C174  H84   S    
C7    C54   S    
C179  C232  S    
C170  H78   S    
C18   C36   S    
C246  O102  A    
C222  Cl4   S    
C224  O100  A    
C129  H148  S    
C56   O89   A    
C162  H51   S    
C180  O96   A    
C171  C172  S    
C235  O101  A    
O72   Zn26  S    
C192  C244  S    
C70   C78   S    
O51   Zn19  S    
O15   Zn5   S    
C163  C164  S    
O73   Zn32  S    
C140  H9    S    
C175  H80   S    
C193  H121  S    
C220  C222  S    
C167  H67   S    
O96   Zn11  S    
C119  C124  T    
C181  H133  S    
C83   C92   T    
O76   Zn1   S    
C132  H154  S    
C199  H93   S    
C183  H155  S    
C206  H135  S    
C48   C247  S    
C215  C217  S    
C224  O12   A    
C138  H173  S    
C139  H172  S    
C204  H132  S    
O44   Zn13  S    
C177  H100  S    
C24   C243  S    
C219  Cl16  S    
C66   O54   A    
C126  H141  S    
C214  H107  S    
C215  Cl12  S    
C59   O91   A    
C13   O104  A    
C225  C227  S    
C172  H72   S    
C5    C22   T    
C193  C195  S    
O2    Zn28  S    
C5    C52   S    
O61   Zn22  S    
C127  H153  S    
O28   Zn31  S    
C131  H158  S    
O56   Zn25  S    
C9    C27   S    
O39   Zn27  S    
C64   C135  S    
O103  Zn19  S    
C35   C238  S    
O1    Zn9   S    
C225  Cl6   S    
C145  H10   S    
C159  H42   S    
C71   C80   S    
C2    C241  S    
O97   Zn13  S    
C215  H108  S    
O69   Zn8   S    
O99   Zn15  S    
C73   O62   A    
O32   Zn18  S    
C230  C235  S    
C148  C149  S    
C76   O75   A    
C110  C120  S    
O14   Zn6   S    
O90   Zn6   S    
C34   C38   T    
C134  C136  S    
C164  H60   S    
C205  H98   S    
C48   O27   A    
C114  C122  S    
C189  C192  S    
C246  O14   A    
O12   Zn27  S    
C16   C33   S    
C219  C221  S    
C20   C38   S    
C85   C94   T    
C185  C238  S    
C21   C39   S    
C196  C231  S    
O50   Zn6   S    
C174  H83   S    
C22   C40   S    
C87   C96   S    
C165  H59   S    
C188  H35   S    
O61   Zn2   S    
C142  H3    S    
C47   C252  S    
C62   O45   A    
C196  H90   S    
C168  H1    S    
C68   O7    A    
C104  C114  T    
C61   O46   A    
C162  H49   S    
C40   C41   T    
C99   C108  T    
C77   C86   S    
C201  H95   S    
C166  C167  S    
C123  H145  S    
C201  C204  S    
C235  O13   A    
C10   C248  T    
C66   O51   A    
C182  H144  S    
C69   C90   S    
O89   Zn5   S    
O66   Zn23  S    
C92   C100  S    
C191  O97   A    
O91   Zn7   S    
O33   Zn19  S    
C30   C33   T    
C121  C146  T    
C171  H75   S    
C206  H99   S    
O17   Zn12  S    
C199  H128  S    
O46   Zn15  S    
C128  H151  S    
C153  H40   S    
C201  C237  S    
C139  H170  S    
C68   O22   A    
C137  C138  S    
C70   O58   A    
C218  Cl15  S    
C160  C187  S    
C126  H139  S    
O74   Zn4   S    
C141  C142  S    
C211  H105  S    
C4    C21   T    
O54   Zn22  S    
O86   Zn2   S    
C153  C185  S    
O88   Zn4   S    
C6    C23   T    
C1    O94   A    
C200  H94   S    
C53   O86   A    
C160  C161  S    
C57   C240  S    
C77   O70   A    
C113  C118  T    
O13   Zn23  S    
C154  H37   S    
C43   O76   A    
C11   C29   S    
C26   C29   T    
C56   C255  S    
O1    Zn1   S    
C27   C28   T    
C24   O18   A    
C58   O90   A    
C153  C154  S    
C221  Cl3   S    
C145  H12   S    
C65   O49   A    
C187  H24   S    
C127  C128  S    
C45   C253  S    
C3    C59   S    
