data_mof_unit_67396.cif
_audit_creation_date              2012-12-11T19:52:03-0500
_audit_creation_method            fapswitch 2.2
_symmetry_space_group_name_H-M    P1
_symmetry_Int_Tables_number       1
_space_group_crystal_system       triclinic
_cell_length_a                    17.302524
_cell_length_b                    28.306293
_cell_length_c                    8.51358
_cell_angle_alpha                 89.550329
_cell_angle_beta                  102.311446
_cell_angle_gamma                 90.018436
_cell_volume                      4073.67881736

loop_
_atom_site_label
_atom_site_type_symbol
_atom_type_description
_atom_site_fract_x
_atom_site_fract_y
_atom_site_fract_z
_atom_type_partial_charge
Ba1   Ba    Ba6+2 0.000400 0.534870 0.845190 1.699489
Ba2   Ba    Ba6+2 0.000400 0.465130 0.345190 1.684971
Ba3   Ba    Ba6+2 0.500400 0.034870 0.845190 1.698475
Ba4   Ba    Ba6+2 0.500400 0.965130 0.345190 1.685156
C1    C     C_3   0.041877 0.770871 0.474555 -0.348262
C2    C     C_3   0.949393 0.242446 0.172855 -0.293078
C3    C     C_3   0.541867 0.276279 0.516888 -0.338873
C4    C     C_3   0.431157 0.745136 0.160578 -0.295702
C5    C     C_R   0.124059 0.626104 0.370044 -0.203524
C6    C     C_R   0.142243 0.383991 0.906717 -0.247766
C7    C     C_R   0.622180 0.127172 0.368336 -0.225737
C8    C     C_R   0.628059 0.876696 0.878091 -0.246046
C9    C     C_2   0.750331 0.357673 0.914298 0.151893
C10   C     C_2   0.760362 0.644823 0.426490 0.140254
C11   C     C_2   0.249557 0.858432 0.912660 0.139711
C12   C     C_2   0.258153 0.143636 0.417003 0.126729
C13   C     C_2   0.811130 0.390646 0.910255 -0.012106
C14   C     C_2   0.821921 0.612754 0.424640 -0.006008
C15   C     C_2   0.311834 0.890500 0.910997 -0.008857
C16   C     C_2   0.321995 0.112744 0.422554 -0.013158
C17   C     C_2   0.843455 0.345576 0.685512 -0.042871
C18   C     C_2   0.857374 0.659990 0.204225 -0.057182
C19   C     C_2   0.342042 0.846225 0.682791 -0.042361
C20   C     C_2   0.361105 0.161379 0.207972 -0.072917
C21   C     C_3   0.790482 0.308205 0.717455 -0.026355
C22   C     C_3   0.802998 0.696788 0.233356 -0.053494
C23   C     C_3   0.289279 0.808714 0.715127 -0.031579
C24   C     C_3   0.304183 0.196846 0.234007 -0.042939
C25   C     C_3   0.725073 0.327099 0.780400 0.087441
C26   C     C_3   0.737501 0.678291 0.298429 0.122106
C27   C     C_3   0.224212 0.827536 0.779526 0.087082
C28   C     C_3   0.236433 0.176468 0.286484 0.130972
C29   C     C_2   0.757262 0.274498 0.580915 -0.081311
C30   C     C_2   0.769265 0.730589 0.095673 -0.068637
C31   C     C_2   0.255337 0.775233 0.577996 -0.081705
C32   C     C_2   0.275423 0.233357 0.102270 -0.078105
C33   C     C_2   0.248243 0.727947 0.601793 0.159958
C34   C     C_2   0.264101 0.279087 0.138775 0.168011
C35   C     C_2   0.749744 0.227392 0.606656 0.159156
C36   C     C_2   0.758577 0.777200 0.121344 0.166892
C37   C     C_R   0.250590 0.686409 0.341268 0.050327
C38   C     C_R   0.266283 0.321323 0.874099 0.144250
C39   C     C_R   0.753531 0.184820 0.348745 0.052747
C40   C     C_R   0.759512 0.818404 0.857522 0.123505
C41   C     C_R   0.208589 0.695699 0.471678 -0.048930
C42   C     C_R   0.228800 0.314724 0.012540 -0.087500
C43   C     C_R   0.710370 0.194888 0.476683 -0.051219
C44   C     C_R   0.718540 0.809563 0.989516 -0.071239
C45   C     C_3   0.001358 0.725622 0.050724 0.431316
C46   C     C_3   0.988469 0.279380 0.696979 0.291730
C47   C     C_3   0.507932 0.225458 0.071788 0.399387
C48   C     C_3   0.483228 0.777177 0.681987 0.284974
C49   C     C_R   0.236110 0.642503 0.246576 -0.127830
C50   C     C_R   0.243108 0.361077 0.760364 -0.077326
C51   C     C_R   0.737002 0.141730 0.250460 -0.119463
C52   C     C_R   0.737865 0.859182 0.748211 -0.090141
C53   C     C_R   0.180261 0.611622 0.267245 0.070093
C54   C     C_R   0.184958 0.390923 0.775389 0.065258
C55   C     C_R   0.677557 0.112511 0.263123 0.081213
C56   C     C_R   0.677303 0.887689 0.759022 0.101458
C57   C     C_R   0.141833 0.662820 0.485054 -0.034203
C58   C     C_R   0.164451 0.349100 0.025811 0.012686
C59   C     C_R   0.641763 0.163089 0.486773 -0.045309
C60   C     C_R   0.650121 0.841547 0.997848 -0.030711
C61   C     C_3   0.993535 0.778906 0.063363 -0.009715
C62   C     C_3   0.048966 0.240241 0.705302 0.027283
C63   C     C_3   0.495064 0.277204 0.106549 0.009168
C64   C     C_3   0.542422 0.737664 0.682782 0.035523
C65   C     C_3   0.720648 0.508457 0.909385 0.427625
C66   C     C_3   0.702903 0.504781 0.389890 0.429944
C67   C     C_3   0.211912 0.005344 0.914571 0.409288
C68   C     C_3   0.199678 0.007834 0.397277 0.438873
C69   C     C_3   0.631332 0.504406 0.893175 0.163658
C70   C     C_3   0.615539 0.508103 0.403992 0.151166
C71   C     C_3   0.123535 0.010021 0.919175 0.220540
C72   C     C_3   0.115105 0.017361 0.422743 0.165446
C73   C     C_3   0.263999 0.494440 0.047759 0.486627
C74   C     C_3   0.266310 0.508980 0.556868 0.398892
C75   C     C_3   0.780155 0.998954 0.071894 0.457143
C76   C     C_3   0.776417 0.005761 0.582221 0.412110
C77   C     C_3   0.328638 0.527156 0.007402 -0.013214
C78   C     C_3   0.350923 0.503932 0.525094 -0.025748
C79   C     C_3   0.869883 0.988501 0.096607 -0.033524
C80   C     C_3   0.859286 0.996381 0.547642 0.000936
C81   C     C_3   0.991454 0.729698 0.512278 0.329611
C82   C     C_3   0.982908 0.291122 0.151523 0.352511
C83   C     C_3   0.495050 0.232217 0.541351 0.314948
C84   C     C_3   0.470033 0.791824 0.134550 0.366091
C85   C     C_2   0.858579 0.382702 0.787136 -0.315793
C86   C     C_2   0.873921 0.623158 0.309617 -0.266660
C87   C     C_2   0.357677 0.883213 0.784800 -0.321329
C88   C     C_2   0.377378 0.124638 0.314402 -0.256010
H1    H     H_    0.931691 0.742922 0.514340 0.138866
H2    H     H_    0.960989 0.315624 0.232832 0.126048
H3    H     H_    0.434793 0.242973 0.549864 0.138930
H4    H     H_    0.445928 0.819278 0.202653 0.116755
H5    H     H_    0.620077 0.504729 0.016087 0.093325
H6    H     H_    0.614327 0.514778 0.530101 0.175445
H7    H     H_    0.117904 0.010879 0.045810 0.106887
H8    H     H_    0.118904 0.032084 0.543879 0.160147
H9    H     H_    0.210877 0.495107 0.951129 0.038370
H10   H     H_    0.224776 0.498712 0.446771 0.103803
H11   H     H_    0.767064 0.021207 0.963041 0.050401
H12   H     H_    0.732908 0.001510 0.467560 0.056643
H13   H     H_    0.322832 0.532298 0.878592 0.090613
H14   H     H_    0.349910 0.496423 0.399655 0.101994
H15   H     H_    0.890109 0.995669 0.983010 0.104919
H16   H     H_    0.855874 0.987083 0.421816 0.097004
H17   H     H_    0.321879 0.563246 0.052422 0.085211
H18   H     H_    0.380383 0.472451 0.590059 0.136681
H19   H     H_    0.903383 0.013067 0.185495 0.154199
H20   H     H_    0.886047 0.964953 0.617622 0.151083
H21   H     H_    0.982924 0.702562 0.416859 -0.063435
H22   H     H_    0.961879 0.303008 0.024870 -0.067237
H23   H     H_    0.487890 0.208254 0.436542 -0.065944
H24   H     H_    0.455622 0.800984 0.004444 -0.084646
H25   H     H_    0.086006 0.758161 0.407881 0.053201
H26   H     H_    0.967555 0.217296 0.087970 0.150706
H27   H     H_    0.503443 0.301880 0.437164 0.137436
H28   H     H_    0.450869 0.717405 0.086368 0.151365
H29   H     H_    0.004093 0.797799 0.399970 0.134802
H30   H     H_    0.883854 0.244389 0.149794 0.114773
H31   H     H_    0.565343 0.293890 0.633192 0.192847
H32   H     H_    0.365847 0.748997 0.127365 0.114191
H33   H     H_    0.048190 0.793533 0.138898 0.083564
H34   H     H_    0.077378 0.232502 0.832664 0.054449
H35   H     H_    0.548958 0.291482 0.186125 0.083166
H36   H     H_    0.570529 0.727789 0.808539 0.051599
H37   H     H_    0.274513 0.634542 0.165329 0.092869
H38   H     H_    0.276996 0.367314 0.669141 0.136683
H39   H     H_    0.776992 0.132689 0.173366 0.105570
H40   H     H_    0.775872 0.867797 0.666273 0.132158
H41   H     H_    0.902519 0.408865 0.772952 0.076452
H42   H     H_    0.915871 0.596209 0.292503 0.068839
H43   H     H_    0.400960 0.909638 0.769234 0.078694
H44   H     H_    0.420919 0.098319 0.300454 0.069487
H45   H     H_    0.071684 0.604930 0.365948 0.042130
H46   H     H_    0.094854 0.408229 0.914282 0.067935
H47   H     H_    0.570361 0.105671 0.366826 0.051476
H48   H     H_    0.579275 0.900081 0.883623 0.067896
H49   H     H_    0.729574 0.289623 0.464867 0.092329
H50   H     H_    0.743027 0.715762 0.979102 0.104088
H51   H     H_    0.226844 0.790668 0.462942 0.088407
H52   H     H_    0.254113 0.221294 0.979820 0.111988
H53   H     H_    0.073586 0.788146 0.586334 0.181666
H54   H     H_    0.971783 0.229326 0.297506 0.171006
H55   H     H_    0.591942 0.266460 0.461852 0.055886
H56   H     H_    0.448209 0.733923 0.288395 0.168665
H57   H     H_    0.053641 0.717504 0.999476 0.102044
H58   H     H_    0.019391 0.310829 0.758836 -0.030165
H59   H     H_    0.561699 0.222424 0.020929 0.103190
H60   H     H_    0.515134 0.807456 0.749041 -0.022809
H61   H     H_    0.012042 0.710077 0.173457 -0.186454
H62   H     H_    0.942763 0.267157 0.761507 0.015884
H63   H     H_    0.519597 0.205311 0.187044 -0.166753
H64   H     H_    0.437296 0.764317 0.744696 0.020204
H65   H     H_    0.942851 0.787168 0.119238 0.075690
H66   H     H_    0.020111 0.207697 0.648673 0.130501
H67   H     H_    0.444397 0.280317 0.166599 0.069014
H68   H     H_    0.512439 0.706218 0.620221 0.121983
H69   H     H_    0.736691 0.492736 0.802007 0.040714
H70   H     H_    0.712235 0.529102 0.295348 0.008134
H71   H     H_    0.217502 0.987337 0.802110 0.032939
H72   H     H_    0.210593 0.032069 0.303998 -0.018522
O1    O     O_2   0.163830 0.569270 0.980510 -0.533125
O2    O     O_2   0.163830 0.430730 0.480510 -0.466352
O3    O     O_2   0.663830 0.069270 0.980510 -0.503567
O4    O     O_2   0.663830 0.930730 0.480510 -0.494225
O5    O     O_3   0.751102 0.515571 0.540070 -0.631076
O6    O     O_3   0.754484 0.484871 0.050447 -0.640721
O7    O     O_3   0.253308 0.014503 0.543947 -0.634021
O8    O     O_3   0.247739 0.980043 0.050923 -0.627593
O9    O     O_3   0.933034 0.708839 0.946580 -0.540894
O10   O     O_3   0.953664 0.289037 0.534904 -0.581235
O11   O     O_3   0.442497 0.209567 0.956806 -0.537677
O12   O     O_3   0.448437 0.789377 0.522102 -0.579827
O13   O     O_3   0.904940 0.476110 0.001150 -0.496497
O14   O     O_3   0.904940 0.523890 0.501150 -0.487561
O15   O     O_3   0.404940 0.976110 0.001150 -0.507643
O16   O     O_3   0.404940 0.023890 0.501150 -0.484898
O17   O     O_3   0.095420 0.524330 0.188510 -0.470788
O18   O     O_3   0.095420 0.475670 0.688510 -0.516363
O19   O     O_3   0.595420 0.024330 0.188510 -0.490713
O20   O     O_3   0.595420 0.975670 0.688510 -0.502154
O21   O     O_3   0.028940 0.612400 0.656050 -0.476709
O22   O     O_3   0.028940 0.387600 0.156050 -0.506380
O23   O     O_3   0.528940 0.112400 0.656050 -0.468956
O24   O     O_3   0.528940 0.887600 0.156050 -0.513588
O25   O     O_2   0.140939 0.663747 0.822219 -0.446666
O26   O     O_2   0.155240 0.353013 0.350826 -0.396175
O27   O     O_2   0.645092 0.159183 0.826637 -0.443009
O28   O     O_2   0.654224 0.848553 0.331780 -0.403002
O29   O     O_3   0.245953 0.509662 0.191548 -0.680121
O30   O     O_3   0.259902 0.480018 0.689247 -0.695885
O31   O     O_3   0.762577 0.022589 0.204837 -0.689436
O32   O     O_3   0.763934 0.975254 0.704752 -0.690680
O33   O     O_3   0.022475 0.711574 0.666309 -0.539952
O34   O     O_3   0.065685 0.288610 0.191029 -0.573150
O35   O     O_3   0.528821 0.210847 0.688757 -0.539082
O36   O     O_3   0.551888 0.787207 0.190645 -0.558838
O37   O     O_2   0.837400 0.570350 0.710350 -0.421275
O38   O     O_2   0.837400 0.429650 0.210350 -0.405467
O39   O     O_2   0.337400 0.070350 0.710350 -0.422383
O40   O     O_2   0.337400 0.929650 0.210350 -0.399255
O41   O     O_3   0.972820 0.612580 0.035550 -0.477221
O42   O     O_3   0.972820 0.387420 0.535550 -0.458052
O43   O     O_3   0.472820 0.112580 0.035550 -0.471775
O44   O     O_3   0.472820 0.887420 0.535550 -0.457120
O45   O     O_2   0.834427 0.641905 0.878516 -0.427329
O46   O     O_2   0.850413 0.343932 0.355101 -0.474834
O47   O     O_2   0.337805 0.145394 0.875717 -0.421811
O48   O     O_2   0.346761 0.847151 0.352982 -0.474543
P1    P     P_3+3 0.171820 0.553000 0.158080 0.923728
P2    P     P_3+3 0.171820 0.447000 0.658080 0.929339
P3    P     P_3+3 0.671820 0.053000 0.158080 0.955642
P4    P     P_3+3 0.671820 0.947000 0.658080 0.936493
P5    P     P_3+3 0.829210 0.554130 0.532500 1.024607
P6    P     P_3+3 0.829210 0.445870 0.032500 0.997259
P7    P     P_3+3 0.329210 0.054130 0.532500 1.016382
P8    P     P_3+3 0.329210 0.945870 0.032500 0.999895
P9    P     P_3+3 0.900286 0.656633 0.020947 1.005347
P10   P     P_3+3 0.902344 0.342319 0.526848 0.967654
P11   P     P_3+3 0.403277 0.158033 0.022663 1.012196
P12   P     P_3+3 0.400095 0.843373 0.522932 0.972057
P13   P     P_3+3 0.104682 0.345345 0.180945 1.022773
P14   P     P_3+3 0.085060 0.664249 0.653582 0.986263
P15   P     P_3+3 0.597176 0.841262 0.167656 0.994465
P16   P     P_3+3 0.587777 0.163082 0.660175 0.993825
I1    I     I_    0.565171 0.562212 0.773393 -0.439099
I2    I     I_    0.544815 0.444618 0.354200 -0.487686
I3    I     I_    0.068638 0.074380 0.815756 -0.433484
I4    I     I_    0.041210 0.956588 0.413458 -0.454858
I5    I     I_    0.587479 0.438857 0.789465 -0.446321
I6    I     I_    0.557943 0.567622 0.272690 -0.492284
I7    I     I_    0.056437 0.949199 0.837172 -0.421460
I8    I     I_    0.052180 0.069304 0.260344 -0.498402
N1    N     N_2   0.286359 0.444942 0.056771 -0.467383
H73   H     H_    0.305083 0.431718 0.959317 0.172813
C89   C     C_3   0.314742 0.420900 0.207947 -0.188137
H74   H     H_    0.323618 0.383371 0.183190 0.137154
H75   H     H_    0.271308 0.423715 0.286246 0.152950
H76   H     H_    0.372973 0.434367 0.268327 0.147415
N2    N     N_2   0.247387 0.557250 0.588452 -0.506358
H77   H     H_    0.290537 0.576434 0.662222 0.193962
C90   C     C_3   0.176592 0.561676 0.646477 -0.150529
H78   H     H_    0.177833 0.595791 0.700947 0.139946
H79   H     H_    0.178347 0.538960 0.748270 0.158382
H80   H     H_    0.123693 0.553075 0.553041 0.102915
N3    N     N_2   0.734870 0.956089 0.044420 -0.455268
H81   H     H_    0.756289 0.934287 0.968910 0.152626
C91   C     C_3   0.721096 0.931316 0.184503 -0.113920
H82   H     H_    0.742064 0.894686 0.183798 0.091920
H83   H     H_    0.657511 0.933842 0.184894 0.157802
H84   H     H_    0.755408 0.945112 0.298117 0.105212
N4    N     N_2   0.769630 0.052978 0.637069 -0.482440
H85   H     H_    0.809377 0.060974 0.742090 0.198667
C92   C     C_3   0.691922 0.063712 0.654368 -0.146132
H86   H     H_    0.694747 0.099447 0.697067 0.142713
H87   H     H_    0.675760 0.041198 0.745522 0.173489
H88   H     H_    0.647933 0.056853 0.542735 0.047129
N5    N     N_2   0.407081 0.510911 0.077591 -0.411579
H89   H     H_    0.418151 0.505718 0.199666 0.254029
C93   C     C_3   0.443076 0.477631 0.987229 -0.094948
H90   H     H_    0.506874 0.481480 0.024693 0.177564
H91   H     H_    0.425851 0.484392 0.856670 0.138709
H92   H     H_    0.430543 0.440638 0.015783 0.147759
N6    N     N_2   0.400510 0.544685 0.570794 -0.393404
H93   H     H_    0.406845 0.553571 0.689666 0.240543
C94   C     C_3   0.393434 0.584515 0.460360 -0.117586
H94   H     H_    0.348400 0.609721 0.482469 0.086262
H95   H     H_    0.378738 0.572983 0.333609 0.113652
H96   H     H_    0.450062 0.604106 0.481363 0.192114
N7    N     N_2   0.889799 0.940345 0.150875 -0.417716
H97   H     H_    0.880731 0.928710 0.260283 0.242185
C95   C     C_3   0.907027 0.905428 0.040640 -0.120766
H98   H     H_    0.971328 0.897787 0.069721 0.207963
H99   H     H_    0.888529 0.917364 0.913551 0.134981
H100  H     H_    0.875068 0.872354 0.055828 0.104173
N8    N     N_2   0.912950 0.035666 0.587260 -0.379151
H101  H     H_    0.923251 0.042648 0.707778 0.249767
C96   C     C_3   0.900853 0.077465 0.484520 -0.105989
H102  H     H_    0.856691 0.101671 0.517170 0.106067
H103  H     H_    0.882076 0.068159 0.356462 0.127324
H104  H     H_    0.956799 0.097594 0.500590 0.184516
I9    I     I_    0.688932 0.349900 0.101003 -0.413189
I10   I     I_    0.686492 0.639209 0.590742 -0.307681
I11   I     I_    0.183374 0.854562 0.091852 -0.432689
I12   I     I_    0.184553 0.139093 0.581810 -0.319818
I13   I     I_    0.312732 0.694075 0.811754 -0.543039
I14   I     I_    0.311889 0.302368 0.376975 -0.461251
I15   I     I_    0.814507 0.195050 0.820129 -0.520806
I16   I     I_    0.818548 0.808352 0.339905 -0.482494
I17   I     I_    0.972551 0.812287 0.831883 -0.390239
I18   I     I_    0.136593 0.262944 0.580724 -0.321685
I19   I     I_    0.469801 0.319328 0.891910 -0.367591
I20   I     I_    0.631117 0.761601 0.562608 -0.309322
N9    N     N_2   0.747675 0.556969 0.925521 -0.360925
H105  H     H_    0.808510 0.557188 0.949346 0.235512
C97   C     C_3   0.723415 0.586151 0.044916 -0.109197
H106  H     H_    0.762051 0.578278 0.159923 -0.004205
H107  H     H_    0.663299 0.579767 0.060593 0.144631
H108  H     H_    0.725960 0.623810 0.011740 0.136980
N10   N     N_2   0.720874 0.457673 0.345125 -0.382451
H109  H     H_    0.686098 0.445105 0.240487 0.250902
C98   C     C_3   0.743919 0.423798 0.473940 -0.049835
H110  H     H_    0.734190 0.387418 0.428066 0.128482
H111  H     H_    0.709342 0.428236 0.568595 0.097939
H112  H     H_    0.807311 0.429570 0.525902 0.096043
N11   N     N_2   0.249475 0.050975 0.924341 -0.369184
H113  H     H_    0.308856 0.045870 0.932715 0.238050
C99   C     C_3   0.242635 0.079740 0.059437 -0.131744
H114  H     H_    0.286800 0.066957 0.163235 0.009968
H115  H     H_    0.184864 0.078449 0.092299 0.121808
H116  H     H_    0.248918 0.116998 0.028843 0.135822
N12   N     N_2   0.207999 0.959972 0.343398 -0.380854
H117  H     H_    0.166505 0.949221 0.244741 0.249110
C100  C     C_3   0.234717 0.924477 0.466403 -0.034532
H118  H     H_    0.221779 0.888594 0.417912 0.123425
H119  H     H_    0.205250 0.928419 0.569357 0.087884
H120  H     H_    0.299302 0.928640 0.509643 0.101905

loop_
_geom_bond_atom_site_label_1
_geom_bond_atom_site_label_2
_ccdc_geom_bond_type
N4    C92   S    
C51   C55   D    
O26   P13   D    
C66   N10   S    
C73   H9    S    
Ba2   O38   S    
O24   P15   S    
C45   O9    S    
N10   C98   S    
C96   H104  S    
C16   C88   S    
C80   H20   S    
C67   H71   S    
C42   C58   S    
C45   H61   S    
C48   O12   S    
C86   H42   S    
C55   P3    S    
Ba3   P3    S    
C80   N8    S    
Ba3   O39   S    
C36   C44   S    
C73   O29   S    
O25   P14   D    
O10   P10   S    
C66   C70   S    
C11   I11   S    
C78   N6    S    
Ba2   O13   S    
C70   I6    S    
Ba3   O20   S    
C64   H36   S    
C83   H23   S    
Ba1   O37   S    
C90   H78   S    
C66   H70   S    
Ba4   O44   S    
C21   C25   A    
C76   O32   S    
C18   P9    S    
N3    C91   S    
C23   C27   A    
C3    H27   S    
C93   H90   S    
C1    H53   S    
C23   C31   S    
Ba4   O4    S    
O36   P15   S    
C100  H120  S    
C74   C78   S    
N10   H109  S    
C12   C16   A    
O47   P11   D    
C88   H44   S    
C82   O34   S    
C54   P2    S    
C9    I9    S    
C91   H83   S    
O40   P8    D    
Ba2   P2    S    
C94   H95   S    
Ba4   O15   S    
C33   C41   S    
C35   C43   S    
C93   H91   S    
C3    H31   S    
Ba3   O23   S    
C68   N12   S    
O29   P1    S    
Ba1   O21   S    
C72   H8    S    
C58   P13   S    
C74   N2    S    
Ba3   O43   S    
Ba4   O24   S    
C32   H52   S    
C2    H54   S    
N8    C96   S    
C44   C60   S    
C10   I10   S    
C90   H80   S    
Ba2   P6    S    
O11   P11   S    
C63   H67   S    
C6    H46   S    
C64   H68   S    
C39   C43   S    
C38   C50   S    
C40   C44   S    
C22   C26   A    
C77   N5    S    
O46   P10   D    
O14   P5    S    
O3    P3    D    
C69   I1    S    
Ba3   O3    S    
C70   H6    S    
C47   H63   S    
N3    H81   S    
C5    C57   A    
C6    C54   S    
C66   O5    S    
C7    C59   A    
C74   O30   S    
N5    H89   S    
C8    C60   A    
C62   I18   S    
C75   O31   S    
C92   H86   S    
C81   H1    S    
C98   H111  S    
C83   H3    S    
C72   I4    S    
Ba2   O42   S    
O35   P16   S    
O8    P8    S    
C1    C81   S    
O33   P14   S    
N1    H73   S    
N9    C97   S    
C75   H11   S    
C20   C88   D    
C3    H55   S    
N11   C99   S    
C50   H38   S    
C77   H13   S    
C85   H41   S    
C95   H100  S    
C72   I8    S    
C96   H103  S    
C91   H84   S    
C29   H49   S    
C62   H34   S    
C4    C84   S    
Ba2   O17   S    
Ba3   O16   S    
C46   C62   S    
Ba1   O14   S    
C71   H7    S    
C89   H75   S    
C47   C63   S    
C37   C49   S    
O1    P1    D    
C53   P1    S    
C98   H110  S    
C99   H115  S    
C16   P7    S    
C49   H37   S    
Ba3   Ba4   S    
O48   P12   D    
C20   P11   S    
C39   C51   S    
C17   C21   A    
C37   C41   S    
O12   P12   S    
C69   I5    S    
C20   C24   A    
N6    H93   S    
C11   C27   A    
C12   C28   A    
C57   P14   S    
C2    C82   S    
C9    C13   A    
C92   H88   S    
O38   P6    D    
C81   H21   S    
C56   P4    S    
O22   P13   S    
O42   P10   S    
N7    C95   S    
C78   H14   S    
Ba4   O19   S    
C97   H108  S    
C34   C42   S    
C33   I13   S    
O16   P7    S    
O17   P1    S    
C15   P8    S    
Ba2   O14   S    
C79   N7    S    
C60   P15   S    
O7    P7    S    
C13   P6    S    
C21   C29   S    
O5    P5    S    
C84   H4    S    
O27   P16   D    
C74   H10   S    
O45   P9    D    
C95   H98   S    
C83   O35   S    
C76   C80   S    
O9    P9    S    
C91   H82   S    
C17   C85   D    
C11   C15   A    
C76   H12   S    
Ba4   P4    S    
C9    C25   A    
C89   H74   S    
C43   C59   S    
O32   P4    S    
O20   P4    S    
N2    H77   S    
C38   C42   S    
C100  H119  S    
C7    H47   S    
C5    H45   S    
O28   P15   D    
C3    C83   S    
Ba4   P8    S    
N8    H101  S    
C8    H48   S    
C65   C69   S    
C67   N11   S    
Ba2   O2    S    
O31   P3    S    
C68   C72   S    
C47   H59   S    
N12   H117  S    
C65   N9    S    
C94   H94   S    
C73   N1    S    
C6    C58   A    
Ba4   O16   S    
C7    C55   S    
C17   P10   S    
C14   C86   S    
C68   O7    S    
C61   H65   S    
C49   C53   D    
O43   P11   S    
C4    H32   S    
C35   I15   S    
C52   C56   D    
C97   H106  S    
C40   C52   S    
C24   C28   A    
C48   H60   S    
C18   C86   D    
C13   C85   S    
C47   O11   S    
C52   H40   S    
C81   O33   S    
C77   H17   S    
C51   H39   S    
C90   H79   S    
Ba1   P1    S    
C79   H19   S    
O44   P12   S    
C30   H50   S    
C95   H99   S    
O30   P2    S    
Ba1   O18   S    
C59   P16   S    
C45   H57   S    
C82   H22   S    
C84   O36   S    
C32   C34   D    
C4    H56   S    
C75   C79   S    
N6    C94   S    
O4    P4    D    
C41   C57   S    
C80   H16   S    
C36   I16   S    
C15   C87   S    
C87   H43   S    
C24   C32   S    
Ba3   P7    S    
C73   C77   S    
C18   C22   A    
C94   H96   S    
C63   I19   S    
Ba1   P5    S    
C31   H51   S    
C93   H92   S    
C99   H114  S    
C76   N4    S    
O15   P8    S    
N9    H105  S    
C10   C14   A    
O13   P6    S    
C70   I2    S    
N11   H113  S    
C69   H5    S    
C29   C35   D    
C45   C61   S    
C30   C36   D    
C78   H18   S    
C31   C33   D    
C65   H69   S    
Ba4   O40   S    
C1    H29   S    
C34   I14   S    
Ba1   Ba2   S    
Ba3   O15   S    
C82   H2    S    
Ba1   O13   S    
C22   C30   S    
N2    C90   S    
C71   I7    S    
C19   C23   A    
C12   I12   S    
Ba1   O41   S    
C48   C64   S    
O34   P13   S    
C75   N3    S    
C10   C26   A    
C68   H72   S    
N12   C100  S    
N5    C93   S    
C96   H102  S    
C1    H25   S    
C92   H87   S    
C61   H33   S    
C84   H24   S    
Ba2   O22   S    
C63   H35   S    
C46   H58   S    
Ba1   O1    S    
C98   H112  S    
O19   P3    S    
N7    H97   S    
C71   I3    S    
C97   H107  S    
O2    P2    D    
N1    C89   S    
C19   C87   D    
C2    H30   S    
N4    H85   S    
C62   H66   S    
C4    H28   S    
C50   C54   D    
C48   H64   S    
O39   P7    D    
C46   O10   S    
O37   P5    D    
C67   C71   S    
O23   P16   S    
C46   H62   S    
O21   P14   S    
C64   I20   S    
O41   P9    S    
C79   H15   S    
C89   H76   S    
C5    C53   S    
C65   O6    S    
C100  H118  S    
C8    C56   S    
C61   I17   S    
C19   P12   S    
C99   H116  S    
O18   P2    S    
C67   O8    S    
C14   P5    S    
C2    H26   S    
O6    P6    S    
