data_mof_unit_65744.cif
_audit_creation_date              2012-12-10T20:17:38-0500
_audit_creation_method            fapswitch 2.2
_symmetry_space_group_name_H-M    P1
_symmetry_Int_Tables_number       1
_space_group_crystal_system       triclinic
_cell_length_a                    19.320629
_cell_length_b                    18.499645
_cell_length_c                    23.349404
_cell_angle_alpha                 89.636223
_cell_angle_beta                  90.217598
_cell_angle_gamma                 90.044012
_cell_volume                      8345.42482787

loop_
_atom_site_label
_atom_site_type_symbol
_atom_type_description
_atom_site_fract_x
_atom_site_fract_y
_atom_site_fract_z
_atom_type_partial_charge
C1    C     C_R   0.365725 0.499979 0.499853 0.867412
C2    C     C_R   0.634275 0.500021 0.500147 0.867435
C3    C     C_R   0.555064 0.471896 0.239023 0.328603
C4    C     C_R   0.444984 0.528091 0.760991 0.328604
C5    C     C_R   0.556824 0.474868 0.298646 0.353371
C6    C     C_R   0.443204 0.525126 0.701368 0.353362
C7    C     C_R   0.498262 0.499630 0.328073 -0.416057
C8    C     C_R   0.501758 0.500368 0.671926 -0.416054
C9    C     C_R   0.438068 0.521163 0.298657 0.312474
C10   C     C_R   0.561961 0.478835 0.701329 0.312467
C11   C     C_R   0.438158 0.521891 0.238919 0.338543
C12   C     C_R   0.561891 0.478100 0.761066 0.338526
C13   C     C_R   0.496383 0.496779 0.209420 -0.032348
C14   C     C_R   0.503674 0.503207 0.790580 -0.032344
C15   C     C_R   0.745490 0.434389 0.500236 -0.128457
C16   C     C_R   0.254510 0.565610 0.499762 -0.128468
C17   C     C_R   0.254496 0.434201 0.498498 -0.190047
C18   C     C_R   0.745504 0.565799 0.501500 -0.190076
C19   C     C_R   0.817149 0.434475 0.500449 -0.152959
C20   C     C_R   0.182851 0.565524 0.499548 -0.152959
C21   C     C_R   0.182832 0.434196 0.498318 -0.151458
C22   C     C_R   0.817168 0.565804 0.501679 -0.151454
C23   C     C_R   0.853089 0.500164 0.501041 0.093162
C24   C     C_R   0.146911 0.499835 0.498955 0.093164
C25   C     C_R   0.709369 0.500073 0.500614 -0.086215
C26   C     C_R   0.290631 0.499927 0.499385 -0.086183
C27   C     C_R   0.499237 0.500078 0.389689 1.018708
C28   C     C_R   0.500763 0.499921 0.610311 1.018714
C29   C     C_R   0.963669 0.545286 0.462273 -0.152551
C30   C     C_R   0.036331 0.454713 0.537723 -0.152551
C31   C     C_R   0.035341 0.545092 0.461658 -0.149368
C32   C     C_R   0.964658 0.454907 0.538339 -0.149366
C33   C     C_R   0.071776 0.499803 0.499380 0.094019
C34   C     C_R   0.928224 0.500197 0.500616 0.094020
C35   C     C_R   0.540854 0.725749 0.538459 0.440953
C36   C     C_R   0.459147 0.274251 0.461540 0.440953
C37   C     C_R   0.459420 0.727179 0.461931 0.431212
C38   C     C_R   0.540579 0.272821 0.538070 0.431210
C39   C     C_R   0.545244 0.802315 0.536467 0.239162
C40   C     C_R   0.454757 0.197684 0.463532 0.239162
C41   C     C_R   0.454089 0.803430 0.465605 0.230729
C42   C     C_R   0.545909 0.196570 0.534396 0.230729
C43   C     C_R   0.499598 0.841824 0.501248 -0.063510
C44   C     C_R   0.500402 0.158176 0.498752 -0.063510
C45   C     C_R   0.534470 0.961526 0.456913 0.348932
C46   C     C_R   0.465531 0.038474 0.543087 0.348933
C47   C     C_R   0.465630 0.962085 0.543899 0.356645
C48   C     C_R   0.534370 0.037915 0.456102 0.356645
C49   C     C_R   0.499889 0.076952 0.499172 -0.066918
C50   C     C_R   0.500111 0.923048 0.500829 -0.066918
C51   C     C_R   0.476261 0.443760 0.878830 0.666864
C52   C     C_R   0.523829 0.556209 0.121169 0.666862
C53   C     C_R   0.529535 0.560225 0.880061 0.703740
C54   C     C_R   0.470546 0.439750 0.119939 0.703737
C55   C     C_R   0.529658 0.561067 0.940366 -0.174116
C56   C     C_R   0.470441 0.438898 0.059635 -0.174108
C57   C     C_R   0.500635 0.500781 0.969785 -0.108501
C58   C     C_R   0.499467 0.499182 0.030215 -0.108499
C59   C     C_R   0.472105 0.442326 0.938749 -0.175175
C60   C     C_R   0.527996 0.557637 0.061251 -0.175193
C61   C     C_R   0.557929 0.619193 0.972113 0.338285
C62   C     C_R   0.442185 0.380764 0.027888 0.338268
C63   C     C_R   0.559847 0.615765 0.031933 0.455854
C64   C     C_R   0.440267 0.384191 0.968068 0.455848
H1    H     H_    0.718536 0.383037 0.499543 0.200123
H2    H     H_    0.281463 0.616963 0.500456 0.200118
H3    H     H_    0.281444 0.382888 0.497903 0.198331
H4    H     H_    0.718557 0.617111 0.502096 0.198337
H5    H     H_    0.844543 0.383425 0.499410 0.161262
H6    H     H_    0.155456 0.616574 0.500586 0.161260
H7    H     H_    0.155407 0.383116 0.497233 0.160459
H8    H     H_    0.844593 0.616883 0.502763 0.160461
H9    H     H_    0.935877 0.579817 0.432437 0.151777
H10   H     H_    0.064123 0.420183 0.567559 0.151778
H11   H     H_    0.062346 0.579533 0.431403 0.156156
H12   H     H_    0.937654 0.420467 0.568593 0.156158
N1    N     N_R   0.503499 0.502275 0.851538 -0.314950
N2    N     N_R   0.496578 0.497702 0.148462 -0.314949
N3    N     N_R   0.500000 0.689440 0.500000 -0.206611
N4    N     N_R   0.500000 0.310560 0.500000 -0.206612
O1    O     O_R   0.398180 0.560840 0.499980 -0.572867
O2    O     O_R   0.601820 0.439160 0.500020 -0.572851
O3    O     O_R   0.601820 0.560840 0.500020 -0.610043
O4    O     O_R   0.398180 0.439160 0.499980 -0.610039
O5    O     O_R   0.499980 0.560830 0.416150 -0.599266
O6    O     O_R   0.500020 0.439170 0.583850 -0.599265
O7    O     O_R   0.500020 0.560830 0.583850 -0.591456
O8    O     O_R   0.499980 0.439170 0.416150 -0.591449
O9    O     O_2   0.453966 0.387216 0.847478 -0.480799
O10   O     O_2   0.546124 0.612754 0.152521 -0.480786
O11   O     O_2   0.555388 0.615913 0.849392 -0.452245
O12   O     O_2   0.444676 0.384070 0.150608 -0.452256
Zn1   Zn    Zn3+2 0.500000 0.581210 0.500000 1.041567
Zn2   Zn    Zn3+2 0.500000 0.418790 0.500000 1.041577
Cl1   Cl    Cl    0.591538 0.699018 0.940216 -0.395908
Cl2   Cl    Cl    0.408604 0.300926 0.059785 -0.395908
O13   O     O_3   0.580529 0.686713 0.577101 -0.577763
C65   C     C_3   0.551951 0.694421 0.632460 -0.103548
H13   H     H_    0.494729 0.686587 0.632790 0.173975
H14   H     H_    0.564965 0.747608 0.651253 0.218762
H15   H     H_    0.574695 0.652686 0.661105 0.155262
O14   O     O_3   0.419473 0.313287 0.422897 -0.577759
C66   C     C_3   0.448054 0.305578 0.367538 -0.103546
H16   H     H_    0.435040 0.252391 0.348746 0.218762
H17   H     H_    0.505276 0.313413 0.367211 0.173975
H18   H     H_    0.425310 0.347313 0.338893 0.155257
O15   O     O_3   0.422306 0.690163 0.420818 -0.543939
C67   C     C_3   0.454180 0.702176 0.367083 -0.049408
H19   H     H_    0.453630 0.759941 0.354010 0.190711
H20   H     H_    0.424881 0.672769 0.333788 0.230665
H21   H     H_    0.508501 0.682251 0.366828 0.126854
O16   O     O_3   0.577691 0.309838 0.579184 -0.543923
C68   C     C_3   0.545816 0.297825 0.632918 -0.049390
H22   H     H_    0.546369 0.240061 0.645993 0.190713
H23   H     H_    0.491494 0.317746 0.633170 0.126837
H24   H     H_    0.575112 0.327236 0.666212 0.230650
Cl3   Cl    Cl    0.609431 0.848160 0.576240 -0.465376
Cl4   Cl    Cl    0.390572 0.151840 0.423758 -0.465378
Cl5   Cl    Cl    0.389565 0.850164 0.426371 -0.455929
Cl6   Cl    Cl    0.610432 0.149836 0.573632 -0.455922
Cl7   Cl    Cl    0.578559 0.913748 0.402876 -0.440720
Cl8   Cl    Cl    0.421441 0.086252 0.597124 -0.440727
Cl9   Cl    Cl    0.421541 0.915012 0.598824 -0.414297
Cl10  Cl    Cl    0.578459 0.084988 0.401177 -0.414291
O17   O     O_3   0.591093 0.671637 0.061588 -0.518347
C69   C     C_3   0.661656 0.654329 0.069643 -0.075920
H25   H     H_    0.668161 0.603321 0.094645 0.153924
H26   H     H_    0.686509 0.698340 0.094376 0.208159
H27   H     H_    0.689233 0.650157 0.028053 0.163510
O18   O     O_3   0.409034 0.328311 0.938413 -0.518349
C70   C     C_3   0.338464 0.345594 0.930366 -0.075909
H28   H     H_    0.313623 0.301578 0.905629 0.208160
H29   H     H_    0.331939 0.396605 0.905370 0.153916
H30   H     H_    0.310891 0.349748 0.971959 0.163521
Cl11  Cl    Cl    0.626745 0.437718 0.201338 -0.500866
Cl12  Cl    Cl    0.373314 0.562262 0.798694 -0.500858
O19   O     O_3   0.614115 0.449498 0.328305 -0.554945
C71   C     C_3   0.659181 0.508059 0.338613 -0.184652
H31   H     H_    0.705237 0.487625 0.362147 0.192413
H32   H     H_    0.634446 0.549819 0.365816 0.123051
H33   H     H_    0.677565 0.532814 0.297846 0.195112
O20   O     O_3   0.385904 0.550499 0.671723 -0.554943
C72   C     C_3   0.340837 0.491938 0.661417 -0.184645
H34   H     H_    0.365566 0.450183 0.634206 0.123039
H35   H     H_    0.294775 0.512375 0.637893 0.192417
H36   H     H_    0.322464 0.467178 0.702185 0.195110
O21   O     O_3   0.380697 0.545664 0.328075 -0.565349
C73   C     C_3   0.337647 0.486294 0.341147 -0.154082
H37   H     H_    0.361958 0.450750 0.373999 0.151565
H38   H     H_    0.323992 0.454639 0.302287 0.186681
H39   H     H_    0.288727 0.507019 0.359547 0.197958
O22   O     O_3   0.619324 0.454337 0.671896 -0.565328
C74   C     C_3   0.662372 0.513709 0.658824 -0.154080
H40   H     H_    0.676039 0.545355 0.697686 0.186687
H41   H     H_    0.638052 0.549261 0.625982 0.151583
H42   H     H_    0.711286 0.492987 0.640412 0.197952
Cl13  Cl    Cl    0.365258 0.554231 0.201075 -0.480015
Cl14  Cl    Cl    0.634803 0.445757 0.798892 -0.480019

loop_
_geom_bond_atom_site_label_1
_geom_bond_atom_site_label_2
_ccdc_geom_bond_type
C44   C49   S    
C72   H36   S    
C40   Cl4   S    
C69   H25   S    
O2    Zn2   S    
C62   Cl2   S    
C1    C26   S    
C35   C39   A    
O21   C73   S    
C73   H39   S    
C70   H30   S    
O13   C65   S    
C70   H29   S    
C1    O4    A    
C15   C19   A    
C37   N3    A    
C46   C49   A    
C59   C64   A    
C21   H7    S    
C60   C63   A    
C17   C26   A    
C73   H38   S    
C38   C42   A    
C30   H10   S    
C57   C59   A    
C29   H9    S    
C1    O1    A    
C72   H34   S    
C15   H1    S    
O7    Zn1   S    
C7    C27   S    
C67   H19   S    
C36   O14   S    
C14   N1    S    
C27   O5    A    
C62   C64   A    
C52   C60   A    
C10   O22   S    
C13   N2    S    
C52   O10   S    
C20   C24   A    
C67   H20   S    
C53   O11   S    
O15   C67   S    
C31   C33   A    
C6    O20   S    
O6    Zn2   S    
C3    C13   A    
C4    Cl12  S    
C68   H24   S    
C37   C41   A    
C41   C43   A    
C20   H6    S    
C2    O3    A    
C27   O8    A    
C18   C25   A    
C42   C44   A    
C52   N2    A    
C22   H8    S    
O16   C68   S    
C47   C50   A    
O8    Zn2   S    
C53   C55   A    
C51   C59   A    
C16   C26   A    
C54   C56   A    
C17   H3    S    
C36   C40   A    
C73   H37   S    
C4    C6    A    
C36   N4    A    
C5    C7    A    
C39   C43   A    
C69   H27   S    
C45   Cl7   S    
C39   Cl3   S    
C58   C60   A    
C29   C34   A    
C9    O21   S    
C17   C21   A    
C68   H23   S    
C32   C34   A    
C66   H18   S    
C19   C23   A    
C51   N1    A    
C54   O12   S    
O1    Zn1   S    
C31   H11   S    
O5    Zn1   S    
C16   C20   A    
C23   C34   S    
C28   O7    A    
C61   C63   A    
C66   H17   S    
O4    Zn2   S    
C41   Cl5   S    
C74   H42   S    
C5    O19   S    
C9    C11   A    
C63   O17   S    
C10   C12   A    
C48   C49   A    
C12   C14   A    
C65   H13   S    
C65   H14   S    
C55   C57   A    
C28   O6    A    
C53   N1    A    
C8    C28   S    
C56   C62   A    
C19   H5    S    
C74   H41   S    
N4    Zn2   S    
C70   H28   S    
C11   Cl13  S    
C68   H22   S    
C45   C48   A    
C72   H35   S    
C46   C47   A    
C69   H26   S    
C30   C33   A    
C18   C22   A    
C64   O18   S    
C3    C5    A    
C71   H33   S    
C32   H12   S    
C6    C8    A    
C61   Cl1   S    
C43   C50   S    
C37   O15   S    
C47   Cl9   S    
C71   H32   S    
C65   H15   S    
O19   C71   S    
C24   C33   S    
C67   H21   S    
O18   C70   S    
N3    Zn1   S    
C29   C31   A    
C51   O9    S    
C30   C32   A    
C11   C13   A    
C42   Cl6   S    
C57   C58   A    
O17   C69   S    
C38   N4    A    
C45   C50   A    
C55   C61   A    
C35   N3    A    
C56   C58   A    
C2    C25   S    
C3    Cl11  S    
C4    C14   A    
O14   C66   S    
C2    O2    A    
C71   H31   S    
C7    C9    A    
C40   C44   A    
C38   O16   S    
C16   H2    S    
O22   C74   S    
C15   C25   A    
C8    C10   A    
C48   Cl10  S    
C21   C24   A    
C66   H16   S    
O20   C72   S    
C22   C23   A    
C46   Cl8   S    
C12   Cl14  S    
C74   H40   S    
C35   O13   S    
C18   H4    S    
C54   N2    A    
O3    Zn1   S    
