data_mof_unit_14570.cif
_audit_creation_date              2012-12-10T20:34:51-0500
_audit_creation_method            fapswitch 2.2
_symmetry_space_group_name_H-M    P1
_symmetry_Int_Tables_number       1
_space_group_crystal_system       triclinic
_cell_length_a                    10.635069
_cell_length_b                    10.677143
_cell_length_c                    9.863276
_cell_angle_alpha                 90.141143
_cell_angle_beta                  90.243634
_cell_angle_gamma                 90.103478
_cell_volume                      1119.98084918

loop_
_atom_site_label
_atom_site_type_symbol
_atom_type_description
_atom_site_fract_x
_atom_site_fract_y
_atom_site_fract_z
_atom_type_partial_charge
C1    C     C_R   0.502057 0.260114 0.499982 0.918167
C2    C     C_3   0.878719 0.498324 0.499337 0.102740
C3    C     C_3   0.928138 0.617423 0.572647 -0.465563
C4    C     C_3   0.928138 0.499474 0.351104 -0.361839
C5    C     C_R   0.490633 0.064391 0.621015 0.109333
C6    C     C_R   0.515852 0.128512 0.501677 -0.093454
C7    C     C_R   0.559682 0.064533 0.387137 -0.146589
C8    C     C_R   0.559755 0.935019 0.387495 -0.187182
C9    C     C_R   0.515808 0.871673 0.502324 -0.163446
C10   C     C_R   0.490779 0.936653 0.621697 0.132391
C11   C     C_3   0.377390 0.930722 0.711041 0.112585
C12   C     C_R   0.257653 0.499808 0.499638 0.838365
C13   C     C_3   0.377899 0.072796 0.710468 -0.529809
C14   C     C_R   0.428169 0.415763 0.070553 0.225016
C15   C     C_R   0.580146 0.574394 0.072591 -0.095997
C16   C     C_R   0.580388 0.574141 0.928550 -0.061274
C17   C     C_R   0.428335 0.415641 0.927994 0.220536
C18   C     C_3   0.288974 0.403247 0.920909 -0.505800
C19   C     C_3   0.288562 0.404377 0.074655 -0.506444
C20   C     C_R   0.502004 0.739944 0.500252 0.879294
C21   C     C_R   0.742316 0.499884 0.499974 0.883602
C22   C     C_3   0.073183 0.380600 0.573145 -0.425733
C23   C     C_3   0.928465 0.380196 0.574795 0.109032
C24   C     C_3   0.072480 0.617983 0.572175 -0.396464
C25   C     C_3   0.070699 0.497575 0.351225 -0.394670
C26   C     C_3   0.121274 0.499115 0.499061 0.131106
H1    H     H_    0.108727 0.378852 0.679376 0.159302
H2    H     H_    0.895081 0.585236 0.297609 0.170627
H3    H     H_    0.107208 0.703581 0.519917 0.172583
H4    H     H_    0.892461 0.703086 0.521123 0.187246
H5    H     H_    0.587757 0.113791 0.296212 0.182516
H6    H     H_    0.587826 0.885224 0.296702 0.181395
H7    H     H_    0.293965 0.888490 0.659948 0.121992
H8    H     H_    0.294942 0.113921 0.657964 0.173127
H9    H     H_    0.400993 0.116217 0.810077 0.238182
H10   H     H_    0.642744 0.636599 0.127424 0.142990
H11   H     H_    0.109992 0.295297 0.521940 0.193201
H12   H     H_    0.643150 0.636181 0.874625 0.156647
H13   H     H_    0.242724 0.486778 0.875876 0.225254
H14   H     H_    0.259299 0.311927 0.876803 0.198246
H15   H     H_    0.243194 0.489335 0.117177 0.218965
H16   H     H_    0.257599 0.314110 0.119529 0.205393
H17   H     H_    0.896822 0.383139 0.682249 0.142713
H18   H     H_    0.107766 0.621340 0.678580 0.188202
H19   H     H_    0.894307 0.620245 0.679315 0.183412
H20   H     H_    0.105881 0.580571 0.294523 0.182006
H21   H     H_    0.103160 0.411564 0.297910 0.188183
H22   H     H_    0.892223 0.417248 0.292995 0.217332
N1    N     N_R   0.499150 0.499140 0.142800 -0.111769
N2    N     N_R   0.499150 0.499180 0.857150 -0.105961
O1    O     O_R   0.500020 0.316790 0.614690 -0.607043
O2    O     O_R   0.500000 0.316760 0.385350 -0.621521
O3    O     O_R   0.314800 0.500000 0.614670 -0.626799
O4    O     O_R   0.314790 0.499960 0.385330 -0.627568
O5    O     O_R   0.500000 0.683240 0.614650 -0.590488
O6    O     O_R   0.499980 0.683210 0.385310 -0.617487
O7    O     O_R   0.685210 0.500040 0.614670 -0.632589
O8    O     O_R   0.685200 0.500000 0.385330 -0.625925
Zn1   Zn    Zn3+2 0.500010 0.500020 0.653130 0.970775
Zn2   Zn    Zn3+2 0.499990 0.499980 0.346870 0.956349
Br1   Br    Br    0.416194 0.861174 0.887985 -0.537907
Br2   Br    Br    0.862960 0.223443 0.499055 -0.579484

loop_
_geom_bond_atom_site_label_1
_geom_bond_atom_site_label_2
_ccdc_geom_bond_type
C17   N2    A    
C3    H4    S    
C2    C4    S    
C18   H13   S    
C21   O7    A    
C6    C7    A    
O5    Zn1   S    
C11   C13   S    
C9    C10   A    
C25   H21   S    
C9    C20   S    
C5    C13   S    
C12   O3    A    
C19   H16   S    
C20   O6    A    
C2    C21   S    
C17   C18   S    
O3    Zn1   S    
C23   H17   S    
C21   O8    A    
O4    Zn2   S    
C1    O1    A    
C14   C17   A    
C3    C24   S    
N1    Zn2   S    
C20   O5    A    
N2    Zn1   S    
C14   C19   S    
C5    C10   A    
C4    H2    S    
C16   N2    A    
C4    C25   S    
C2    C3    S    
C22   H1    S    
C15   N1    A    
C22   C26   S    
C5    C6    A    
C24   H18   S    
C1    O2    A    
O7    Zn1   S    
C14   N1    A    
C7    H5    S    
C10   C11   S    
C23   Br2   S    
O8    Zn2   S    
C15   C16   A    
C8    H6    S    
C19   H15   S    
C15   H10   S    
C11   H7    S    
O1    Zn1   S    
C18   C19   S    
C4    H22   S    
C12   C26   S    
C2    C23   S    
C7    C8    A    
C18   H14   S    
C22   C23   S    
C13   H8    S    
O2    Zn2   S    
C16   H12   S    
C25   C26   S    
C24   H3    S    
C22   H11   S    
C25   H20   S    
C3    H19   S    
C13   H9    S    
C12   O4    A    
O6    Zn2   S    
C24   C26   S    
C8    C9    A    
C11   Br1   S    
C1    C6    S    
