data_mof_unit_63332.cif
_audit_creation_date              2012-10-26T17:30:54-0400
_audit_creation_method            fapswitch 2.2
_symmetry_space_group_name_H-M    P1
_symmetry_Int_Tables_number       1
_space_group_crystal_system       triclinic
_cell_length_a                    27.845012
_cell_length_b                    27.85675
_cell_length_c                    27.936582
_cell_angle_alpha                 109.363824
_cell_angle_beta                  109.65941
_cell_angle_gamma                 109.230111
_cell_volume                      16714.0130798

loop_
_atom_site_label
_atom_site_type_symbol
_atom_type_description
_atom_site_fract_x
_atom_site_fract_y
_atom_site_fract_z
_atom_type_partial_charge
C1    C     C_R   0.920406 0.920418 0.499969 0.551895
C2    C     C_R   0.706608 0.704927 0.498753 0.059591
C3    C     C_R   0.722204 0.763776 0.529417 -0.150404
C4    C     C_R   0.920150 0.000018 0.420126 0.553963
C5    C     C_R   0.765505 0.807119 0.529472 -0.150755
C6    C     C_R   0.793829 0.792229 0.498865 0.058362
C7    C     C_R   0.778659 0.733230 0.467791 0.122262
C8    C     C_1   0.661662 0.660886 0.499394 -0.007950
C9    C     C_1   0.838504 0.837894 0.499580 -0.008938
C10   C     C_1   0.875869 0.875736 0.499910 -0.010125
C11   C     C_1   0.624164 0.623871 0.499758 -0.009499
C12   C     C_3   0.792693 0.000136 0.292539 0.007719
C13   C     C_R   0.292410 0.985541 0.739409 0.123809
C14   C     C_R   0.295696 0.999821 0.794233 0.067462
C15   C     C_R   0.255139 0.014070 0.804946 -0.135661
C16   C     C_R   0.079589 0.079573 0.500022 0.551973
C17   C     C_R   0.211442 0.014141 0.761619 -0.115022
C18   C     C_R   0.207759 0.999907 0.707033 0.016540
C19   C     C_R   0.248116 0.985584 0.695991 -0.085022
C20   C     C_1   0.340399 0.999902 0.839723 -0.026069
C21   C     C_1   0.162603 0.999992 0.662309 -0.054177
C22   C     C_1   0.124880 0.000022 0.624800 -0.019713
C23   C     C_3   0.773735 0.049040 0.250829 0.109108
C24   C     C_1   0.377866 0.999987 0.877594 -0.015483
C25   C     C_R   0.254013 0.237584 0.448617 0.115730
C26   C     C_R   0.293687 0.292934 0.499391 0.045922
C27   C     C_R   0.289934 0.304775 0.550420 -0.117465
C28   C     C_R   0.079990 0.999990 0.579999 0.553916
C29   C     C_R   0.246844 0.261861 0.551647 0.115833
C30   C     C_R   0.206969 0.206616 0.500782 0.045166
C31   C     C_R   0.210698 0.194786 0.449740 -0.118102
C32   C     C_1   0.338455 0.338076 0.499665 -0.022938
C33   C     C_1   0.161871 0.161662 0.500367 -0.025348
C34   C     C_3   0.709677 0.000126 0.210493 0.094802
C35   C     C_1   0.124276 0.124163 0.500149 -0.014237
C36   C     C_1   0.375868 0.375711 0.499839 -0.010474
C37   C     C_R   0.502218 0.079664 0.081745 0.553940
C38   C     C_R   0.582479 0.000093 0.082457 0.554028
C39   C     C_R   0.502958 0.920515 0.923351 0.555768
C40   C     C_3   0.707354 0.995634 0.263432 -0.129853
C41   C     C_R   0.422642 0.000109 0.922589 0.552903
C42   C     C_R   0.500419 0.420531 0.420791 0.554796
C43   C     C_R   0.579572 0.579573 0.500026 0.550943
C44   C     C_R   0.499598 0.579497 0.579231 0.549689
C45   C     C_3   0.795827 0.004674 0.239838 -0.107417
C46   C     C_R   0.420432 0.420432 0.499978 0.554007
C47   C     C_R   0.531235 0.307308 0.267243 -0.150074
C48   C     C_R   0.499785 0.292284 0.294790 0.049507
C49   C     C_R   0.468226 0.233214 0.279068 0.159674
C50   C     C_R   0.468427 0.189348 0.235570 0.119578
C51   C     C_R   0.500332 0.205063 0.208098 0.024706
C52   C     C_3   0.728315 0.949635 0.252552 -0.080340
C53   C     C_R   0.531504 0.264002 0.224200 -0.135386
C54   C     C_1   0.500190 0.337849 0.339233 -0.011435
C55   C     C_1   0.501371 0.161163 0.163412 -0.059326
C56   C     C_3   0.731029 0.955614 0.200556 0.110222
C57   C     C_1   0.501927 0.124144 0.126119 -0.023779
C58   C     C_1   0.500365 0.375698 0.376428 -0.006196
C59   C     C_R   0.538039 0.728961 0.764608 -0.151054
C60   C     C_R   0.498945 0.706328 0.705452 0.048307
C61   C     C_R   0.459906 0.727327 0.689957 0.158711
C62   C     C_R   0.460340 0.771136 0.734152 0.118898
C63   C     C_R   0.499994 0.793615 0.793684 0.025440
C64   C     C_1   0.875616 0.000056 0.375537 -0.019860
C65   C     C_R   0.538558 0.772291 0.808408 -0.135528
C66   C     C_1   0.499248 0.661510 0.660930 -0.013992
C67   C     C_1   0.838188 0.000093 0.338063 -0.055415
C68   C     C_1   0.501487 0.838466 0.839925 -0.057778
C69   C     C_1   0.502367 0.875922 0.878204 -0.021321
C70   C     C_1   0.499417 0.624069 0.623649 -0.010075
C71   C     C_1   0.627003 0.000161 0.127153 -0.014482
C72   C     C_3   0.772413 0.046105 0.304463 -0.080336
C73   C     C_1   0.664333 0.000167 0.164757 -0.017336
C74   C     C_R   0.734671 0.689201 0.467734 0.122631
Cu1   Cu    Cu3+1 0.999750 0.040980 0.540800 0.962345
Cu2   Cu    Cu3+1 0.000250 0.959020 0.459200 0.961177
Cu3   Cu    Cu3+1 0.461600 0.959120 0.002610 0.961934
Cu4   Cu    Cu3+1 0.543650 0.041070 0.002550 0.959737
Cu5   Cu    Cu3+1 0.458780 0.500040 0.458810 0.976621
Cu6   Cu    Cu3+1 0.541220 0.499960 0.541190 0.960510
H1    H     H_    0.257292 0.025131 0.846912 0.115037
H2    H     H_    0.296687 0.224340 0.404232 0.231922
H3    H     H_    0.223434 0.183671 0.361867 0.225563
H4    H     H_    0.320694 0.347482 0.589318 0.108683
H5    H     H_    0.254810 0.248228 0.619734 0.229664
H6    H     H_    0.273657 0.317780 0.636632 0.225861
H7    H     H_    0.556119 0.276537 0.203401 0.126239
H8    H     H_    0.670985 0.991946 0.272798 0.114312
H9    H     H_    0.555648 0.352675 0.279092 0.121675
H10   H     H_    0.391963 0.188672 0.275323 0.250334
H11   H     H_    0.451995 0.196670 0.327457 0.250102
H12   H     H_    0.180496 0.025274 0.770693 0.121767
H13   H     H_    0.405280 0.105278 0.175163 0.238558
H14   H     H_    0.465360 0.113286 0.227342 0.238591
H15   H     H_    0.569156 0.789225 0.853931 0.124803
H16   H     H_    0.568239 0.713047 0.776922 0.120961
H17   H     H_    0.377165 0.686181 0.622296 0.252310
H18   H     H_    0.427826 0.738598 0.620457 0.250761
H19   H     H_    0.394101 0.784902 0.736835 0.240806
H20   H     H_    0.444804 0.837358 0.734993 0.239510
H21   H     H_    0.731088 0.884059 0.149765 0.229668
H22   H     H_    0.716859 0.922715 0.117480 0.227168
H23   H     H_    0.831854 0.008381 0.229901 0.104810
H24   H     H_    0.842512 0.127819 0.280938 0.230859
H25   H     H_    0.794537 0.092633 0.208917 0.229773
H26   H     H_    0.790523 0.084310 0.347755 0.124369
H27   H     H_    0.828807 0.697943 0.453014 0.230502
H28   H     H_    0.776739 0.689412 0.392354 0.229676
H29   H     H_    0.755335 0.624403 0.452919 0.230340
H30   H     H_    0.703268 0.615873 0.392260 0.228902
H31   H     H_    0.700799 0.776203 0.553385 0.120514
H32   H     H_    0.709866 0.907862 0.252807 0.122876
H33   H     H_    0.776946 0.852424 0.553477 0.121306
H34   H     H_    0.245151 0.974600 0.653694 0.108304
H35   H     H_    0.323512 0.958521 0.684727 0.224873
H36   H     H_    0.374938 0.008623 0.754676 0.230218
H37   H     H_    0.179857 0.152122 0.410804 0.108626
N1    N     N_3   0.333701 0.970693 0.728044 -0.618879
N2    N     N_3   0.808072 0.718644 0.436625 -0.627317
N3    N     N_3   0.718216 0.628706 0.436511 -0.631919
N4    N     N_3   0.257646 0.225366 0.396150 -0.611244
N5    N     N_3   0.243019 0.274186 0.604024 -0.611157
N6    N     N_3   0.436084 0.218067 0.307424 -0.616333
N7    N     N_3   0.436105 0.129314 0.219934 -0.643651
N8    N     N_3   0.419951 0.704003 0.629305 -0.611482
N9    N     N_3   0.420348 0.792174 0.717805 -0.640230
N10   N     N_3   0.707440 0.905922 0.143558 -0.622716
N11   N     N_3   0.797746 0.103478 0.249865 -0.619739
O1    O     O_R   0.939930 0.974760 0.534440 -0.506917
O2    O     O_R   0.535120 0.440180 0.475200 -0.500081
O3    O     O_R   0.525050 0.559880 0.465230 -0.502710
O4    O     O_R   0.940350 0.905550 0.465530 -0.494745
O5    O     O_R   0.594670 0.559820 0.534800 -0.501360
O6    O     O_R   0.464880 0.559830 0.524810 -0.495587
O7    O     O_R   0.534500 0.559760 0.594380 -0.507810
O8    O     O_R   0.405330 0.440190 0.465210 -0.495279
O9    O     O_R   0.474950 0.440120 0.534770 -0.505337
O10   O     O_R   0.939640 0.034610 0.474300 -0.502275
O11   O     O_R   0.940060 0.965400 0.405390 -0.503482
O12   O     O_R   0.536970 0.094550 0.062100 -0.501198
O13   O     O_R   0.059650 0.094450 0.534470 -0.495343
O14   O     O_R   0.060070 0.025240 0.465560 -0.506931
O15   O     O_R   0.059940 0.034600 0.594610 -0.502057
O16   O     O_R   0.060360 0.965390 0.525700 -0.501441
O17   O     O_R   0.467680 0.025340 0.062150 -0.504510
O18   O     O_R   0.528130 0.965490 0.062760 -0.501558
O19   O     O_R   0.597420 0.034690 0.062700 -0.501554
O20   O     O_R   0.468280 0.905650 0.943070 -0.499687
O21   O     O_R   0.537570 0.974850 0.943010 -0.502439
O22   O     O_R   0.407830 0.965500 0.942460 -0.501434
O23   O     O_R   0.477120 0.034710 0.942410 -0.502787
O24   O     O_R   0.465500 0.440250 0.405630 -0.500815

loop_
_geom_bond_atom_site_label_1
_geom_bond_atom_site_label_2
_ccdc_geom_bond_type
C25   C31   A    
C63   C65   A    
C26   C32   S    
C23   C45   S    
C27   C29   A    
C18   C21   S    
H10   N6    S    
C16   O14   A    
H13   N7    S    
C1    O4    A    
C42   C58   S    
C6    C9    S    
C13   N1    S    
C15   H1    S    
C66   C70   T    
Cu3   Cu4   S    
C34   C56   S    
Cu5   O8    S    
C26   C27   A    
C29   C30   A    
Cu6   O7    S    
H20   N9    S    
C32   C36   T    
C27   H4    S    
C1    O1    A    
C16   C35   S    
C30   C31   A    
C52   H32   S    
Cu6   O9    S    
C49   N6    S    
C18   C19   A    
C56   N10   S    
C43   O5    A    
C31   H37   S    
C45   H23   S    
C33   C35   T    
C63   C68   S    
H18   N8    S    
C38   O18   A    
C20   C24   T    
C45   C56   S    
C3    H31   S    
C68   C69   T    
C37   O12   A    
C39   O20   A    
H6    N5    S    
C11   C43   S    
C28   O16   A    
H19   N9    S    
C42   O24   A    
C9    C10   T    
H2    N4    S    
C2    C74   A    
C47   C53   A    
C23   C34   S    
C44   O7    A    
C12   C72   S    
C60   C66   S    
C59   C60   A    
H25   N11   S    
C22   C28   S    
C13   C14   A    
C24   C41   S    
C47   H9    S    
H28   N2    S    
C17   H12   S    
H27   N2    S    
C12   C52   S    
Cu4   O23   S    
C50   C51   A    
C7    C74   A    
C44   O6    A    
C12   C67   S    
Cu6   O2    S    
C13   C19   A    
C64   C67   T    
C7    N2    S    
C50   N7    S    
H17   N8    S    
H22   N10   S    
H30   N3    S    
C71   C73   T    
C41   O22   A    
C19   H34   S    
C25   C26   A    
C40   C52   S    
C46   O8    A    
Cu6   O5    S    
C60   C61   A    
C51   C53   A    
C48   C54   S    
Cu1   Cu2   S    
C62   C63   A    
C14   C20   S    
C47   C48   A    
H24   N11   S    
H35   N1    S    
Cu5   O3    S    
C29   N5    S    
Cu1   O13   S    
C17   C18   A    
C39   C69   S    
H5    N5    S    
C53   H7    S    
C28   O15   A    
H3    N4    S    
C44   C70   S    
Cu3   O20   S    
Cu1   O15   S    
Cu4   O19   S    
C46   O9    A    
Cu2   O16   S    
C48   C49   A    
C72   H26   S    
C55   C57   T    
C34   C40   S    
C59   H16   S    
Cu3   O17   S    
C62   N9    S    
C54   C58   T    
Cu2   O11   S    
C15   C17   A    
Cu5   O6    S    
C39   O21   A    
C38   C71   S    
C40   C72   S    
C30   C33   S    
C5    H33   S    
C23   C72   S    
C2    C8    S    
C1    C10   S    
C12   C45   S    
C3    C5    A    
Cu1   O10   S    
Cu4   O12   S    
Cu3   O22   S    
C61   N8    S    
C6    C7    A    
C41   O23   A    
C74   N3    S    
C4    C64   S    
C42   O2    A    
C40   H8    S    
C43   O3    A    
C2    C3    A    
C59   C65   A    
C4    O11   A    
C36   C46   S    
Cu2   O4    S    
C5    C6    A    
C8    C11   T    
H21   N10   S    
H36   N1    S    
C16   O13   A    
C51   C55   S    
C61   C62   A    
C38   O19   A    
C34   C73   S    
C4    O10   A    
Cu5   Cu6   S    
C52   C56   S    
C65   H15   S    
Cu4   O21   S    
C49   C50   A    
C14   C15   A    
Cu5   O24   S    
H11   N6    S    
C37   O17   A    
C21   C22   T    
C25   N4    S    
Cu3   O18   S    
C37   C57   S    
Cu1   O1    S    
H29   N3    S    
Cu2   O14   S    
C23   N11   S    
H14   N7    S    
