data_mof_unit_47893.cif
_audit_creation_date              2012-12-11T17:00:23-0500
_audit_creation_method            fapswitch 2.2
_symmetry_space_group_name_H-M    P1
_symmetry_Int_Tables_number       1
_space_group_crystal_system       triclinic
_cell_length_a                    6.958184
_cell_length_b                    13.59729
_cell_length_c                    20.216848
_cell_angle_alpha                 102.970792
_cell_angle_beta                  90.476754
_cell_angle_gamma                 90.034001
_cell_volume                      1863.89001082

loop_
_atom_site_label
_atom_site_type_symbol
_atom_type_description
_atom_site_fract_x
_atom_site_fract_y
_atom_site_fract_z
_atom_type_partial_charge
O1    O     O_R   0.506770 0.599700 0.449550 -0.536481
O2    O     O_R   0.179980 0.595740 0.587960 -0.542792
O3    O     O_R   0.004580 0.400300 0.550450 -0.539587
C1    C     C_R   0.348196 0.616006 0.615644 0.701261
O4    O     O_R   0.177380 0.611700 0.452380 -0.538821
O5    O     O_R   0.001970 0.416370 0.413900 -0.544530
C2    C     C_R   0.345325 0.638313 0.435626 0.710536
O6    O     O_R   0.509390 0.583630 0.586100 -0.531920
O7    O     O_3   0.337530 0.435890 0.487530 -0.376027
V1    V     V_3+5 0.064660 0.511890 0.502310 1.430687
O8    O     O_R   0.671950 0.404260 0.412040 -0.543047
C3    C     C_R   0.840308 0.383265 0.384613 0.687768
O9    O     O_R   0.674540 0.388300 0.547620 -0.544103
C4    C     C_R   0.844852 0.361083 0.563821 0.688701
V2    V     V_3+5 0.564030 0.488110 0.497690 1.428360
O10   O     O_3   0.841030 0.564110 0.512470 -0.356437
C5    C     C_R   0.027119 0.130483 0.614576 -0.168970
H1    H     H_    0.011343 0.180268 0.521531 0.106645
H2    H     H_    0.108099 0.064633 0.590310 0.129581
C6    C     C_R   0.864896 0.282398 0.602275 -0.037428
C7    C     C_R   0.769783 0.306567 0.925905 -0.158654
C8    C     C_R   0.732387 0.379728 0.889055 0.192983
C9    C     C_R   0.770343 0.359167 0.819552 -0.160465
C10   C     C_R   0.850018 0.265738 0.785578 0.040028
C11   C     C_R   0.900971 0.194897 0.824856 0.021882
C12   C     C_R   0.882624 0.241196 0.714113 0.045259
C13   C     C_R   0.986353 0.151763 0.684589 0.123912
C14   C     C_R   0.049310 0.086233 0.725578 0.133561
C15   C     C_R   0.998166 0.106092 0.793951 -0.207397
C16   C     C_R   0.818083 0.303779 0.671011 -0.210627
C17   C     C_R   0.969477 0.195828 0.574377 -0.172447
C18   C     C_R   0.853867 0.214744 0.894719 -0.107845
H3    H     H_    0.737180 0.371782 0.689503 0.096702
H4    H     H_    0.733219 0.320912 0.979256 0.101929
H5    H     H_    0.739594 0.418918 0.793971 0.109594
H6    H     H_    0.041742 0.052778 0.823642 0.134486
C19   C     C_R   0.709010 0.183230 0.226737 0.119086
C20   C     C_R   0.866515 0.184118 0.184189 -0.113843
C21   C     C_R   0.021848 0.247696 0.210513 -0.187329
H7    H     H_    0.144441 0.252428 0.179009 0.137712
C22   C     C_R   0.014598 0.311094 0.275958 -0.178776
H8    H     H_    0.132373 0.362625 0.293063 0.130053
C23   C     C_R   0.851335 0.313129 0.317004 -0.110233
C24   C     C_R   0.701776 0.246070 0.291642 0.105427
C25   C     C_3   0.495409 0.269883 0.283766 -0.416844
C26   C     C_3   0.503537 0.202761 0.213099 -0.409249
H9    H     H_    0.472228 0.350831 0.283851 0.164327
H10   H     H_    0.402744 0.239090 0.318889 0.174046
H11   H     H_    0.486357 0.244721 0.172107 0.166891
H12   H     H_    0.412993 0.134372 0.207290 0.168230
C27   C     C_R   0.494853 0.757202 0.703506 0.102608
C28   C     C_R   0.351279 0.684719 0.683810 -0.152491
C29   C     C_R   0.198146 0.685489 0.729400 -0.183376
H13   H     H_    0.081109 0.632192 0.715941 0.124116
C30   C     C_R   0.199920 0.751009 0.794381 -0.187804
H14   H     H_    0.085077 0.746090 0.829214 0.124976
C31   C     C_R   0.355727 0.816955 0.815750 -0.105575
C32   C     C_R   0.498414 0.820984 0.767806 0.045152
C33   C     C_3   0.712574 0.817513 0.772827 -0.436123
C34   C     C_3   0.708378 0.747383 0.702193 0.148818
H15   H     H_    0.759957 0.779077 0.813141 0.145791
H16   H     H_    0.780553 0.892261 0.775567 0.181793
H17   H     H_    0.755994 0.669139 0.701414 0.086365
C35   C     C_R   0.318783 0.891514 0.388644 -0.174145
H18   H     H_    0.317373 0.015363 0.304620 0.121258
H19   H     H_    0.300115 0.970557 0.412959 0.118406
C36   C     C_R   0.350366 0.717537 0.397098 -0.038245
C37   C     C_R   0.356404 0.679901 0.068110 0.291851
C38   C     C_R   0.356270 0.604739 0.105100 -0.138909
C39   C     C_R   0.358498 0.629241 0.175821 -0.231945
C40   C     C_R   0.357230 0.730962 0.212462 0.092018
C41   C     C_R   0.353633 0.807946 0.174883 0.028679
C42   C     C_R   0.354246 0.758924 0.285067 0.089719
C43   C     C_R   0.335520 0.862326 0.317887 0.100375
C44   C     C_R   0.330567 0.936201 0.279916 -0.196296
C45   C     C_R   0.341406 0.909594 0.209754 -0.172239
C46   C     C_R   0.367107 0.687947 0.326388 -0.268613
C47   C     C_R   0.321951 0.819954 0.428618 0.170154
C48   C     C_R   0.359326 0.782079 0.102919 -0.150036
H20   H     H_    0.387410 0.608559 0.305194 0.101172
H21   H     H_    0.356520 0.566470 0.200170 0.121252
H22   H     H_    0.355077 0.526039 0.078688 0.129099
H23   H     H_    0.334916 0.969532 0.182749 0.112302
O11   O     O_R   0.203450 0.916320 0.913910 -0.543360
O12   O     O_R   0.535520 0.888300 0.047620 -0.543551
O13   O     O_R   0.710860 0.083650 0.086100 -0.537397
C49   C     C_R   0.367116 0.861285 0.064028 0.698784
O14   O     O_R   0.532860 0.904250 0.912040 -0.541698
O15   O     O_R   0.708190 0.099710 0.949550 -0.535627
C50   C     C_R   0.364143 0.882624 0.884855 0.700302
O16   O     O_R   0.206120 0.900260 0.050460 -0.535572
O17   O     O_3   0.375280 0.064080 0.012470 -0.371261
V3    V     V_3+5 0.648180 0.988110 0.997690 1.410238
O18   O     O_R   0.038220 0.111740 0.952370 -0.542835
C51   C     C_R   0.868722 0.136979 0.934507 0.695897
O19   O     O_R   0.040880 0.095790 0.087940 -0.545497
C52   C     C_R   0.872660 0.117922 0.115013 0.697089
V4    V     V_3+5 0.148800 0.011950 0.002300 1.402991
O20   O     O_3   0.871820 0.935920 0.987530 -0.372179
C53   C     C_3   0.175547 0.996069 0.698247 -0.812271
H24   H     H_    0.205892 0.951974 0.737060 0.219232
H25   H     H_    0.105405 0.944623 0.654529 0.210636
H26   H     H_    0.314925 0.021902 0.681735 0.213787
N1    N     N_2   0.799994 0.788747 0.649677 -0.482645
H27   H     H_    0.947858 0.788553 0.652549 0.267042
C54   C     C_3   0.720769 0.878069 0.631638 -0.515865
H28   H     H_    0.800564 0.894089 0.587884 0.186628
H29   H     H_    0.733010 0.944508 0.674805 0.197480
H30   H     H_    0.568025 0.865902 0.616177 0.200259
C55   C     C_3   0.292428 0.856174 0.503954 -0.815367
H31   H     H_    0.309458 0.795498 0.532118 0.196791
H32   H     H_    0.398133 0.916618 0.524775 0.203557
H33   H     H_    0.145404 0.887626 0.513266 0.206858
N2    N     N_2   0.352881 0.651262 0.995827 -0.534265
H34   H     H_    0.420362 0.700312 0.971321 0.245896
C56   C     C_3   0.166830 0.618424 0.966604 -0.568848
H35   H     H_    0.179036 0.593969 0.910573 0.193360
H36   H     H_    0.062015 0.681452 0.978697 0.199107
H37   H     H_    0.113563 0.553446 0.986219 0.214416
C57   C     C_3   0.648081 0.479648 0.923001 -0.769235
H38   H     H_    0.625188 0.485217 0.978027 0.219955
H39   H     H_    0.746377 0.541494 0.917246 0.200496
H40   H     H_    0.507651 0.489414 0.898858 0.230767

loop_
_geom_bond_atom_site_label_1
_geom_bond_atom_site_label_2
_ccdc_geom_bond_type
C30   H14   S    
C49   O16   A    
C22   H8    S    
O12   V3    S    
C36   C46   A    
C41   C45   A    
C48   C49   S    
N2    H34   S    
O17   V4    S    
C21   C22   A    
C6    C16   A    
C25   C26   S    
C28   C29   A    
C8    C57   S    
C15   H6    S    
C12   C13   A    
C1    C28   S    
C34   H17   S    
C14   C15   A    
C10   C12   A    
C41   C48   A    
O5    C3    A    
C20   C21   A    
C25   H10   S    
C54   H28   S    
O18   V4    S    
V2    O10   S    
C56   H35   S    
C42   C43   A    
C25   H9    S    
O13   C52   A    
C39   H21   S    
C55   H31   S    
C53   H24   S    
C38   H22   S    
O8    V2    S    
C37   C38   A    
O19   V4    S    
C9    C10   A    
C39   C40   A    
O1    V2    S    
O7    V1    S    
V3    O20   S    
C57   H40   S    
C1    O6    A    
C14   C53   S    
C11   C18   A    
O12   C49   A    
C33   C34   S    
O9    C4    A    
C22   C23   A    
O18   C51   A    
C36   C47   A    
O11   C50   A    
C20   C52   S    
C45   H23   S    
N1    C54   S    
N1    H27   S    
C57   H39   S    
C29   C30   A    
C11   C15   A    
C7    C18   A    
C33   H15   S    
C31   C50   S    
C27   C28   A    
C5    C13   A    
C4    C6    S    
C10   C11   A    
C43   C44   A    
C21   H7    S    
C40   C42   A    
C7    H4    S    
C32   C33   S    
C29   H13   S    
C53   H26   S    
C35   H19   S    
O15   C51   A    
O2    C1    A    
C44   C45   A    
C19   C20   A    
O13   V3    S    
C26   H11   S    
O19   C52   A    
C53   H25   S    
C34   N1    S    
C47   C55   S    
C27   C32   A    
C55   H33   S    
O3    C4    A    
O14   C50   A    
C12   C16   A    
O6    V2    S    
C9    H5    S    
O9    V2    S    
C23   C24   A    
C5    C17   A    
O2    V1    S    
C57   H38   S    
O4    C2    A    
C46   H20   S    
O14   V3    S    
C33   H16   S    
C42   C46   A    
C16   H3    S    
O1    C2    A    
C35   C47   A    
C24   C25   S    
O5    V1    S    
N2    C56   S    
O8    C3    A    
H1    C17   S    
C3    C23   S    
C26   H12   S    
H18   C44   S    
C56   H37   S    
O11   V4    S    
C19   C24   A    
C30   C31   A    
O7    V2    S    
O4    V1    S    
O3    V1    S    
V1    O10   S    
C31   C32   A    
C54   H29   S    
C37   C48   A    
O17   V3    S    
C5    H2    S    
C56   H36   S    
O16   V4    S    
O15   V3    S    
C38   C39   A    
C55   H32   S    
C2    C36   S    
C40   C41   A    
C18   C51   S    
V4    O20   S    
C13   C14   A    
C35   C43   A    
C8    C9    A    
C27   C34   S    
C19   C26   S    
C7    C8    A    
C6    C17   A    
C37   N2    S    
C54   H30   S    
