data_mof_unit_51286.cif
_audit_creation_date              2013-03-05T15:44:23-0500
_audit_creation_method            fapswitch 2.2
_symmetry_space_group_name_H-M    P1
_symmetry_Int_Tables_number       1
_space_group_crystal_system       triclinic
_cell_length_a                    18.897503
_cell_length_b                    10.968195
_cell_length_c                    18.719403
_cell_angle_alpha                 90.02419
_cell_angle_beta                  90.848564
_cell_angle_gamma                 90.241154
_cell_volume                      3879.53836329

loop_
_atom_site_label
_atom_site_type_symbol
_atom_site_description
_atom_site_fract_x
_atom_site_fract_y
_atom_site_fract_z
_atom_type_partial_charge
O1    O     O_R   0.784320 0.290430 0.830510 -0.471296
O2    O     O_R   0.215680 0.290430 0.169490 -0.468099
O3    O     O_R   0.284320 0.790430 0.830510 -0.470924
O4    O     O_R   0.715680 0.790430 0.169490 -0.472521
O5    O     O_R   0.762640 0.040960 0.825200 -0.524970
O6    O     O_R   0.237360 0.040960 0.174800 -0.529362
O7    O     O_R   0.262640 0.540960 0.825200 -0.531602
O8    O     O_R   0.737360 0.540960 0.174800 -0.531240
C1    C     C_R   0.728530 0.952680 0.852687 0.542612
C2    C     C_R   0.271454 0.952732 0.147317 0.539645
C3    C     C_R   0.228536 0.452666 0.852682 0.538480
C4    C     C_R   0.771457 0.452738 0.147313 0.538252
O9    O     O_R   0.667400 0.923970 0.829950 -0.478672
O10   O     O_R   0.332600 0.923970 0.170050 -0.472395
O11   O     O_R   0.167400 0.423970 0.829950 -0.474207
O12   O     O_R   0.832600 0.423970 0.170050 -0.474518
O13   O     O_R   0.553960 0.081340 0.821780 -0.442837
O14   O     O_R   0.446040 0.081340 0.178220 -0.435935
O15   O     O_R   0.053960 0.581340 0.821780 -0.441311
O16   O     O_R   0.946040 0.581340 0.178220 -0.442052
C5    C     C_R   0.529037 0.176947 0.850470 0.552682
C6    C     C_R   0.470952 0.177168 0.149524 0.563827
C7    C     C_R   0.029050 0.676946 0.850480 0.554498
C8    C     C_R   0.970960 0.677169 0.149529 0.551842
O17   O     O_R   0.543180 0.283240 0.826740 -0.527220
O18   O     O_R   0.456820 0.283240 0.173260 -0.521671
O19   O     O_R   0.043180 0.783240 0.826740 -0.524296
O20   O     O_R   0.956820 0.783240 0.173260 -0.528361
O21   O     O_R   0.678360 0.375140 0.822710 -0.495257
O22   O     O_R   0.321640 0.375140 0.177290 -0.488351
O23   O     O_R   0.178360 0.875140 0.822710 -0.489579
O24   O     O_R   0.821640 0.875140 0.177290 -0.492676
C9    C     C_R   0.723732 0.311613 0.859918 0.558226
C10   C     C_R   0.276198 0.311539 0.139975 0.558763
C11   C     C_R   0.223734 0.811619 0.859918 0.556243
C12   C     C_R   0.776196 0.811542 0.139976 0.554931
O25   O     O_R   0.785050 0.289380 0.670560 -0.517775
O26   O     O_R   0.214950 0.289380 0.329440 -0.511299
O27   O     O_R   0.285050 0.789380 0.670560 -0.514797
O28   O     O_R   0.714950 0.789380 0.329440 -0.514029
O29   O     O_R   0.763320 0.039990 0.676930 -0.513571
O30   O     O_R   0.236680 0.039990 0.323070 -0.525744
O31   O     O_R   0.263320 0.539990 0.676930 -0.524414
O32   O     O_R   0.736680 0.539990 0.323070 -0.515610
C13   C     C_R   0.710382 0.996635 0.639157 0.559986
C14   C     C_R   0.270958 0.951728 0.350997 0.552090
C15   C     C_R   0.229060 0.451564 0.649040 0.566075
C16   C     C_R   0.771183 0.452451 0.351375 0.567243
O33   O     O_R   0.668130 0.922920 0.670000 -0.439751
O34   O     O_R   0.331870 0.922920 0.330000 -0.459350
O35   O     O_R   0.168130 0.422920 0.670000 -0.443767
O36   O     O_R   0.831870 0.422920 0.330000 -0.447200
O37   O     O_R   0.554640 0.080370 0.673500 -0.468252
O38   O     O_R   0.445360 0.080370 0.326500 -0.482620
O39   O     O_R   0.054640 0.580370 0.673500 -0.495150
O40   O     O_R   0.945360 0.580370 0.326500 -0.501425
C17   C     C_R   0.525708 0.176788 0.646801 0.545801
C18   C     C_R   0.433627 0.181187 0.361672 0.550454
C19   C     C_R   0.033151 0.676802 0.642473 0.544859
C20   C     C_R   0.972905 0.675445 0.353227 0.545749
O41   O     O_R   0.543920 0.282180 0.666790 -0.527447
O42   O     O_R   0.456080 0.282180 0.333210 -0.504383
O43   O     O_R   0.043920 0.782180 0.666790 -0.517566
O44   O     O_R   0.956080 0.782180 0.333210 -0.514312
O45   O     O_R   0.679040 0.374160 0.674430 -0.488178
O46   O     O_R   0.320960 0.374160 0.325570 -0.491683
O47   O     O_R   0.179040 0.874160 0.674430 -0.474159
O48   O     O_R   0.820960 0.874160 0.325570 -0.473482
C21   C     C_R   0.738482 0.358593 0.644632 0.558918
C22   C     C_R   0.262228 0.356299 0.356250 0.575181
C23   C     C_R   0.237724 0.855907 0.643713 0.581400
C24   C     C_R   0.759831 0.865481 0.352261 0.579539
Cr1   Cr    Cr6+3 0.769270 0.163730 0.750710 1.051577
Cr2   Cr    Cr6+3 0.230730 0.163730 0.249290 1.042914
Cr3   Cr    Cr6+3 0.269270 0.663730 0.750710 1.048820
Cr4   Cr    Cr6+3 0.730730 0.663730 0.249290 1.059790
Cr5   Cr    Cr6+3 0.612620 0.009790 0.748780 1.136414
Cr6   Cr    Cr6+3 0.387380 0.009790 0.251220 1.130782
Cr7   Cr    Cr6+3 0.112620 0.509790 0.748780 1.133352
Cr8   Cr    Cr6+3 0.887380 0.509790 0.251220 1.130565
Cr9   Cr    Cr6+3 0.614160 0.322500 0.747710 1.040479
Cr10  Cr    Cr6+3 0.385840 0.322500 0.252290 1.064599
Cr11  Cr    Cr6+3 0.114160 0.822500 0.747710 1.069748
Cr12  Cr    Cr6+3 0.885840 0.822500 0.252290 1.068259
O49   O     O_3   0.665350 0.165340 0.749070 -0.316128
O50   O     O_3   0.334650 0.165340 0.250930 -0.329671
O51   O     O_3   0.165350 0.665340 0.749070 -0.305614
O52   O     O_3   0.834650 0.665340 0.250930 -0.301452
C25   C     C_2   0.496612 0.165779 0.921188 -0.136954
C26   C     C_2   0.503365 0.166255 0.078800 -0.138446
C27   C     C_2   0.996653 0.665768 0.921213 -0.138343
C28   C     C_2   0.003403 0.666260 0.078824 -0.137089
C29   C     C_2   0.498022 0.061959 0.039863 0.170780
C30   C     C_2   0.502063 0.061786 0.960251 0.172898
C31   C     C_2   0.998083 0.561959 0.039892 0.172398
C32   C     C_2   0.002136 0.561783 0.960283 0.171691
H1    H     H_    0.519445 0.251177 0.054174 0.068487
H2    H     H_    0.480444 0.250535 0.945717 0.068501
H3    H     H_    0.019485 0.751182 0.054198 0.068714
H4    H     H_    0.980470 0.750517 0.945741 0.068794
C33   C     C_R   0.679149 0.414517 0.970113 -0.140630
C34   C     C_R   0.320879 0.415039 0.029834 -0.140094
C35   C     C_R   0.179153 0.914534 0.970112 -0.140095
C36   C     C_R   0.820876 0.915044 0.029840 -0.139573
H5    H     H_    0.636949 0.457999 0.939938 0.149673
H6    H     H_    0.363218 0.458771 0.060015 0.150637
H7    H     H_    0.136960 0.958029 0.939935 0.150524
H8    H     H_    0.863224 0.958757 0.060017 0.150553
C37   C     C_R   0.688897 0.444834 0.041994 -0.149062
C38   C     C_R   0.311127 0.445368 0.957980 -0.149572
C39   C     C_R   0.188894 0.944837 0.041997 -0.149790
C40   C     C_R   0.811118 0.945384 0.957990 -0.149241
H9    H     H_    0.654390 0.511341 0.065869 0.137562
H10   H     H_    0.345767 0.512170 0.934131 0.137277
H11   H     H_    0.154388 0.011344 0.065872 0.137256
H12   H     H_    0.845764 0.012172 0.934137 0.137841
C41   C     C_R   0.746008 0.395608 0.080852 0.023312
C42   C     C_R   0.253864 0.395744 0.919120 0.022625
C43   C     C_R   0.246001 0.895599 0.080858 0.022071
C44   C     C_R   0.753845 0.895778 0.919136 0.021400
C45   C     C_R   0.786359 0.302779 0.050267 -0.078198
C46   C     C_R   0.213284 0.302663 0.949681 -0.077954
C47   C     C_R   0.286343 0.802758 0.050275 -0.078172
C48   C     C_R   0.713248 0.802724 0.949703 -0.080279
H13   H     H_    0.828051 0.257822 0.080370 0.182779
H14   H     H_    0.171432 0.257484 0.919578 0.182600
H15   H     H_    0.328026 0.757784 0.080383 0.183226
H16   H     H_    0.671382 0.757569 0.919610 0.179808
C49   C     C_R   0.777691 0.274517 0.978571 -0.097602
C50   C     C_R   0.221947 0.274415 0.021355 -0.097436
C51   C     C_R   0.277681 0.774507 0.978576 -0.097382
C52   C     C_R   0.721922 0.774459 0.021371 -0.096736
H17   H     H_    0.813192 0.209695 0.954838 0.146457
H18   H     H_    0.186273 0.209388 0.045081 0.146124
H19   H     H_    0.313178 0.709676 0.954845 0.146497
H20   H     H_    0.686245 0.709439 0.045099 0.146072
C53   C     C_R   0.726594 0.334674 0.937011 0.017298
C54   C     C_R   0.273280 0.334808 0.062912 0.016429
C55   C     C_R   0.226595 0.834682 0.937012 0.016953
C56   C     C_R   0.773272 0.834823 0.062919 0.018049
C57   C     C_R   0.470263 0.285638 0.546557 -0.124839
C58   C     C_R   0.450933 0.286634 0.475750 -0.129141
C59   C     C_R   0.036217 0.774128 0.526416 -0.121608
C60   C     C_R   0.033097 0.768680 0.453613 -0.127229
H21   H     H_    0.483024 0.372733 0.570955 0.160273
H22   H     H_    0.449334 0.373776 0.448694 0.157174
H23   H     H_    0.052246 0.859836 0.550429 0.156272
H24   H     H_    0.043474 0.850963 0.423346 0.148526
C61   C     C_R   0.440733 0.176816 0.439170 0.004833
C62   C     C_R   0.481028 0.174338 0.582156 0.024047
C63   C     C_R   0.007713 0.662858 0.421139 0.024266
C64   C     C_R   0.019023 0.671002 0.567281 0.024741
C65   C     C_R   0.438016 0.066896 0.477578 -0.123451
C66   C     C_R   0.456580 0.066431 0.550106 -0.092721
C67   C     C_R   0.996914 0.555739 0.460874 -0.115896
C68   C     C_R   0.002531 0.560041 0.534401 -0.122554
H25   H     H_    0.424631 0.981865 0.451228 0.178549
H26   H     H_    0.453989 0.982516 0.579939 0.190459
H27   H     H_    0.978308 0.472056 0.436023 0.183632
H28   H     H_    0.992479 0.478458 0.565361 0.168215
C69   C     C_R   0.796458 0.323258 0.530942 -0.126017
C70   C     C_R   0.206628 0.313957 0.470804 -0.118410
C71   C     C_R   0.293409 0.814757 0.529181 -0.129421
C72   C     C_R   0.679275 0.896324 0.449951 -0.104994
H29   H     H_    0.833984 0.263946 0.557687 0.171478
H30   H     H_    0.170460 0.251273 0.444262 0.169311
H31   H     H_    0.329756 0.752996 0.555738 0.170501
H32   H     H_    0.637532 0.852430 0.418838 0.184011
C73   C     C_R   0.796183 0.325050 0.457273 0.197508
C74   C     C_R   0.205916 0.318799 0.544513 0.204170
C75   C     C_R   0.293960 0.819236 0.455469 0.191517
C76   C     C_R   0.670005 0.906007 0.522391 0.194130
C77   C     C_R   0.750903 0.407449 0.421340 0.008625
C78   C     C_R   0.250267 0.403900 0.580009 0.013030
C79   C     C_R   0.249642 0.903715 0.419978 0.010507
C80   C     C_R   0.722289 0.967859 0.564227 -0.010631
C81   C     C_R   0.699038 0.470797 0.459537 -0.153458
C82   C     C_R   0.302636 0.466327 0.541904 -0.177562
C83   C     C_R   0.197129 0.965091 0.458047 -0.185107
C84   C     C_R   0.785986 0.004051 0.532539 -0.169322
H33   H     H_    0.663230 0.533486 0.432909 0.180818
H34   H     H_    0.338788 0.529057 0.568431 0.154963
H35   H     H_    0.160973 0.027221 0.431516 0.154400
H36   H     H_    0.827942 0.047048 0.563541 0.161696
C85   C     C_R   0.695809 0.459347 0.533357 -0.127013
C86   C     C_R   0.305858 0.454091 0.468235 -0.134101
C87   C     C_R   0.193690 0.952431 0.531683 -0.134240
C88   C     C_R   0.798413 0.976029 0.461567 -0.094808
H37   H     H_    0.654735 0.505977 0.562173 0.195822
H38   H     H_    0.347309 0.499984 0.439645 0.210134
H39   H     H_    0.152003 0.997350 0.560199 0.209907
H40   H     H_    0.850573 0.991492 0.440160 0.206703
C89   C     C_R   0.746121 0.388713 0.569558 -0.026283
C90   C     C_R   0.255777 0.382508 0.431999 -0.016798
C91   C     C_R   0.244103 0.882231 0.567968 -0.016106
C92   C     C_R   0.744707 0.922566 0.420031 -0.004361
N1    N     N_R   0.490662 0.946035 0.075187 0.134648
O53   O     O_R   0.445063 0.866114 0.051513 -0.312160
O54   O     O_R   0.536411 0.913934 0.124266 -0.295881
N2    N     N_R   0.509553 0.945823 0.925071 0.134600
O55   O     O_R   0.555223 0.866824 0.948865 -0.312601
O56   O     O_R   0.463844 0.912664 0.876029 -0.300790
N3    N     N_R   0.990724 0.446037 0.075220 0.135044
O57   O     O_R   0.945137 0.366100 0.051541 -0.312089
O58   O     O_R   0.036452 0.413967 0.124326 -0.298806
N4    N     N_R   0.009665 0.445819 0.925115 0.134752
O59   O     O_R   0.055350 0.366864 0.948929 -0.311740
O60   O     O_R   0.963944 0.412578 0.876104 -0.299971
N5    N     N_R   0.843391 0.245382 0.419935 0.073689
O61   O     O_R   0.822171 0.189980 0.361872 -0.333420
O62   O     O_R   0.905720 0.220746 0.446586 -0.362084
N6    N     N_R   0.158516 0.239768 0.582311 0.071702
O63   O     O_R   0.095677 0.215963 0.556321 -0.356323
O64   O     O_R   0.179688 0.185247 0.640562 -0.338341
N7    N     N_R   0.341228 0.740605 0.417661 0.068352
O65   O     O_R   0.320035 0.686155 0.359287 -0.330686
O66   O     O_R   0.403969 0.717197 0.443696 -0.355740
N8    N     N_R   0.613748 0.834609 0.552119 0.097698
O67   O     O_R   0.563507 0.886055 0.587194 -0.330545
O68   O     O_R   0.605089 0.722027 0.531806 -0.362503

loop_
_geom_bond_atom_site_label_1
_geom_bond_atom_site_label_2
_geom_bond_distance
_ccdc_geom_bond_type
C18   O42   1.301600 A    
Cr11  O51   1.980186 S    
N3    O57   1.299750 A    
O4    C12   1.297422 A    
O47   Cr11  1.936657 S    
C29   C30   1.493369 S    
O39   C19   1.272053 A    
O20   Cr12  2.058237 S    
C58   H22   1.082205 S    
O15   C7    1.273186 A    
C31   C32   1.493339 S    
C40   H12   1.081460 S    
C60   H24   1.084529 S    
C43   C47   1.401735 A    
C38   C42   1.402800 A    
O26   C22   1.252883 A    
O1    C9    1.299515 A    
O27   Cr3   2.061761 S    
C5    C25   1.471888 S    
C19   C64   1.430096 S    
C59   H23   1.082008 S    
C76   C80   1.421548 A    
N3    O58   1.301833 A    
O5    C1    1.273885 A    
O24   C12   1.299515 A    
C58   C61   1.396535 A    
C35   C39   1.395297 A    
C66   H26   1.078083 S    
C60   C63   1.390289 A    
O25   C21   1.256806 A    
N7    O66   1.301834 A    
C34   C54   1.406135 A    
N4    O60   1.301830 A    
C83   C87   1.387910 A    
C81   C85   1.389837 A    
C33   C37   1.395289 A    
C59   C60   1.364504 A    
O21   C9    1.301359 A    
O8    Cr4   1.943791 S    
O23   Cr11  1.928552 S    
C48   C52   1.384579 A    
C39   C43   1.402653 A    
O30   C14   1.275044 A    
C25   C30   1.358590 D    
O32   Cr4   1.939175 S    
C81   H33   1.083218 S    
C61   C65   1.405132 A    
O44   Cr12  2.048891 S    
O7    C3    1.273902 A    
C1    O9    1.263767 A    
C2    C43   1.466582 S    
C84   C88   1.387152 A    
C11   C55   1.465212 S    
C27   C32   1.358633 D    
C70   H30   1.082790 S    
O45   Cr9   1.936657 S    
O11   Cr7   2.056511 S    
C64   C68   1.395575 A    
C9    C53   1.465202 S    
N2    O55   1.299713 A    
C13   O33   1.277969 A    
C27   H4    1.083769 S    
C71   C75   1.380935 A    
Cr4   O52   1.963619 S    
C26   H1    1.083769 S    
C87   H39   1.078788 S    
O2    Cr2   2.058164 S    
C18   C61   1.455772 S    
C37   H9    1.081411 S    
C23   C91   1.453755 S    
C48   H16   1.082516 S    
C75   N7    1.437800 S    
C22   C90   1.453682 S    
O2    C10   1.297442 A    
O42   Cr10  2.048891 S    
Cr5   O49   1.972126 S    
O18   Cr10  2.058237 S    
C78   C82   1.404510 A    
O31   Cr3   1.937696 S    
C50   H18   1.079589 S    
C3    O11   1.263795 A    
O8    C4    1.277065 A    
O34   Cr6   2.054657 S    
Cr9   O49   1.980186 S    
Cr7   O51   1.972126 S    
C57   C62   1.405160 A    
O6    Cr2   1.943791 S    
C83   H35   1.082602 S    
C33   H5    1.082846 S    
O24   Cr12  1.931962 S    
O9    Cr5   2.056511 S    
O30   Cr2   1.939175 S    
C30   N2    1.440497 S    
O22   C10   1.299528 A    
C67   H27   1.083777 S    
O48   Cr12  1.939337 S    
O14   Cr6   1.936628 S    
C4    O12   1.266647 A    
C72   H32   1.084531 S    
C2    O10   1.266657 A    
C13   C80   1.458492 S    
C45   C49   1.384519 A    
C40   C44   1.402799 A    
O16   Cr8   1.936628 S    
N4    O59   1.299707 A    
C15   O35   1.260510 A    
O26   Cr2   2.062591 S    
Cr10  O50   1.973067 S    
C25   H2    1.083768 S    
C75   C79   1.411364 A    
C10   C54   1.465350 S    
C28   C31   1.358714 D    
O13   C5    1.273212 A    
O40   C20   1.263322 A    
C44   C48   1.401631 A    
O48   C24   1.268604 A    
O12   Cr8   2.051931 S    
C20   C63   1.429676 S    
C46   H14   1.082525 S    
C29   N1    1.440553 S    
N7    O65   1.302154 A    
C42   C46   1.401619 A    
C45   H13   1.082491 S    
C35   C55   1.406199 A    
O46   Cr10  1.939337 S    
O39   Cr7   1.935962 S    
O3    C11   1.299508 A    
C80   C84   1.405593 A    
C47   H15   1.082492 S    
C70   C74   1.381051 A    
C71   C91   1.403009 A    
C71   H31   1.082532 S    
C52   H20   1.079602 S    
C73   N5    1.439609 S    
C17   C62   1.465446 S    
C70   C90   1.403641 A    
C21   C89   1.452923 S    
N5    O61   1.302267 A    
C6    C26   1.471988 S    
C69   C89   1.403031 A    
O7    Cr3   1.943875 S    
Cr2   O50   1.963619 S    
O15   Cr7   1.939938 S    
C12   C56   1.465264 S    
Cr1   O49   1.963768 S    
C82   H34   1.082767 S    
C85   H37   1.081906 S    
C49   H17   1.079598 S    
Cr3   O51   1.963768 S    
C59   C64   1.405397 A    
N6    O64   1.302437 A    
O21   Cr9   1.928552 S    
C7    O19   1.276457 A    
C62   C66   1.400277 A    
O37   Cr5   1.935962 S    
C8    C28   1.471923 S    
C8    O20   1.275913 A    
C7    C27   1.471925 S    
C34   C38   1.395477 A    
C50   C54   1.398845 A    
C38   H10   1.081461 S    
C36   H8    1.082853 S    
C76   N8    1.436671 S    
O3    Cr3   2.055693 S    
C26   C29   1.358759 D    
C36   C40   1.395454 A    
C16   C77   1.455903 S    
C74   C78   1.411258 A    
O25   Cr1   2.061761 S    
C72   C76   1.374000 A    
C5    O17   1.276435 A    
C33   C53   1.406196 A    
O22   Cr10  1.931962 S    
O28   C24   1.257605 A    
C47   C51   1.384536 A    
O14   C6    1.272279 A    
C19   O43   1.256717 A    
C86   C90   1.395185 A    
O5    Cr1   1.943875 S    
C32   N4    1.440484 S    
Cr12  O52   1.973067 S    
C85   C89   1.396764 A    
O17   Cr9   2.056138 S    
O37   C17   1.290077 A    
C24   C92   1.447294 S    
C79   C83   1.404274 A    
C37   C41   1.402651 A    
C72   C92   1.393964 A    
C17   O41   1.259828 A    
C68   H28   1.083935 S    
C41   C45   1.401741 A    
C52   C56   1.398823 A    
C46   C50   1.384635 A    
C14   O34   1.263201 A    
C51   H19   1.079596 S    
C63   C67   1.406601 A    
O40   Cr8   1.931793 S    
C20   O44   1.269649 A    
N8    O68   1.300855 A    
C88   H40   1.082254 S    
C35   H7    1.082847 S    
O1    Cr1   2.055693 S    
N1    O54   1.301829 A    
C65   C66   1.397250 A    
C69   C73   1.379114 A    
Cr8   O52   1.979373 S    
O32   C16   1.274059 A    
O29   C13   1.304472 A    
C57   C58   1.369722 A    
O13   Cr5   1.939938 S    
C3    C42   1.466683 S    
C73   C77   1.411167 A    
Cr6   O50   1.979373 S    
N8    O67   1.293669 A    
O46   C22   1.271700 A    
O31   C15   1.271478 A    
O45   C21   1.273657 A    
O23   C11   1.301348 A    
O19   Cr11  2.056138 S    
C57   H21   1.083381 S    
N5    O62   1.301798 A    
O33   Cr5   2.058172 S    
C34   H6    1.082850 S    
O47   C23   1.273278 A    
O10   Cr6   2.051931 S    
C65   H25   1.082133 S    
N1    O53   1.299743 A    
O35   Cr7   2.058172 S    
O4    Cr4   2.058164 S    
C15   C78   1.456104 S    
C51   C55   1.398761 A    
O6    C2    1.277056 A    
O29   Cr1   1.937696 S    
C4    C41   1.466568 S    
C82   C86   1.387759 A    
O28   Cr4   2.062591 S    
C16   O36   1.263660 A    
C49   C53   1.398761 A    
N6    O63   1.301995 A    
C88   C92   1.396309 A    
C39   H11   1.081409 S    
C6    O18   1.275926 A    
O43   Cr11  2.046202 S    
O38   C18   1.308117 A    
C67   C68   1.379680 A    
C1    C44   1.466668 S    
O27   C23   1.255919 A    
C14   C79   1.456432 S    
C87   C91   1.396152 A    
O41   Cr9   2.046202 S    
C86   H38   1.078294 S    
C77   C81   1.407385 A    
O36   Cr8   2.054657 S    
C74   N6    1.437755 S    
C31   N3    1.440563 S    
O16   C8    1.272304 A    
N2    O56   1.301835 A    
C69   H29   1.081857 S    
C84   H36   1.082044 S    
C28   H3    1.083773 S    
C36   C56   1.406125 A    
O38   Cr6   1.931793 S    
