data_mof_unit_65111.cif
_audit_creation_date              2012-12-10T17:45:38-0500
_audit_creation_method            fapswitch 2.2
_symmetry_space_group_name_H-M    P1
_symmetry_Int_Tables_number       1
_space_group_crystal_system       monoclinic
_cell_length_a                    30.472928
_cell_length_b                    30.358646
_cell_length_c                    30.472919
_cell_angle_alpha                 90.0
_cell_angle_beta                  89.999958
_cell_angle_gamma                 90.0
_cell_volume                      28191.01034

loop_
_atom_site_label
_atom_site_type_symbol
_atom_type_description
_atom_site_fract_x
_atom_site_fract_y
_atom_site_fract_z
_atom_type_partial_charge
C1    C     C_R   0.500000 0.000000 0.915035 0.791856
C2    C     C_R   0.000000 0.500000 0.915080 0.791610
C3    C     C_R   0.016871 0.463608 0.343729 -0.028115
C4    C     C_R   0.975163 0.343279 0.468589 -0.026415
C5    C     C_R   0.983129 0.463608 0.656270 -0.028115
C6    C     C_R   0.975163 0.656721 0.531411 -0.026415
C7    C     C_R   0.983129 0.536392 0.343729 -0.028115
C8    C     C_R   0.656271 0.536391 0.983128 -0.028115
C9    C     C_R   0.531412 0.343280 0.975164 -0.026415
C10   C     C_R   0.343729 0.463609 0.983128 -0.028115
C11   C     C_R   0.468588 0.656720 0.975164 -0.026415
C12   C     C_R   0.343729 0.536391 0.016872 -0.028115
C13   C     C_R   0.915080 0.500000 0.000000 0.791610
C14   C     C_R   0.468588 0.343280 0.024836 -0.026415
C15   C     C_R   0.656271 0.463609 0.016872 -0.028115
C16   C     C_R   0.531412 0.656720 0.024836 -0.026415
C17   C     C_R   0.517324 0.036316 0.342755 -0.036461
C18   C     C_R   0.342755 0.036315 0.482674 -0.036462
C19   C     C_R   0.482680 0.036318 0.657245 -0.036462
C20   C     C_R   0.657245 0.036315 0.517325 -0.036461
C21   C     C_R   0.517320 0.963682 0.657245 -0.036462
C22   C     C_R   0.342755 0.963685 0.517326 -0.036461
C23   C     C_R   0.482675 0.963684 0.342755 -0.036461
C24   C     C_R   0.000000 0.500000 0.084920 0.791610
C25   C     C_R   0.657245 0.963685 0.482674 -0.036462
C26   C     C_R   0.500000 0.132906 0.000000 -0.096985
C27   C     C_R   0.500000 0.000000 0.133324 -0.095403
C28   C     C_R   0.500000 0.867094 0.000000 -0.096984
C29   C     C_R   0.500000 0.000000 0.866676 -0.095402
C30   C     C_R   0.133324 1.000000 0.500000 -0.095403
C31   C     C_R   0.000000 0.867094 0.500000 -0.096985
C32   C     C_R   0.866676 1.000000 0.500000 -0.095403
C33   C     C_R   1.000000 0.132906 0.500000 -0.096985
C34   C     C_R   0.000000 0.500000 0.866838 -0.096843
C35   C     C_R   0.000000 0.500000 0.415166 0.788802
C36   C     C_R   0.866838 0.500000 1.000000 -0.096843
C37   C     C_R   1.000000 0.500000 0.133162 -0.096843
C38   C     C_R   0.133161 0.500000 0.000000 -0.096843
C39   C     C_R   1.000000 0.633315 0.500000 -0.095651
C40   C     C_R   1.000000 0.500000 0.633011 -0.096251
C41   C     C_R   1.000000 0.366685 0.500000 -0.095651
C42   C     C_R   0.000000 0.500000 0.366989 -0.096251
C43   C     C_R   0.633011 0.500000 1.000000 -0.096251
C44   C     C_R   0.500000 0.366685 0.000000 -0.095651
C45   C     C_R   0.366989 0.500000 0.000000 -0.096251
C46   C     C_R   0.000000 0.584933 0.500000 0.790185
C47   C     C_R   0.500000 0.633315 0.000000 -0.095651
C48   C     C_R   0.500000 0.000000 0.366412 -0.123127
C49   C     C_R   0.366413 1.000000 0.500000 -0.123127
C50   C     C_R   0.500000 1.000000 0.633588 -0.123132
C51   C     C_R   0.633587 0.000000 0.500000 -0.123128
C52   C     C_R   0.500000 0.225380 0.000000 0.081520
C53   C     C_R   0.500000 0.000000 0.225639 0.093042
C54   C     C_R   0.500000 0.774620 0.000000 0.081520
C55   C     C_R   0.500000 0.000000 0.774361 0.093040
C56   C     C_R   0.225639 1.000000 0.500000 0.093042
C57   C     C_R   1.000000 0.500000 0.584834 0.788802
C58   C     C_R   1.000000 0.774620 0.500000 0.081520
C59   C     C_R   0.774361 1.000000 0.500000 0.093042
C60   C     C_R   0.000000 0.225380 0.500000 0.081519
C61   C     C_R   1.000000 0.500000 0.774274 0.085304
C62   C     C_R   0.774274 0.500000 1.000000 0.085304
C63   C     C_R   0.000000 0.500000 0.225726 0.085304
C64   C     C_R   0.225726 0.500000 0.000000 0.085304
C65   C     C_R   1.000000 0.725973 0.500000 0.085472
C66   C     C_R   1.000000 0.500000 0.725529 0.084421
C67   C     C_R   0.000000 0.274027 0.500000 0.085472
C68   C     C_R   0.000000 0.415067 0.500000 0.790185
C69   C     C_R   1.000000 0.500000 0.274471 0.084421
C70   C     C_R   0.725529 0.500000 1.000000 0.084421
C71   C     C_R   0.500000 0.274027 0.000000 0.085472
C72   C     C_R   0.274471 0.500000 0.000000 0.084421
C73   C     C_R   0.500000 0.725973 0.000000 0.085472
C74   C     C_R   0.500000 0.000000 0.273983 0.091244
C75   C     C_R   0.273983 1.000000 0.500000 0.091244
C76   C     C_R   0.500000 0.000000 0.726017 0.091245
C77   C     C_R   0.726017 1.000000 0.500000 0.091244
C78   C     C_1   0.516039 0.133353 0.919901 0.239249
C79   C     C_R   0.500000 0.584933 0.000000 0.790185
C80   C     C_1   0.569617 0.044267 0.135436 0.287597
C81   C     C_1   0.516039 0.866647 0.080100 0.239249
C82   C     C_1   0.569613 0.955727 0.864564 0.287595
C83   C     C_1   0.483961 0.866646 0.919901 0.239250
C84   C     C_1   0.430383 0.955733 0.135436 0.287597
C85   C     C_1   0.483961 0.133353 0.080100 0.239249
C86   C     C_1   0.430387 0.044273 0.864564 0.287595
C87   C     C_1   0.135437 0.044263 0.430380 0.287601
C88   C     C_1   0.080100 0.866647 0.483965 0.239248
C89   C     C_1   0.864563 0.955736 0.430381 0.287600
C90   C     C_R   0.584834 0.500000 1.000000 0.788802
C91   C     C_1   0.919900 0.133353 0.483966 0.239248
C92   C     C_1   0.864563 0.044264 0.569619 0.287601
C93   C     C_1   0.919900 0.866647 0.516034 0.239248
C94   C     C_1   0.135437 0.955737 0.569619 0.287601
C95   C     C_1   0.080100 0.133353 0.516034 0.239247
C96   C     C_1   0.070471 0.541618 0.865993 0.258477
C97   C     C_1   0.865993 0.541617 0.929529 0.258477
C98   C     C_1   0.929529 0.541618 0.134007 0.258477
C99   C     C_1   0.134007 0.541617 0.070471 0.258476
C100  C     C_1   0.070471 0.458382 0.134007 0.258477
C101  C     C_R   0.500000 0.415067 0.000000 0.790185
C102  C     C_1   0.865993 0.458383 0.070471 0.258476
C103  C     C_1   0.929529 0.458382 0.865993 0.258477
C104  C     C_1   0.134007 0.458383 0.929529 0.258476
C105  C     C_1   0.049783 0.634329 0.434970 0.266519
C106  C     C_1   0.034017 0.574572 0.633715 0.251548
C107  C     C_1   0.049784 0.365670 0.565030 0.266519
C108  C     C_1   0.034017 0.425428 0.366284 0.251548
C109  C     C_1   0.950216 0.365670 0.434970 0.266520
C110  C     C_1   0.965983 0.425428 0.633715 0.251549
C111  C     C_1   0.950217 0.634329 0.565030 0.266519
C112  C     C_R   0.500000 0.084784 1.000000 0.789153
C113  C     C_R   0.415166 0.500000 0.000000 0.788803
C114  C     C_1   0.965983 0.574572 0.366285 0.251548
C115  C     C_1   0.633715 0.574571 0.965981 0.251549
C116  C     C_1   0.565031 0.365671 0.950218 0.266518
C117  C     C_1   0.366284 0.425428 0.965981 0.251550
C118  C     C_1   0.434968 0.634329 0.950218 0.266518
C119  C     C_1   0.366284 0.574571 0.034019 0.251550
C120  C     C_1   0.434968 0.365671 0.049782 0.266518
C121  C     C_1   0.633715 0.425428 0.034019 0.251550
C122  C     C_1   0.565031 0.634329 0.049781 0.266517
C123  C     C_1   0.537693 0.073721 0.363935 0.280859
C124  C     C_R   0.585091 0.000000 0.500000 0.773588
C125  C     C_1   0.363936 0.073719 0.462303 0.280855
C126  C     C_1   0.462317 0.073726 0.636066 0.280866
C127  C     C_1   0.636065 0.073720 0.537695 0.280857
C128  C     C_1   0.537683 0.926274 0.636065 0.280867
C129  C     C_1   0.363936 0.926281 0.537697 0.280857
C130  C     C_1   0.462307 0.926279 0.363935 0.280859
C131  C     C_1   0.636065 0.926280 0.462305 0.280856
C132  C     C_R   0.500000 0.000000 0.414909 0.773589
C133  C     C_R   0.414909 0.000000 0.500000 0.773589
C134  C     C_R   0.500000 0.000000 0.585092 0.773586
C135  C     C_R   0.507770 0.202084 0.960976 -0.180994
C136  C     C_R   0.534601 0.019533 0.202514 -0.187883
C137  C     C_R   0.507770 0.797916 0.039024 -0.180994
C138  C     C_R   0.534599 0.980463 0.797487 -0.187883
C139  C     C_R   0.492229 0.797916 0.960976 -0.180993
C140  C     C_R   0.500000 0.000000 0.084965 0.791855
C141  C     C_R   0.465399 0.980467 0.202514 -0.187883
C142  C     C_R   0.492230 0.202084 0.039024 -0.180994
C143  C     C_R   0.465401 0.019536 0.797487 -0.187882
C144  C     C_R   0.202514 0.019531 0.465398 -0.187883
C145  C     C_R   0.039024 0.797916 0.492232 -0.180994
C146  C     C_R   0.797486 0.980468 0.465398 -0.187883
C147  C     C_R   0.960976 0.202084 0.492232 -0.180994
C148  C     C_R   0.797486 0.019532 0.534602 -0.187883
C149  C     C_R   0.960976 0.797916 0.507768 -0.180994
C150  C     C_R   0.202514 0.980469 0.534602 -0.187883
C151  C     C_R   0.500000 0.915216 1.000000 0.789154
C152  C     C_R   0.039024 0.202084 0.507768 -0.180994
C153  C     C_R   0.034356 0.520037 0.797670 -0.180712
C154  C     C_R   0.797670 0.520037 0.965644 -0.180713
C155  C     C_R   0.965644 0.520037 0.202330 -0.180712
C156  C     C_R   0.202330 0.520037 0.034356 -0.180713
C157  C     C_R   0.034356 0.479963 0.202330 -0.180713
C158  C     C_R   0.797670 0.479963 0.034356 -0.180713
C159  C     C_R   0.965644 0.479963 0.797670 -0.180713
C160  C     C_R   0.202330 0.479963 0.965644 -0.180714
C161  C     C_R   0.024461 0.702692 0.468668 -0.183165
C162  C     C_R   0.000000 0.084784 0.500000 0.789153
C163  C     C_R   0.016265 0.536401 0.702129 -0.180255
C164  C     C_R   0.024461 0.297308 0.531332 -0.183165
C165  C     C_R   0.016265 0.463599 0.297871 -0.180255
C166  C     C_R   0.975539 0.297308 0.468668 -0.183165
C167  C     C_R   0.983735 0.463599 0.702129 -0.180255
C168  C     C_R   0.975539 0.702692 0.531332 -0.183165
C169  C     C_R   0.983735 0.536400 0.297871 -0.180256
C170  C     C_R   0.702129 0.536400 0.983734 -0.180255
C171  C     C_R   0.531333 0.297308 0.975540 -0.183164
C172  C     C_R   0.297871 0.463600 0.983734 -0.180256
C173  C     C_R   0.084965 0.000000 0.500000 0.791855
C174  C     C_R   0.468667 0.702692 0.975540 -0.183165
C175  C     C_R   0.297871 0.536400 0.016266 -0.180255
C176  C     C_R   0.468667 0.297308 0.024460 -0.183165
C177  C     C_R   0.702129 0.463600 0.016266 -0.180256
C178  C     C_R   0.531333 0.702692 0.024460 -0.183164
C179  C     C_R   0.516280 0.036314 0.297102 -0.192123
C180  C     C_R   0.297102 0.036313 0.483718 -0.192123
C181  C     C_R   0.483725 0.036316 0.702898 -0.192124
C182  C     C_R   0.702898 0.036313 0.516281 -0.192122
C183  C     C_R   0.516275 0.963684 0.702898 -0.192125
C184  C     C_R   0.000000 0.915216 0.500000 0.789154
C185  C     C_R   0.297102 0.963687 0.516281 -0.192122
C186  C     C_R   0.483720 0.963686 0.297102 -0.192122
C187  C     C_R   0.702898 0.963686 0.483719 -0.192122
C188  C     C_R   0.508046 0.156109 0.960790 -0.030847
C189  C     C_R   0.534497 0.020528 0.156865 -0.024103
C190  C     C_R   0.508046 0.843891 0.039210 -0.030847
C191  C     C_R   0.534495 0.979469 0.843135 -0.024103
C192  C     C_R   0.491954 0.843891 0.960790 -0.030847
C193  C     C_R   0.465503 0.979472 0.156865 -0.024103
C194  C     C_R   0.491954 0.156109 0.039210 -0.030847
C195  C     C_R   0.915035 1.000000 0.500000 0.791856
C196  C     C_R   0.465505 0.020531 0.843135 -0.024103
C197  C     C_R   0.156865 0.020526 0.465502 -0.024103
C198  C     C_R   0.039210 0.843891 0.491956 -0.030847
C199  C     C_R   0.843135 0.979473 0.465503 -0.024103
C200  C     C_R   0.960790 0.156109 0.491956 -0.030847
C201  C     C_R   0.843135 0.020527 0.534497 -0.024102
C202  C     C_R   0.960790 0.843891 0.508044 -0.030847
C203  C     C_R   0.156865 0.979473 0.534497 -0.024102
C204  C     C_R   0.039210 0.156109 0.508044 -0.030848
C205  C     C_R   0.034294 0.520653 0.843528 -0.027137
C206  C     C_R   0.084920 0.500000 0.000000 0.791609
C207  C     C_R   0.843528 0.520653 0.965706 -0.027136
C208  C     C_R   0.965706 0.520653 0.156472 -0.027136
C209  C     C_R   0.156472 0.520653 0.034294 -0.027136
C210  C     C_R   0.034294 0.479347 0.156472 -0.027136
C211  C     C_R   0.843528 0.479347 0.034294 -0.027137
C212  C     C_R   0.965706 0.479347 0.843528 -0.027136
C213  C     C_R   0.156472 0.479347 0.965706 -0.027136
C214  C     C_R   0.024837 0.656720 0.468589 -0.026415
C215  C     C_R   0.016871 0.536392 0.656270 -0.028115
C216  C     C_R   0.024837 0.343279 0.531411 -0.026415
Cu1   Cu    Cu3+1 0.455960 0.000000 0.000000 1.030994
Cu2   Cu    Cu3+1 0.500000 0.500000 0.955960 1.030646
Cu3   Cu    Cu3+1 0.500000 0.955960 0.500000 1.044846
Cu4   Cu    Cu3+1 0.500000 0.044040 0.500000 1.044846
Cu5   Cu    Cu3+1 0.544040 0.000000 0.000000 1.030994
Cu6   Cu    Cu3+1 0.000000 0.000000 0.544040 1.030994
Cu7   Cu    Cu3+1 1.000000 0.000000 0.455960 1.030994
Cu8   Cu    Cu3+1 0.000000 0.455960 0.000000 1.030465
Cu9   Cu    Cu3+1 0.000000 0.544040 0.000000 1.030464
Cu10  Cu    Cu3+1 0.955960 0.500000 0.500000 1.030646
Cu11  Cu    Cu3+1 0.044040 0.500000 0.500000 1.030646
Cu12  Cu    Cu3+1 0.500000 0.500000 0.044040 1.030646
H1    H     H_    0.513089 0.219723 0.930501 0.143000
H2    H     H_    0.069500 0.780277 0.486914 0.143001
H3    H     H_    0.779985 0.965882 0.438049 0.136626
H4    H     H_    0.930500 0.219723 0.486915 0.143001
H5    H     H_    0.779985 0.034118 0.561951 0.136626
H6    H     H_    0.930500 0.780277 0.513086 0.143001
H7    H     H_    0.220015 0.965883 0.561952 0.136626
H8    H     H_    0.069500 0.219723 0.513085 0.143001
H9    H     H_    0.061682 0.534771 0.780277 0.140014
H10   H     H_    0.780277 0.534770 0.938317 0.140014
H11   H     H_    0.938318 0.534771 0.219723 0.140014
H12   H     H_    0.561950 0.034120 0.220015 0.136626
H13   H     H_    0.219723 0.534770 0.061683 0.140014
H14   H     H_    0.061682 0.465229 0.219723 0.140014
H15   H     H_    0.780277 0.465230 0.061683 0.140014
H16   H     H_    0.938318 0.465229 0.780277 0.140014
H17   H     H_    0.219723 0.465230 0.938317 0.140014
H18   H     H_    0.042791 0.720368 0.443769 0.141172
H19   H     H_    0.028036 0.565212 0.719513 0.140391
H20   H     H_    0.042791 0.279632 0.556230 0.141172
H21   H     H_    0.028037 0.434788 0.280487 0.140391
H22   H     H_    0.957209 0.279632 0.443770 0.141172
H23   H     H_    0.513089 0.780278 0.069499 0.143000
H24   H     H_    0.971963 0.434788 0.719513 0.140391
H25   H     H_    0.957209 0.720368 0.556231 0.141172
H26   H     H_    0.971963 0.565211 0.280487 0.140391
H27   H     H_    0.719513 0.565211 0.971962 0.140391
H28   H     H_    0.556232 0.279632 0.957211 0.141172
H29   H     H_    0.280487 0.434789 0.971962 0.140391
H30   H     H_    0.443768 0.720368 0.957211 0.141172
H31   H     H_    0.280487 0.565211 0.028038 0.140391
H32   H     H_    0.443768 0.279632 0.042789 0.141172
H33   H     H_    0.719513 0.434789 0.028038 0.140391
H34   H     H_    0.561947 0.965874 0.779985 0.136627
H35   H     H_    0.556232 0.720368 0.042789 0.141172
H36   H     H_    0.528273 0.064961 0.279572 0.140302
H37   H     H_    0.279572 0.064959 0.471723 0.140302
H38   H     H_    0.471735 0.064964 0.720429 0.140302
H39   H     H_    0.720428 0.064960 0.528276 0.140302
H40   H     H_    0.528265 0.935036 0.720429 0.140303
H41   H     H_    0.279572 0.935040 0.528277 0.140302
H42   H     H_    0.471726 0.935039 0.279572 0.140302
H43   H     H_    0.720428 0.935040 0.471724 0.140302
H44   H     H_    0.486911 0.780277 0.930501 0.143000
H45   H     H_    0.438050 0.965880 0.220015 0.136626
H46   H     H_    0.486911 0.219723 0.069499 0.143000
H47   H     H_    0.438053 0.034126 0.779985 0.136627
H48   H     H_    0.220015 0.034117 0.438048 0.136626
N1    N     N_1   0.522453 0.115129 0.887167 -0.280165
N2    N     N_1   0.112834 0.884871 0.477553 -0.280166
N3    N     N_1   0.881647 0.936656 0.402284 -0.254635
N4    N     N_1   0.887166 0.115129 0.477554 -0.280167
N5    N     N_1   0.881647 0.063344 0.597716 -0.254635
N6    N     N_1   0.887166 0.884871 0.522447 -0.280167
N7    N     N_1   0.118353 0.936658 0.597717 -0.254635
N8    N     N_1   0.112834 0.115129 0.522446 -0.280167
N9    N     N_1   0.099424 0.558409 0.884002 -0.265405
N10   N     N_1   0.884002 0.558407 0.900575 -0.265406
N11   N     N_1   0.900576 0.558409 0.115998 -0.265405
N12   N     N_1   0.597713 0.063347 0.118353 -0.254635
N13   N     N_1   0.115998 0.558407 0.099425 -0.265406
N14   N     N_1   0.099424 0.441591 0.115998 -0.265405
N15   N     N_1   0.884002 0.441592 0.099425 -0.265406
N16   N     N_1   0.900576 0.441591 0.884002 -0.265405
N17   N     N_1   0.115998 0.441592 0.900575 -0.265406
N18   N     N_1   0.069720 0.616380 0.408040 -0.260748
N19   N     N_1   0.047774 0.605123 0.615639 -0.269950
N20   N     N_1   0.069720 0.383620 0.591960 -0.260748
N21   N     N_1   0.047774 0.394877 0.384360 -0.269950
N22   N     N_1   0.930280 0.383620 0.408040 -0.260748
N23   N     N_1   0.522453 0.884872 0.112833 -0.280164
N24   N     N_1   0.952226 0.394877 0.615639 -0.269950
N25   N     N_1   0.930280 0.616380 0.591960 -0.260748
N26   N     N_1   0.952226 0.605123 0.384361 -0.269950
N27   N     N_1   0.615640 0.605122 0.952223 -0.269949
N28   N     N_1   0.591962 0.383620 0.930283 -0.260749
N29   N     N_1   0.384360 0.394878 0.952223 -0.269949
N30   N     N_1   0.408038 0.616380 0.930283 -0.260749
N31   N     N_1   0.384360 0.605122 0.047777 -0.269949
N32   N     N_1   0.408038 0.383620 0.069718 -0.260748
N33   N     N_1   0.615639 0.394878 0.047777 -0.269949
N34   N     N_1   0.597707 0.936644 0.881648 -0.254636
N35   N     N_1   0.591962 0.616380 0.069717 -0.260748
N36   N     N_1   0.554062 0.103681 0.380785 -0.250148
N37   N     N_1   0.380785 0.103678 0.445933 -0.250149
N38   N     N_1   0.445952 0.103689 0.619216 -0.250147
N39   N     N_1   0.619215 0.103679 0.554065 -0.250148
N40   N     N_1   0.554048 0.896311 0.619216 -0.250147
N41   N     N_1   0.380785 0.896322 0.554067 -0.250148
N42   N     N_1   0.445938 0.896319 0.380785 -0.250148
N43   N     N_1   0.619215 0.896321 0.445935 -0.250149
N44   N     N_1   0.477546 0.884871 0.887167 -0.280165
N45   N     N_1   0.402287 0.936653 0.118353 -0.254635
N46   N     N_1   0.477547 0.115128 0.112833 -0.280165
N47   N     N_1   0.402293 0.063356 0.881648 -0.254636
N48   N     N_1   0.118353 0.063342 0.402283 -0.254635
O1    O     O_R   0.462810 0.000010 0.935740 -0.575660
O2    O     O_R   0.064260 0.999990 0.537190 -0.575661
O3    O     O_R   0.999990 0.935740 0.537190 -0.572647
O4    O     O_R   0.935740 0.000010 0.537190 -0.575661
O5    O     O_R   0.999990 0.064260 0.462810 -0.572646
O6    O     O_R   0.935740 0.999990 0.462810 -0.575660
O7    O     O_R   0.000010 0.935740 0.462810 -0.572646
O8    O     O_R   0.064260 0.000010 0.462810 -0.575661
O9    O     O_R   0.064260 0.462810 0.999990 -0.572826
O10   O     O_R   0.999990 0.462810 0.935740 -0.572826
O11   O     O_R   0.935740 0.462810 0.000010 -0.572826
O12   O     O_R   0.462810 0.064260 0.000010 -0.572645
O13   O     O_R   0.000010 0.462810 0.064260 -0.572827
O14   O     O_R   0.064260 0.537190 0.000010 -0.572827
O15   O     O_R   0.999990 0.537190 0.064260 -0.572827
O16   O     O_R   0.935740 0.537190 0.999990 -0.572827
O17   O     O_R   0.000010 0.537190 0.935740 -0.572827
O18   O     O_R   0.962810 0.500010 0.435740 -0.571759
O19   O     O_R   0.962810 0.564260 0.500010 -0.573110
O20   O     O_R   0.962810 0.499990 0.564260 -0.571760
O21   O     O_R   0.962810 0.435740 0.499990 -0.573110
O22   O     O_R   0.037190 0.499990 0.435740 -0.571760
O23   O     O_R   0.462810 0.999990 0.064260 -0.575660
O24   O     O_R   0.037190 0.435740 0.500010 -0.573110
O25   O     O_R   0.037190 0.500010 0.564260 -0.571760
O26   O     O_R   0.037190 0.564260 0.499990 -0.573110
O27   O     O_R   0.500010 0.564260 0.037190 -0.573110
O28   O     O_R   0.564260 0.499990 0.037190 -0.571760
O29   O     O_R   0.499990 0.435740 0.037190 -0.573110
O30   O     O_R   0.435740 0.500010 0.037190 -0.571760
O31   O     O_R   0.499990 0.564260 0.962810 -0.573110
O32   O     O_R   0.435740 0.499990 0.962810 -0.571760
O33   O     O_R   0.500010 0.435740 0.962810 -0.573110
O34   O     O_R   0.462810 0.935740 0.999990 -0.572646
O35   O     O_R   0.564260 0.500010 0.962810 -0.571760
O36   O     O_R   0.564260 0.962810 0.499990 -0.571108
O37   O     O_R   0.499990 0.962810 0.435740 -0.571107
O38   O     O_R   0.435740 0.962810 0.500010 -0.571106
O39   O     O_R   0.500010 0.962810 0.564260 -0.571107
O40   O     O_R   0.564260 0.037190 0.500010 -0.571107
O41   O     O_R   0.499990 0.037190 0.564260 -0.571107
O42   O     O_R   0.435740 0.037190 0.499990 -0.571108
O43   O     O_R   0.500010 0.037190 0.435740 -0.571107
O44   O     O_R   0.537190 0.999990 0.935740 -0.575660
O45   O     O_R   0.537190 0.935740 0.000010 -0.572646
O46   O     O_R   0.537190 0.000010 0.064260 -0.575660
O47   O     O_R   0.537190 0.064260 0.999990 -0.572647
O48   O     O_R   0.000010 0.064260 0.537190 -0.572647

loop_
_geom_bond_atom_site_label_1
_geom_bond_atom_site_label_2
_ccdc_geom_bond_type
C145  H2    S    
Cu9   O16   S    
C163  H19   S    
C46   O26   A    
C17   C48   A    
C19   C181  A    
C68   O21   A    
C72   C172  A    
C81   N23   T    
C18   C125  S    
C4    C41   A    
Cu12  O28   S    
C114  N26   T    
C62   C70   S    
C46   O19   A    
C7    C42   A    
C32   C201  A    
C35   C42   S    
C177  H33   S    
C100  N14   T    
C67   C164  A    
C110  N24   T    
C90   O28   A    
C123  N36   T    
C86   N47   T    
Cu7   O5    S    
C2    C34   S    
C98   C208  S    
C147  C200  A    
C150  C203  A    
Cu2   Cu12  S    
Cu1   Cu5   S    
Cu4   O41   S    
C133  O42   A    
C35   O22   A    
C83   C192  S    
Cu11  O24   S    
C139  C192  A    
C50   C134  S    
C107  N20   T    
C104  N17   T    
C111  N25   T    
C23   C130  S    
Cu1   O23   S    
C1    C29   S    
C96   N9    T    
C142  C194  A    
C34   C212  A    
C22   C49   A    
C140  O46   A    
C136  H12   S    
C37   C208  A    
C9    C171  A    
C26   C194  A    
Cu3   O39   S    
C159  H16   S    
C126  N38   T    
C158  C211  A    
C49   C133  S    
C33   C204  A    
C156  C209  A    
C9    C116  S    
C23   C186  A    
C44   C101  S    
C152  H8    S    
C151  O45   A    
C144  H48   S    
C195  O6    A    
C143  C196  A    
C122  N35   T    
C132  O43   A    
Cu12  O29   S    
C181  H38   S    
C65   C161  A    
C172  H29   S    
C31   C198  A    
C18   C49   A    
C102  N15   T    
C127  N39   T    
C4    C109  S    
Cu4   O43   S    
C79   O27   A    
C82   C191  S    
C6    C111  S    
C12   C175  A    
C138  C191  A    
Cu11  O22   S    
C141  H45   S    
Cu10  O19   S    
C106  N19   T    
C108  N21   T    
C65   C168  A    
C166  H22   S    
C119  N31   T    
C170  H27   S    
C32   C199  A    
Cu5   O46   S    
C102  C211  S    
C5    C110  S    
C116  N28   T    
C162  O5    A    
C71   C176  A    
C148  H5    S    
C72   C175  A    
C186  H42   S    
C16   C122  S    
C25   C187  A    
C86   C196  S    
C26   C188  A    
C54   C139  A    
C60   C67   S    
C171  H28   S    
C29   C191  A    
Cu3   O37   S    
C154  C207  A    
C17   C179  A    
C18   C180  A    
C56   C75   S    
C173  O8    A    
C16   C47   A    
C93   N6    T    
C16   C178  A    
Cu6   O4    S    
C146  H3    S    
C34   C205  A    
C85   N46   T    
C6    C168  A    
C90   O35   A    
C80   N12   T    
C55   C143  A    
C74   C179  A    
C20   C127  S    
C195  O4    A    
C141  C193  A    
Cu4   O40   S    
C167  H24   S    
C157  H14   S    
Cu11  O25   S    
C12   C119  S    
C58   C65   S    
C182  H39   S    
Cu3   O38   S    
C10   C45   A    
C24   C37   S    
C184  O7    A    
C69   C169  A    
C21   C128  S    
C153  C205  A    
C73   C178  A    
C133  O38   A    
C15   C177  A    
C35   O18   A    
C71   C171  A    
C91   C200  S    
C56   C150  A    
C76   C181  A    
C98   N11   T    
C3    C165  A    
C99   C209  S    
Cu6   O48   S    
C11   C174  A    
C105  C214  S    
Cu9   O15   S    
C152  C204  A    
C174  H30   S    
C70   C177  A    
C3    C108  S    
Cu1   O1    S    
C139  H44   S    
C154  H10   S    
C84   N45   T    
C15   C43   A    
C145  C198  A    
C10   C117  S    
C57   O25   A    
C96   C205  S    
C134  O41   A    
C69   C165  A    
C37   C210  A    
C155  H11   S    
C137  C190  A    
Cu2   O31   S    
C109  N22   T    
C28   C151  S    
C121  N33   T    
Cu10  Cu11  S    
C63   C157  A    
Cu7   O8    S    
C11   C118  S    
C88   N2    T    
C149  C202  A    
C94   N7    T    
Cu6   O2    S    
C161  C214  A    
C3    C42   A    
C2    O10   A    
C131  N43   T    
C31   C184  S    
C80   C189  S    
C173  O2    A    
C11   C47   A    
C53   C74   S    
C8    C43   A    
C160  H17   S    
Cu8   Cu9   S    
C58   C145  A    
C164  C216  A    
C30   C203  A    
Cu4   O42   S    
C113  O30   A    
C7    C114  S    
C104  C213  S    
C20   C51   A    
C85   C194  S    
C54   C137  A    
C10   C172  A    
C150  H7    S    
C83   N44   T    
C89   N3    T    
C60   C152  A    
C88   C198  S    
C73   C174  A    
C31   C202  A    
C14   C176  A    
C163  C215  A    
C144  C197  A    
C138  H34   S    
C62   C158  A    
Cu8   O13   S    
Cu1   O34   S    
C76   C183  A    
C15   C121  S    
C57   O20   A    
C185  H41   S    
C187  H43   S    
Cu9   O17   S    
C97   N10   T    
C143  H47   S    
C51   C124  S    
C124  O36   A    
C32   C195  S    
C68   O24   A    
C8    C170  A    
C87   N48   T    
C41   C68   S    
C89   C199  S    
C43   C90   S    
C101  O29   A    
C155  C208  A    
Cu10  O21   S    
Cu3   Cu4   S    
C176  H32   S    
Cu8   O11   S    
Cu12  O27   S    
C112  O47   A    
C159  C212  A    
C134  O39   A    
C13   O11   A    
C54   C73   S    
C179  H36   S    
C64   C160  A    
C77   C182  A    
C105  N18   T    
Cu7   O6    S    
Cu12  O30   S    
C93   C202  S    
C66   C167  A    
C79   O31   A    
C117  N29   T    
C14   C120  S    
C7    C169  A    
C1    O44   A    
C87   C197  S    
C38   C213  A    
C124  O40   A    
C26   C112  S    
C112  O12   A    
C14   C44   A    
C206  O14   A    
C113  O32   A    
C40   C57   S    
C149  H6    S    
C78   N1    T    
C28   C190  A    
C136  C189  A    
C19   C126  S    
C33   C200  A    
C184  O3    A    
C33   C162  S    
C70   C170  A    
C52   C71   S    
Cu5   O45   S    
C19   C50   A    
C103  N16   T    
C168  H25   S    
C100  C210  S    
C53   C141  A    
C158  H15   S    
C81   C190  S    
C156  H13   S    
C183  H40   S    
C36   C211  A    
C56   C144  A    
C45   C113  S    
C95   N8    T    
C135  H1    S    
C5    C40   A    
C6    C39   A    
C48   C132  S    
C115  N27   T    
Cu5   O44   S    
C74   C186  A    
C129  N41   T    
C24   O13   A    
C132  O37   A    
C47   C79   S    
C59   C77   S    
C180  H37   S    
Cu8   O9    S    
C106  C215  S    
C55   C138  A    
C165  H21   S    
C178  H35   S    
C61   C159  A    
Cu2   O35   S    
Cu1   O12   S    
C147  H4    S    
C146  C199  A    
Cu10  O20   S    
C8    C115  S    
C61   C66   S    
C17   C123  S    
C107  C216  S    
C130  N42   T    
C101  O33   A    
C27   C193  A    
C60   C147  A    
C142  H46   S    
C140  O23   A    
C58   C149  A    
Cu3   O36   S    
C59   C148  A    
C64   C72   S    
C206  O9    A    
C157  C210  A    
C75   C185  A    
C53   C136  A    
C28   C192  A    
C21   C50   A    
C137  H23   S    
C148  C201  A    
C151  O34   A    
Cu9   O14   S    
C162  O48   A    
C63   C69   S    
C13   C36   S    
C125  N37   T    
Cu5   O47   S    
C41   C216  A    
C95   C204  S    
C128  N40   T    
C52   C142  A    
C62   C154  A    
C36   C207  A    
C25   C51   A    
C38   C206  S    
C92   N5    T    
C75   C180  A    
C82   N34   T    
Cu8   O10   S    
C84   C193  S    
C120  N32   T    
C97   C207  S    
C13   O16   A    
C39   C46   S    
C55   C76   S    
C67   C166  A    
Cu2   O32   S    
C24   O15   A    
C77   C187  A    
C78   C188  S    
Cu7   O7    S    
C25   C131  S    
C135  C188  A    
C2    O17   A    
C20   C182  A    
Cu6   O3    S    
C21   C183  A    
C9    C44   A    
C23   C48   A    
C30   C173  S    
C39   C214  A    
C169  H26   S    
C12   C45   A    
C61   C153  A    
C103  C212  S    
Cu2   O33   S    
C29   C196  A    
C64   C156  A    
C27   C140  S    
C153  H9    S    
C22   C185  A    
Cu10  O18   S    
Cu11  O26   S    
C63   C155  A    
C161  H18   S    
C22   C129  S    
C91   N4    T    
C160  C213  A    
C118  N30   T    
C40   C215  A    
C4    C166  A    
C66   C163  A    
C5    C167  A    
C38   C209  A    
Cu6   Cu7   S    
C164  H20   S    
C59   C146  A    
C30   C197  A    
C52   C135  A    
C94   C203  S    
C27   C189  A    
C99   N13   T    
C1    O1    A    
C92   C201  S    
C175  H31   S    
