data_mof_unit_25249.cif
_audit_creation_date              2012-12-10T17:00:52-0500
_audit_creation_method            fapswitch 2.2
_symmetry_space_group_name_H-M    P1
_symmetry_Int_Tables_number       1
_space_group_crystal_system       triclinic
_cell_length_a                    10.711135
_cell_length_b                    10.584435
_cell_length_c                    10.33131
_cell_angle_alpha                 92.163354
_cell_angle_beta                  102.5756
_cell_angle_gamma                 94.091343
_cell_volume                      1138.55234578

loop_
_atom_site_label
_atom_site_type_symbol
_atom_type_description
_atom_site_fract_x
_atom_site_fract_y
_atom_site_fract_z
_atom_type_partial_charge
C1    C     C_R   0.495467 0.262682 0.496448 0.824504
C2    C     C_2   0.128459 0.543130 0.411007 0.332034
C3    C     C_2   0.072642 0.578201 0.508813 -0.274956
C4    C     C_2   0.876860 0.546527 0.585273 -0.432704
C5    C     C_2   0.934330 0.572765 0.486058 -0.128001
C6    C     C_2   0.596013 0.940366 0.434867 0.287531
C7    C     C_3   0.338970 0.340629 0.805897 0.288403
C8    C     C_3   0.222756 0.415913 0.815654 -0.372755
C9    C     C_3   0.100022 0.342654 0.735413 -1.054889
C10   C     C_3   0.361840 0.325081 0.115592 0.273345
C11   C     C_3   0.462853 0.227400 0.111495 -0.377427
C12   C     C_2   0.566835 0.868922 0.530871 0.248186
C13   C     C_3   0.407491 0.093391 0.127853 -0.931512
C14   C     C_3   0.100487 0.636609 0.208513 0.090222
C15   C     C_3   0.078252 0.767838 0.264669 -0.406511
C16   C     C_3   0.098917 0.871474 0.170875 -0.954695
C17   C     C_3   0.724017 0.872244 0.300451 0.117003
C18   C     C_3   0.740145 0.899838 0.160017 -0.341524
C19   C     C_3   0.778125 0.039861 0.147379 -0.798124
C20   C     C_3   0.704421 0.909420 0.731892 -0.282266
C21   C     C_3   0.796090 0.180839 0.519177 -0.362496
C22   C     C_3   0.273348 0.099472 0.473733 -0.348353
C23   C     C_2   0.597148 0.077854 0.453983 0.403861
C24   C     C_3   0.787818 0.626506 0.942708 -0.427451
C25   C     C_2   0.494605 0.126820 0.487485 0.279076
C26   C     C_2   0.580094 0.570231 0.945568 0.674379
C27   C     C_2   0.583228 0.562984 0.093084 -0.019964
C28   C     C_R   0.261248 0.510258 0.444392 0.767936
C29   C     C_R   0.516805 0.737044 0.506592 0.835462
C30   C     C_R   0.740053 0.511227 0.555555 0.911537
H1    H     H_    0.879494 0.572012 0.384239 0.216485
H2    H     H_    0.014708 0.381137 0.760992 0.273576
H3    H     H_    0.096519 0.241484 0.760477 0.258112
H4    H     H_    0.271575 0.284232 0.048847 0.090134
H5    H     H_    0.332718 0.328876 0.210472 0.167159
H6    H     H_    0.493813 0.221935 0.016937 0.256441
H7    H     H_    0.551763 0.252533 0.187875 0.265398
H8    H     H_    0.380015 0.086850 0.224457 0.271881
H9    H     H_    0.479339 0.024533 0.121539 0.312546
H10   H     H_    0.321489 0.066394 0.047253 0.249702
H11   H     H_    0.044847 0.622596 0.104516 0.151398
H12   H     H_    0.663168 0.615401 0.160005 0.065235
H13   H     H_    0.202018 0.634791 0.201284 0.192866
H14   H     H_    0.979514 0.766477 0.281529 0.211920
H15   H     H_    0.146571 0.790876 0.361594 0.224929
H16   H     H_    0.199037 0.875808 0.156909 0.285167
H17   H     H_    0.081861 0.964725 0.213774 0.261502
H18   H     H_    0.031394 0.852755 0.072846 0.255813
H19   H     H_    0.741812 0.771936 0.319387 0.093036
H20   H     H_    0.799427 0.930718 0.374508 0.129181
H21   H     H_    0.816051 0.844270 0.135140 0.187882
H22   H     H_    0.649874 0.869901 0.086050 0.256929
H23   H     H_    0.127518 0.595967 0.609469 0.164825
H24   H     H_    0.702384 0.099055 0.166427 0.302759
H25   H     H_    0.791666 0.055127 0.045500 0.224909
H26   H     H_    0.869635 0.070536 0.218956 0.249679
H27   H     H_    0.736055 0.812682 0.718651 0.171512
H28   H     H_    0.706212 0.926481 0.838781 0.222630
H29   H     H_    0.773441 0.981199 0.704800 0.116172
H30   H     H_    0.848336 0.094767 0.542651 0.141625
H31   H     H_    0.768312 0.220949 0.609128 0.166884
H32   H     H_    0.863419 0.252824 0.489485 0.218600
H33   H     H_    0.259706 0.139955 0.374357 0.130762
H34   H     H_    0.930307 0.552825 0.687530 0.162214
H35   H     H_    0.261293 0.171886 0.548948 0.155949
H36   H     H_    0.196091 0.022585 0.468047 0.199954
H37   H     H_    0.796344 0.528584 0.904088 0.197171
H38   H     H_    0.824315 0.634234 0.051873 0.161129
H39   H     H_    0.850810 0.692126 0.899140 0.185586
H40   H     H_    0.318883 0.242782 0.835300 0.108046
H41   H     H_    0.337043 0.327074 0.701882 0.183077
H42   H     H_    0.206143 0.430501 0.916067 0.246966
H43   H     H_    0.236174 0.511883 0.780325 0.224212
H44   H     H_    0.094934 0.346880 0.627300 0.279587
N1    N     N_2   0.501330 0.501330 0.852460 0.047061
N2    N     N_2   0.501370 0.501360 0.148130 0.067006
O1    O     O_R   0.499980 0.319060 0.613030 -0.617148
O2    O     O_3   0.391280 0.448284 0.072208 -0.572522
O3    O     O_3   0.059604 0.534855 0.279681 -0.656400
O4    O     O_3   0.596506 0.889949 0.309598 -0.625125
O5    O     O_3   0.578983 0.922351 0.658470 -0.568342
O6    O     O_3   0.689405 0.154897 0.412267 -0.624672
O7    O     O_3   0.392939 0.047587 0.512050 -0.601861
O8    O     O_3   0.660900 0.662126 0.907210 -0.638080
O9    O     O_R   0.500020 0.319100 0.386910 -0.626797
O10   O     O_R   0.317800 0.500000 0.570840 -0.664764
O11   O     O_R   0.317840 0.500040 0.344720 -0.617307
O12   O     O_R   0.499980 0.680900 0.613090 -0.552624
O13   O     O_R   0.500020 0.680940 0.386970 -0.598997
O14   O     O_R   0.682160 0.499960 0.655280 -0.599391
O15   O     O_R   0.682200 0.500000 0.429160 -0.612791
O16   O     O_3   0.462039 0.385882 0.885168 -0.597008
Zn1   Zn    Zn3+2 0.499970 0.499970 0.650990 0.987905
Zn2   Zn    Zn3+2 0.500030 0.500030 0.349010 0.960472

loop_
_geom_bond_atom_site_label_1
_geom_bond_atom_site_label_2
_ccdc_geom_bond_type
C19   H26   S    
C9    H3    S    
C23   O6    S    
C12   C29   S    
C1    O1    A    
C30   O14   A    
C16   H18   S    
C7    H40   S    
C29   O13   A    
C10   O2    S    
C18   H22   S    
C7    C8    S    
C26   C27   S    
C11   H6    S    
N2    O2    S    
C15   H14   S    
C6    C12   D    
C6    C23   S    
C15   C16   S    
O11   Zn2   S    
C11   C13   S    
C18   C19   S    
O13   Zn2   S    
C11   H7    S    
C22   H36   S    
C29   O12   A    
C2    O3    S    
C9    H2    S    
N2    Zn2   S    
C22   H33   S    
C8    C9    S    
C13   H10   S    
C18   H21   S    
C10   H5    S    
C21   H31   S    
C24   H37   S    
C20   O5    S    
C1    C25   S    
C16   H17   S    
C24   H39   S    
C26   N1    D    
C1    O9    A    
C8    H42   S    
C21   H30   S    
C16   H16   S    
C4    C5    D    
C17   O4    S    
C22   H35   S    
O10   Zn1   S    
O9    Zn2   S    
C6    O4    S    
C28   O11   A    
C17   C18   S    
C13   H8    S    
C10   H4    S    
C14   O3    S    
C20   H29   S    
C21   H32   S    
N1    O16   S    
C14   H11   S    
C19   H24   S    
C28   O10   A    
C9    H44   S    
C15   H15   S    
C17   H19   S    
C27   N2    D    
N1    Zn1   S    
O14   Zn1   S    
C19   H25   S    
O12   Zn1   S    
C26   O8    S    
C30   O15   A    
C3    C5    S    
C17   H20   S    
C4    H34   S    
C22   O7    S    
C2    C3    D    
C24   O8    S    
O15   Zn2   S    
C7    H41   S    
C3    H23   S    
C27   H12   S    
C7    O16   S    
O1    Zn1   S    
C8    H43   S    
C12   O5    S    
C23   C25   D    
C13   H9    S    
C10   C11   S    
C24   H38   S    
C21   O6    S    
C25   O7    S    
C14   C15   S    
C2    C28   S    
C20   H27   S    
C20   H28   S    
C4    C30   S    
C14   H13   S    
C5    H1    S    
