data_mof_unit_25138.cif
_audit_creation_date              2012-12-11T16:06:33-0500
_audit_creation_method            fapswitch 2.2
_symmetry_space_group_name_H-M    P1
_symmetry_Int_Tables_number       1
_space_group_crystal_system       triclinic
_cell_length_a                    7.234286
_cell_length_b                    14.417415
_cell_length_c                    16.132328
_cell_angle_alpha                 90.000069
_cell_angle_beta                  90.000315
_cell_angle_gamma                 89.999979
_cell_volume                      1682.59702699

loop_
_atom_site_label
_atom_site_type_symbol
_atom_type_description
_atom_site_fract_x
_atom_site_fract_y
_atom_site_fract_z
_atom_type_partial_charge
O1    O     O_R   0.388780 0.834790 0.412340 -0.519666
O2    O     O_R   0.111220 0.165210 0.912340 -0.519673
O3    O     O_R   0.888780 0.665210 0.587660 -0.519667
O4    O     O_R   0.611220 0.334790 0.087660 -0.519664
O5    O     O_R   0.059040 0.845930 0.587040 -0.528723
O6    O     O_R   0.440960 0.154070 0.087040 -0.528724
O7    O     O_R   0.559040 0.654070 0.412960 -0.528728
O8    O     O_R   0.940960 0.345930 0.912960 -0.528744
C1    C     C_R   0.228240 0.867750 0.615501 0.884996
C2    C     C_R   0.271761 0.132249 0.115500 0.884998
C3    C     C_R   0.728239 0.632249 0.384499 0.884999
C4    C     C_R   0.771761 0.367748 0.884497 0.884968
O9    O     O_R   0.059070 0.845930 0.412970 -0.503573
O10   O     O_R   0.440930 0.154070 0.912970 -0.503572
O11   O     O_R   0.559070 0.654070 0.587030 -0.503570
O12   O     O_R   0.940930 0.345930 0.087030 -0.503569
O13   O     O_R   0.888760 0.665210 0.412340 -0.537503
O14   O     O_R   0.611240 0.334790 0.912340 -0.537504
O15   O     O_R   0.388760 0.834790 0.587660 -0.537516
O16   O     O_R   0.111240 0.165210 0.087660 -0.537513
C5    C     C_R   0.227992 0.866969 0.384220 0.860055
C6    C     C_R   0.272007 0.133029 0.884221 0.860040
C7    C     C_R   0.727993 0.633029 0.615778 0.860051
C8    C     C_R   0.772008 0.366970 0.115779 0.860058
O17   O     O_3   0.222280 0.690700 0.500000 -0.378136
O18   O     O_3   0.277720 0.309300 0.000000 -0.378133
O19   O     O_3   0.722280 0.809300 0.500000 -0.378139
O20   O     O_3   0.777720 0.190700 0.000000 -0.378140
V1    V     V_3+5 0.947430 0.761000 0.500000 1.744897
V2    V     V_3+5 0.552570 0.239000 0.000000 1.744893
V3    V     V_3+5 0.447430 0.739000 0.500000 1.744892
V4    V     V_3+5 0.052570 0.261000 0.000000 1.744877
C9    C     C_3   0.847539 0.604642 0.763401 0.738998
C10   C     C_3   0.652456 0.395357 0.263402 0.738978
C11   C     C_3   0.347552 0.895357 0.236599 0.738982
C12   C     C_3   0.152458 0.104643 0.736599 0.738977
C13   C     C_3   0.875398 0.528544 0.832611 0.694292
C14   C     C_3   0.624586 0.471457 0.332610 0.694291
C15   C     C_3   0.375417 0.971457 0.167391 0.694293
C16   C     C_3   0.124594 0.028545 0.667389 0.694292
C17   C     C_3   0.845540 0.470760 0.658578 0.499855
C18   C     C_3   0.654475 0.529242 0.158579 0.499826
C19   C     C_3   0.345516 0.029243 0.341421 0.499821
C20   C     C_3   0.154470 0.970758 0.841421 0.499823
C21   C     C_3   0.540676 0.535397 0.718927 0.805340
C22   C     C_3   0.959326 0.464596 0.218933 0.805353
C23   C     C_3   0.040675 0.964591 0.281063 0.805363
C24   C     C_3   0.459325 0.035402 0.781070 0.805356
C25   C     C_3   0.740626 0.562188 0.687030 -0.479669
C26   C     C_3   0.759376 0.437809 0.187032 -0.479668
C27   C     C_3   0.240624 0.937809 0.312967 -0.479671
C28   C     C_3   0.259375 0.062189 0.812969 -0.479668
C29   C     C_3   0.758767 0.438611 0.812777 -0.455095
C30   C     C_3   0.741233 0.561385 0.312781 -0.455064
C31   C     C_3   0.258766 0.061384 0.187219 -0.455074
C32   C     C_3   0.241234 0.938614 0.687220 -0.455077
C33   C     C_3   0.824990 0.394642 0.728076 0.043157
C34   C     C_3   0.675028 0.605357 0.228079 0.043180
C35   C     C_3   0.324966 0.105357 0.271921 0.043182
C36   C     C_3   0.175020 0.894642 0.771921 0.043181
C37   C     C_3   0.552021 0.470580 0.797436 0.680683
C38   C     C_3   0.947976 0.529408 0.297446 0.680661
C39   C     C_3   0.052023 0.029405 0.202551 0.680671
C40   C     C_3   0.447980 0.970586 0.702559 0.680668
H1    H     H_    0.714006 0.346199 0.708111 0.227829
H2    H     H_    0.786024 0.653795 0.208118 0.227822
H3    H     H_    0.213970 0.153795 0.291880 0.227828
H4    H     H_    0.286009 0.846202 0.791883 0.227827
O21   O     O_3   0.019807 0.640578 0.738734 -0.579127
H5    H     H_    0.078389 0.668042 0.788654 0.395382
O22   O     O_3   0.480191 0.359419 0.238731 -0.579138
H6    H     H_    0.421603 0.331958 0.288651 0.395382
O23   O     O_3   0.519819 0.859424 0.261272 -0.579141
H7    H     H_    0.578410 0.831962 0.211353 0.395383
O24   O     O_3   0.980191 0.140580 0.761267 -0.579147
H8    H     H_    0.921609 0.168046 0.711347 0.395375
O25   O     O_3   0.436285 0.392755 0.785533 -0.641030
H9    H     H_    0.344989 0.390669 0.831307 0.364640
O26   O     O_3   0.063730 0.607227 0.285555 -0.641048
H10   H     H_    0.155045 0.609291 0.331323 0.364669
O27   O     O_3   0.936265 0.107223 0.214444 -0.641050
H11   H     H_    0.844972 0.109299 0.168667 0.364669
O28   O     O_3   0.563726 0.892764 0.714457 -0.641043
H12   H     H_    0.655012 0.890680 0.668679 0.364650
O29   O     O_3   0.766026 0.435711 0.585608 -0.588525
H13   H     H_    0.807126 0.476497 0.539744 0.368814
O30   O     O_3   0.734003 0.564289 0.085612 -0.588520
H14   H     H_    0.692915 0.523501 0.039748 0.368805
O31   O     O_3   0.265980 0.064290 0.414386 -0.588521
H15   H     H_    0.307064 0.023502 0.460251 0.368802
O32   O     O_3   0.233996 0.935709 0.914388 -0.588520
H16   H     H_    0.192905 0.976496 0.960253 0.368811
F1    F     F_    0.745660 0.678450 0.795013 -0.566220
F2    F     F_    0.754334 0.321552 0.295018 -0.566213
F3    F     F_    0.245683 0.821549 0.204982 -0.566210
F4    F     F_    0.254336 0.178450 0.704985 -0.566206
O33   O     O_3   0.821852 0.564980 0.909534 -0.568886
H17   H     H_    0.915042 0.612375 0.925362 0.381730
O34   O     O_3   0.678107 0.435021 0.409537 -0.568884
H18   H     H_    0.584910 0.387627 0.425358 0.381728
O35   O     O_3   0.321897 0.935020 0.090464 -0.568885
H19   H     H_    0.415097 0.887627 0.074642 0.381729
O36   O     O_3   0.178130 0.064981 0.590465 -0.568887
H20   H     H_    0.084934 0.112376 0.574640 0.381729
F5    F     F_    0.061212 0.505409 0.838832 -0.683571
F6    F     F_    0.438774 0.494598 0.338820 -0.683617
F7    F     F_    0.561228 0.994600 0.161180 -0.683609
F8    F     F_    0.938781 0.005406 0.661172 -0.683583
O37   O     O_3   0.033154 0.489563 0.640456 -0.539701
H21   H     H_    0.105407 0.490224 0.692230 0.392847
O38   O     O_3   0.466863 0.510446 0.140450 -0.539712
H22   H     H_    0.394608 0.509766 0.192222 0.392822
O39   O     O_3   0.533127 0.010450 0.359554 -0.539714
H23   H     H_    0.605387 0.009770 0.307783 0.392821
O40   O     O_3   0.966858 0.989555 0.859548 -0.539713
H24   H     H_    0.894604 0.990237 0.807775 0.392823
O41   O     O_3   0.982159 0.337545 0.733370 -0.562949
H25   H     H_    0.072166 0.365747 0.771331 0.372268
O42   O     O_3   0.517874 0.662464 0.233370 -0.562945
H26   H     H_    0.427816 0.634244 0.271297 0.372285
O43   O     O_3   0.482121 0.162464 0.266629 -0.562952
H27   H     H_    0.572182 0.134243 0.228705 0.372293
O44   O     O_3   0.017860 0.837540 0.766625 -0.562950
H28   H     H_    0.927805 0.865764 0.728699 0.372288
O45   O     O_3   0.435373 0.495873 0.654164 -0.587541
H29   H     H_    0.470177 0.430200 0.645994 0.340478
O46   O     O_3   0.064632 0.504125 0.154175 -0.587550
H30   H     H_    0.029840 0.569801 0.146012 0.340471
O47   O     O_3   0.935360 0.004116 0.345821 -0.587553
H31   H     H_    0.970145 0.069793 0.353986 0.340472
O48   O     O_3   0.564632 0.995876 0.845831 -0.587548
H32   H     H_    0.529838 0.930201 0.853997 0.340477
F9    F     F_    0.447322 0.615606 0.741790 -0.531619
F10   F     F_    0.052678 0.384386 0.241792 -0.531627
F11   F     F_    0.947333 0.884379 0.258201 -0.531628
F12   F     F_    0.552676 0.115612 0.758209 -0.531623
F13   F     F_    0.490686 0.519989 0.866581 -0.544631
F14   F     F_    0.009285 0.479989 0.366591 -0.544645
F15   F     F_    0.990715 0.979987 0.133406 -0.544642
F16   F     F_    0.509304 0.020001 0.633415 -0.544630

loop_
_geom_bond_atom_site_label_1
_geom_bond_atom_site_label_2
_ccdc_geom_bond_type
C35   O43   S    
O30   H14   S    
O1    C5    A    
O35   H19   S    
C31   C35   S    
C19   C35   S    
O19   V1    S    
O13   V1    S    
O23   H7    S    
O3    C7    A    
O38   H22   S    
C18   O38   S    
O15   V3    S    
C18   C34   S    
C13   O33   S    
O33   H17   S    
O44   H28   S    
O25   H9    S    
O7    C3    A    
C19   O31   S    
C22   C38   S    
C33   O41   S    
C20   C36   S    
O39   H23   S    
C30   C34   S    
O4    C8    A    
C24   C40   S    
C9    C25   S    
O40   H24   S    
C40   F16   S    
O1    V3    S    
O2    V4    S    
O3    V1    S    
C35   H3    S    
C29   C37   S    
C34   H2    S    
C15   C31   S    
O34   H18   S    
C20   O40   S    
C37   O25   S    
C16   C32   S    
C31   C39   S    
O2    C6    A    
C32   C40   S    
C24   O48   S    
C15   O35   S    
O14   V2    S    
C4    C29   S    
C12   C28   S    
C9    O21   S    
C16   F8    S    
C13   C29   S    
C20   C28   S    
O11   C7    A    
O12   C8    A    
C17   O37   S    
O10   V2    S    
C17   C25   S    
C1    O15   A    
O27   H11   S    
O5    V1    S    
C8    C26   S    
C10   C26   S    
O7    V3    S    
O8    V4    S    
C22   O46   S    
C12   C16   S    
C21   O45   S    
O32   H16   S    
C29   C33   S    
O18   V4    S    
C23   C27   S    
C30   C38   S    
C13   F5    S    
O29   H13   S    
C9    C13   S    
C32   C36   S    
C9    F1    S    
C14   F6    S    
C36   O44   S    
C11   C15   S    
O24   H8    S    
C40   O28   S    
O5    C1    A    
C12   O24   S    
C22   F10   S    
C12   F4    S    
O28   H12   S    
C14   C30   S    
C21   C25   S    
O8    C4    A    
O9    C5    A    
C1    C32   S    
C38   F14   S    
C2    C31   S    
C20   O32   S    
O43   H27   S    
C3    C30   S    
C18   C26   S    
O6    V2    S    
C23   O47   S    
C11   C27   S    
O45   H29   S    
O46   H30   S    
C5    C27   S    
C6    C28   S    
O47   H31   S    
O16   V4    S    
O9    V1    S    
C11   O23   S    
C39   O27   S    
C23   F11   S    
C10   C14   S    
C39   F15   S    
O17   V3    S    
C24   F12   S    
C10   F2    S    
C33   H1    S    
C14   O34   S    
C3    O13   A    
O6    C2    A    
O42   H26   S    
O11   V3    S    
C11   F3    S    
O12   V4    S    
C17   O29   S    
C22   C26   S    
C21   F9    S    
O10   C6    A    
O20   V2    S    
C17   C33   S    
O22   H6    S    
O41   H25   S    
C19   O39   S    
C16   O36   S    
C23   C39   S    
C37   F13   S    
C2    O16   A    
C19   C27   S    
C21   C37   S    
C34   O42   S    
O21   H5    S    
C15   F7    S    
C38   O26   S    
C7    C25   S    
O26   H10   S    
C24   C28   S    
C36   H4    S    
C4    O14   A    
O36   H20   S    
C18   O30   S    
O31   H15   S    
O37   H21   S    
C10   O22   S    
O4    V2    S    
O48   H32   S    
