data_mof_unit_19106.cif
_audit_creation_date              2012-12-11T19:47:21-0500
_audit_creation_method            fapswitch 2.2
_symmetry_space_group_name_H-M    P1
_symmetry_Int_Tables_number       1
_space_group_crystal_system       triclinic
_cell_length_a                    8.358006
_cell_length_b                    15.028556
_cell_length_c                    18.887535
_cell_angle_alpha                 101.707516
_cell_angle_beta                  92.188779
_cell_angle_gamma                 98.170609
_cell_volume                      2293.997627

loop_
_atom_site_label
_atom_site_type_symbol
_atom_type_description
_atom_site_fract_x
_atom_site_fract_y
_atom_site_fract_z
_atom_type_partial_charge
Ba1   Ba    Ba6+2 0.853520 0.540910 0.466490 1.703839
Ba2   Ba    Ba6+2 0.336320 0.459170 0.533520 1.705084
C1    C     C_3   0.749494 0.862710 0.295950 -0.158094
C2    C     C_R   0.902689 0.403741 0.091618 -0.072764
C3    C     C_R   0.777628 0.418489 0.947301 -0.088689
C4    C     C_3   0.163581 0.764858 0.271798 0.755985
C5    C     C_R   0.941112 0.449574 0.972737 0.023209
C6    C     C_R   0.721962 0.420281 0.877471 -0.082767
C7    C     C_R   0.825655 0.453542 0.828963 -0.035687
C8    C     C_R   0.987884 0.491413 0.853721 -0.002002
C9    C     C_R   0.046272 0.488958 0.925887 0.027528
C10   C     C_R   0.771667 0.449083 0.756279 -0.008730
C11   C     C_R   0.878425 0.482961 0.709190 -0.264655
C12   C     C_3   0.680983 0.770191 0.313976 0.274016
C13   C     C_R   0.034771 0.529047 0.733191 0.031955
C14   C     C_R   0.091589 0.531392 0.806476 -0.046285
C15   C     C_R   0.164907 0.479675 0.067708 0.042533
C16   C     C_3   0.083603 0.668646 0.233021 -0.275998
C17   C     C_R   0.223591 0.477723 0.139891 0.019127
C18   C     C_R   0.117641 0.442331 0.188386 -0.091190
C19   C     C_R   0.960002 0.403002 0.161670 -0.023056
C20   C     C_R   0.246100 0.575266 0.835303 -0.026264
C21   C     C_R   0.304281 0.571877 0.904677 -0.088818
C22   C     C_R   0.209152 0.525889 0.950529 0.009915
C23   C     C_3   0.573946 0.303927 0.300148 0.245999
C24   C     C_R   0.269991 0.518806 0.020772 0.014136
C25   C     C_R   0.434179 0.548561 0.045578 -0.102641
C26   C     C_R   0.385516 0.516518 0.164774 -0.090972
C27   C     C_R   0.489799 0.548083 0.115762 -0.073700
C28   C     C_3   0.100887 0.758202 0.733910 0.150121
C29   C     C_R   0.437757 0.525083 0.238350 -0.007057
C30   C     C_R   0.331098 0.490899 0.285824 0.180906
C31   C     C_R   0.171294 0.449638 0.262396 -0.089445
C32   C     C_R   0.861600 0.168873 0.529657 -0.002958
C33   C     C_R   0.800118 0.074272 0.521257 -0.048438
C34   C     C_3   0.527088 0.287788 0.219363 -0.344811
C35   C     C_R   0.661143 0.888292 0.515156 -0.104958
C36   C     C_R   0.812423 0.925658 0.551849 0.035167
C37   C     C_R   0.883909 0.015035 0.551767 -0.025618
C38   C     C_R   0.582999 0.798874 0.518161 -0.013367
C39   C     C_R   0.419509 0.776182 0.493083 0.154135
C40   C     C_3   0.095450 0.751677 0.813755 -0.445736
C41   C     C_R   0.620738 0.190845 0.461836 -0.038938
C42   C     C_R   0.559366 0.096661 0.452056 -0.050801
C43   C     C_R   0.647142 0.038544 0.483468 0.031188
C44   C     C_R   0.410770 0.059514 0.413152 -0.017572
C45   C     C_3   0.000349 0.230327 0.713822 0.355987
C46   C     C_R   0.343883 0.968672 0.408689 -0.009148
C47   C     C_R   0.424218 0.910808 0.442135 -0.084131
C48   C     C_R   0.578985 0.945240 0.479068 0.003987
C49   C     C_R   0.347944 0.822516 0.445756 -0.038244
C50   C     C_R   0.770185 0.225697 0.500743 -0.256196
C51   C     C_3   0.081508 0.236678 0.290076 0.673587
C52   C     C_3   0.998359 0.186269 0.215347 -0.238144
C53   C     C_3   0.678476 0.667917 0.688447 0.359808
C54   C     C_3   0.657281 0.696143 0.769129 -0.384354
C55   C     C_3   0.990858 0.115920 0.348888 0.196013
C56   C     C_3   0.111310 0.294112 0.774897 -0.297228
C57   C     C_2   0.086472 0.111205 0.178294 0.910605
C58   C     C_2   0.635197 0.896725 0.248533 0.852164
C59   C     C_2   0.903351 0.153335 0.741486 0.860039
C60   C     C_3   0.356133 0.584596 0.396921 0.620492
C61   C     C_3   0.258989 0.801442 0.163855 0.208468
C62   C     C_3   0.256804 0.790731 0.583229 0.289663
C63   C     C_2   0.144946 0.859210 0.732878 0.857922
C64   C     C_3   0.509581 0.224145 0.680126 0.300689
C65   C     C_3   0.459195 0.130731 0.698841 -0.265370
C66   C     C_R   0.000896 0.444383 0.043705 0.011823
H1    H     H_    0.761837 0.761118 0.359137 0.099664
H2    H     H_    0.781308 0.915289 0.346994 -0.009893
H3    H     H_    0.758642 0.749619 0.795751 0.121105
H4    H     H_    0.653290 0.635603 0.794668 0.069790
H5    H     H_    0.542598 0.724962 0.777353 0.117197
H6    H     H_    0.557190 0.771936 0.332716 -0.039343
H7    H     H_    0.574312 0.377780 0.323954 0.109556
H8    H     H_    0.694951 0.284372 0.306587 0.056860
H9    H     H_    0.402077 0.301277 0.209842 0.114599
H10   H     H_    0.608252 0.335560 0.194286 0.055300
H11   H     H_    0.536851 0.215984 0.192679 0.168995
H12   H     H_    0.218718 0.753047 0.838220 0.119639
H13   H     H_    0.861715 0.855927 0.267379 0.169448
H14   H     H_    0.964954 0.671860 0.206110 0.156126
H15   H     H_    0.914382 0.271338 0.693808 -0.143242
H16   H     H_    0.172367 0.353668 0.754883 0.142749
H17   H     H_    0.040519 0.318983 0.821212 0.085252
H18   H     H_    0.204648 0.257293 0.794370 0.157394
H19   H     H_    0.638008 0.229657 0.666284 -0.033444
H20   H     H_    0.432135 0.227937 0.632139 0.105627
H21   H     H_    0.531180 0.125363 0.747994 0.155240
H22   H     H_    0.479202 0.075245 0.652853 0.097835
H23   H     H_    0.044513 0.810474 0.845749 0.116746
H24   H     H_    0.289091 0.762607 0.292482 -0.073229
H25   H     H_    0.329207 0.121282 0.709830 0.160614
H26   H     H_    0.835381 0.477767 0.653521 0.063664
H27   H     H_    0.595347 0.394763 0.862422 0.120162
H28   H     H_    0.878252 0.370754 0.194795 0.078934
H29   H     H_    0.325491 0.613398 0.804755 0.109411
H30   H     H_    0.616651 0.573181 0.130825 0.115576
H31   H     H_    0.687434 0.392399 0.980161 0.074752
H32   H     H_    0.779447 0.371169 0.076903 0.063860
H33   H     H_    0.424683 0.608236 0.921302 0.063381
H34   H     H_    0.012563 0.690098 0.819589 0.086833
H35   H     H_    0.524481 0.572399 0.011716 0.073822
H36   H     H_    0.876610 0.887836 0.583102 0.143832
H37   H     H_    0.002248 0.038073 0.579623 0.119666
H38   H     H_    0.226087 0.945974 0.380480 0.110587
H39   H     H_    0.342393 0.100437 0.386678 0.143418
H40   H     H_    0.817566 0.298038 0.507837 0.076525
H41   H     H_    0.161216 0.639528 0.191356 0.003709
H42   H     H_    0.067115 0.622773 0.272002 0.106190
H43   H     H_    0.981303 0.735228 0.705790 0.042701
H44   H     H_    0.027987 0.087078 0.395442 0.050091
H45   H     H_    0.195816 0.277724 0.280141 -0.000697
H46   H     H_    0.886355 0.151857 0.364609 0.024422
H47   H     H_    0.952161 0.057032 0.302848 0.064184
H48   H     H_    0.079302 0.975811 0.137167 0.328099
H49   H     H_    0.589285 0.927395 0.151330 0.310696
H50   H     H_    0.845291 0.093829 0.825687 0.330318
H51   H     H_    0.270568 0.577716 0.438088 0.116156
H52   H     H_    0.338860 0.636605 0.363907 -0.387531
H53   H     H_    0.455944 0.615059 0.435110 0.064691
H54   H     H_    0.180102 0.752986 0.119772 0.024181
H55   H     H_    0.366531 0.770300 0.177092 0.032064
H56   H     H_    0.993656 0.235704 0.179559 -0.024535
H57   H     H_    0.302193 0.863635 0.142791 0.089078
H58   H     H_    0.135737 0.759217 0.594172 0.105683
H59   H     H_    0.235278 0.855961 0.567645 -0.011826
H60   H     H_    0.345198 0.811379 0.631084 0.053429
H61   H     H_    0.371655 0.868556 0.777950 0.284118
H62   H     H_    0.871299 0.156769 0.221673 0.058824
H63   H     H_    0.781775 0.630036 0.678922 -0.094170
H64   H     H_    0.571830 0.619803 0.663828 0.114744
O1    O     O_2   0.871960 0.437280 0.322960 -0.484431
O2    O     O_2   0.193858 0.180873 0.533121 -0.490827
O3    O     O_3   0.098576 0.191686 0.660622 -0.623875
O4    O     O_3   0.121410 0.444460 0.412450 -0.449034
O5    O     O_3   0.580430 0.613240 0.540320 -0.502365
O6    O     O_2   0.337390 0.273050 0.457610 -0.395740
O7    O     O_3   0.463499 0.248568 0.332508 -0.604547
O8    O     O_2   0.443419 0.463829 0.755900 -0.499032
O9    O     O_3   0.488903 0.293767 0.739597 -0.608732
O10   O     O_3   0.661450 0.607570 0.372550 -0.486102
O11   O     O_2   0.774651 0.539689 0.246680 -0.501606
O12   O     O_3   0.700704 0.746603 0.658452 -0.615335
O13   O     O_3   0.978539 0.292910 0.328687 -0.657644
O14   O     O_3   0.679651 0.698517 0.252830 -0.621516
O15   O     O_2   0.852310 0.726980 0.542430 -0.481215
O16   O     O_3   0.084010 0.657370 0.410280 -0.469905
O17   O     O_2   0.019068 0.821990 0.463798 -0.507391
O18   O     O_3   0.125960 0.174338 0.331997 -0.624595
O19   O     O_2   0.225260 0.129864 0.161769 -0.616586
O20   O     O_R   0.008006 0.020228 0.161954 -0.716637
O21   O     O_2   0.515120 0.925729 0.273059 -0.623676
O22   O     O_R   0.670853 0.899005 0.177170 -0.715638
O23   O     O_3   0.066622 0.796259 0.328088 -0.626940
O24   O     O_2   0.812196 0.093822 0.699150 -0.636628
O25   O     O_R   0.917144 0.149000 0.814766 -0.758226
O26   O     O_3   0.384515 0.498830 0.357158 -0.683452
O27   O     O_3   0.168293 0.827287 0.224375 -0.613864
O28   O     O_3   0.317916 0.725999 0.530489 -0.683433
O29   O     O_2   0.045627 0.899424 0.708588 -0.592888
O30   O     O_R   0.297175 0.908230 0.760203 -0.725815
O31   O     O_2   0.317750 0.562750 0.677090 -0.463813
O32   O     O_3   0.068300 0.555620 0.587560 -0.470818
O33   O     O_3   0.528270 0.392500 0.627460 -0.483734
O34   O     O_3   0.215811 0.708623 0.696577 -0.661356
O35   O     O_3   0.609290 0.386840 0.459690 -0.477762
O36   O     O_3   0.105700 0.342700 0.589730 -0.466087
P1    P     P_3+3 0.039430 0.410940 0.333230 0.998030
P2    P     P_3+3 0.676770 0.715000 0.563590 1.007356
P3    P     P_3+3 0.133296 0.775021 0.411158 0.955497
P4    P     P_3+3 0.150290 0.589140 0.666780 1.001954
P5    P     P_3+3 0.061004 0.222352 0.577492 0.971417
P6    P     P_3+3 0.637716 0.591357 0.277923 0.963867
P7    P     P_3+3 0.510957 0.273006 0.426356 0.999411
P8    P     P_3+3 0.560644 0.400844 0.719979 0.922824

loop_
_geom_bond_atom_site_label_1
_geom_bond_atom_site_label_2
_ccdc_geom_bond_type
C53   C54   S    
C56   H17   S    
O34   P4    S    
C2    C19   A    
O2    P5    D    
Ba2   O36   S    
C25   C27   A    
Ba1   P2    S    
O7    P7    S    
C17   C18   A    
C16   H41   S    
C61   O27   S    
C31   P1    S    
C49   P3    S    
C38   P2    S    
C4    O27   S    
C55   H47   S    
C64   O9    S    
C51   C52   S    
O33   P8    S    
C5    C9    A    
C24   C25   A    
C27   H30   S    
C15   C24   A    
C12   H6    S    
O35   P7    S    
C26   C27   A    
C23   O7    S    
C22   C24   A    
Ba1   Ba2   S    
C35   C38   A    
C59   O25   S    
C34   H9    S    
C64   H20   S    
C36   C37   A    
C41   C50   A    
C55   H44   S    
Ba1   O35   S    
C28   H43   S    
C13   C14   A    
O12   P2    S    
C9    C22   A    
C65   H21   S    
O16   P3    S    
C32   C33   A    
C25   H35   S    
O1    P1    D    
C58   O21   D    
C36   H36   S    
Ba1   O10   S    
C15   C17   A    
C5    C66   A    
C41   P7    S    
C46   H38   S    
C3    H31   S    
Ba1   O32   S    
C42   C44   A    
C6    C7    A    
C62   H60   S    
C63   O30   S    
C1    H13   S    
O9    P8    S    
C21   C22   A    
C60   O26   S    
C53   O12   S    
C45   H15   S    
O4    P1    S    
Ba1   O4    S    
C7    C8    A    
C60   H52   S    
C4    O23   S    
O15   P2    D    
C10   P8    S    
C45   O3    S    
C1    C58   S    
C54   H3    S    
C64   C65   S    
C20   H29   S    
C44   H39   S    
C6    H27   S    
Ba1   O1    S    
C56   H18   S    
C51   H45   S    
O13   P1    S    
C52   C57   S    
O36   P5    S    
C52   H62   S    
C4    C16   S    
C44   C46   A    
Ba2   O6    S    
C1    H2    S    
C28   O34   S    
O10   P6    S    
Ba2   O32   S    
C64   H19   S    
C3    C5    A    
C47   C49   A    
C57   O20   S    
C65   H22   S    
Ba2   O4    S    
C23   H7    S    
C33   C37   A    
C41   C42   A    
C35   C36   A    
O31   P4    D    
C56   H16   S    
C39   O28   S    
C29   C30   A    
O8    P8    D    
C62   H59   S    
C55   O18   S    
C62   O28   S    
C51   O13   S    
C60   H51   S    
C40   H12   S    
C18   C19   A    
C17   C26   A    
Ba2   O33   S    
O5    P2    S    
C61   H57   S    
C1    C12   S    
C18   C31   A    
C46   C47   A    
C53   H64   S    
C53   H63   S    
C11   C13   A    
C51   O18   S    
C12   H1    S    
Ba1   O15   S    
C33   C43   A    
C59   O24   D    
O3    P5    S    
H48   O20   S    
C61   H54   S    
Ba1   O5    S    
C42   C43   A    
C2    C66   A    
C37   H37   S    
C52   H56   S    
C38   C39   A    
C15   C66   A    
C14   C20   A    
C54   H5    S    
C54   H4    S    
O17   P3    D    
Ba2   O5    S    
C26   C29   A    
C16   H42   S    
H50   O25   S    
C34   H11   S    
Ba2   O31   S    
C45   C59   S    
C3    C6    A    
C61   H55   S    
C55   H46   S    
C19   H28   S    
C57   O19   D    
C12   O14   S    
C32   C50   A    
C11   H26   S    
C23   H8    S    
C30   C31   A    
O6    P7    D    
C2    H32   S    
C32   P5    S    
C8    C14   A    
C40   H34   S    
C45   C56   S    
C43   C48   A    
C35   C48   A    
C21   H33   S    
C62   H58   S    
C4    H24   S    
O14   P6    S    
Ba1   P1    S    
C16   H14   S    
H61   O30   S    
C7    C10   A    
C58   O22   S    
C28   C63   S    
O32   P4    S    
C8    C9    A    
C23   C34   S    
C13   P4    S    
C30   O26   S    
O23   P3    S    
C10   C11   A    
C50   H40   S    
C47   C48   A    
C63   O29   D    
H49   O22   S    
C65   H25   S    
C20   C21   A    
C28   C40   S    
Ba1   O16   S    
C34   H10   S    
O11   P6    D    
Ba2   O35   S    
C39   C49   A    
C60   H53   S    
C40   H23   S    
Ba2   P4    S    
C29   P6    S    
