data_mof_unit_51613.cif
_audit_creation_date              2012-12-10T17:19:00-0500
_audit_creation_method            fapswitch 2.2
_symmetry_space_group_name_H-M    P1
_symmetry_Int_Tables_number       1
_space_group_crystal_system       triclinic
_cell_length_a                    10.204628
_cell_length_b                    10.798939
_cell_length_c                    13.535496
_cell_angle_alpha                 91.947793
_cell_angle_beta                  100.219799
_cell_angle_gamma                 96.051241
_cell_volume                      1457.63828664

loop_
_atom_site_label
_atom_site_type_symbol
_atom_type_description
_atom_site_fract_x
_atom_site_fract_y
_atom_site_fract_z
_atom_type_partial_charge
C1    C     C_R   0.055157 0.732734 0.497915 0.936213
C2    C     C_2   0.026657 0.069371 0.533832 -0.146397
C3    C     C_2   0.430856 0.511561 0.508354 -0.130157
C4    C     C_2   0.569116 0.488687 0.491425 -0.129928
C5    C     C_R   0.091478 0.507709 0.685773 0.858706
C6    C     C_R   0.908552 0.493115 0.313840 0.885628
C7    C     C_R   0.134083 0.499395 0.793561 -0.093647
C8    C     C_R   0.865604 0.513555 0.206989 -0.111466
C9    C     C_R   0.110469 0.417874 0.954606 -0.239107
C10   C     C_R   0.879970 0.635000 0.060941 -0.223262
C11   C     C_R   0.055824 0.429880 0.853543 0.165938
C12   C     C_R   0.948070 0.267759 0.509510 0.931798
C13   C     C_R   0.944300 0.587888 0.149573 0.155427
C14   C     C_R   0.263126 0.552728 0.834102 -0.305081
C15   C     C_R   0.729396 0.481984 0.170784 -0.293610
C16   C     C_R   0.322322 0.532902 0.932722 0.098437
C17   C     C_R   0.662775 0.539404 0.088638 0.097617
C18   C     C_R   0.243937 0.463884 0.993012 0.121235
C19   C     C_R   0.740526 0.614752 0.032108 0.121016
C20   C     C_R   0.460493 0.569547 0.969431 0.080488
C21   C     C_R   0.521109 0.523389 0.061268 0.082877
C22   C     C_3   0.092383 0.629513 0.182670 -0.407210
C23   C     C_R   0.437975 0.464066 0.123098 -0.219281
C24   C     C_3   0.114790 0.756837 0.238938 -0.820629
C25   C     C_3   0.922667 0.354800 0.810494 -0.411753
C26   C     C_3   0.805485 0.424068 0.827669 -0.802209
C27   C     C_R   0.540856 0.647571 0.916267 -0.226146
C28   C     C_R   0.301477 0.435612 0.089405 -0.257161
C29   C     C_R   0.678400 0.670131 0.947719 -0.237142
C30   C     C_2   0.090810 0.866019 0.506109 -0.397404
C31   C     C_2   0.923078 0.136589 0.525319 -0.396107
C32   C     C_2   0.004761 0.936786 0.537080 -0.143275
H1    H     H_    0.241741 0.386258 0.137518 0.144361
H2    H     H_    0.911604 0.896983 0.557847 0.186303
H3    H     H_    0.822228 0.094826 0.528287 0.150906
H4    H     H_    0.183587 0.906192 0.485134 0.152321
H5    H     H_    0.578200 0.415005 0.437342 0.157996
H6    H     H_    0.421744 0.585431 0.562265 0.160655
H7    H     H_    0.665107 0.622754 0.590022 0.154899
H8    H     H_    0.334929 0.377074 0.410137 0.153922
H9    H     H_    0.084397 0.829881 0.186486 0.246990
H10   H     H_    0.054600 0.757108 0.299379 0.255605
H11   H     H_    0.222488 0.779464 0.272537 0.247538
H12   H     H_    0.736689 0.729976 0.904820 0.144007
H13   H     H_    0.144692 0.560720 0.228622 0.230839
H14   H     H_    0.141228 0.637384 0.115699 0.210634
H15   H     H_    0.802277 0.430292 0.909082 0.257450
H16   H     H_    0.815031 0.519256 0.799213 0.265012
H17   H     H_    0.710036 0.372206 0.787668 0.244227
H18   H     H_    0.913825 0.330257 0.729231 0.216178
H19   H     H_    0.915267 0.263992 0.846648 0.193280
H20   H     H_    0.676181 0.416753 0.212406 0.146226
H21   H     H_    0.318689 0.601208 0.783665 0.149987
H22   H     H_    0.051999 0.364140 0.001273 0.145922
H23   H     H_    0.938401 0.692979 0.016809 0.145821
H24   H     H_    0.475186 0.439275 0.198569 0.142778
H25   H     H_    0.500242 0.695210 0.851107 0.140241
H26   H     H_    0.127737 0.110721 0.530783 0.190158
N1    N     N_2   0.322180 0.446120 0.460900 -0.193182
N2    N     N_2   0.677820 0.553880 0.539100 -0.188810
O1    O     O_R   0.935190 0.693030 0.507870 -0.604604
O2    O     O_R   0.064810 0.306970 0.492130 -0.604779
O3    O     O_R   0.142080 0.658430 0.482770 -0.604877
O4    O     O_R   0.857920 0.341570 0.517230 -0.613714
O5    O     O_R   0.969700 0.527180 0.651960 -0.606044
O6    O     O_R   0.030300 0.472820 0.348040 -0.615468
O7    O     O_R   0.176600 0.492580 0.626860 -0.605764
O8    O     O_R   0.823400 0.507420 0.373140 -0.598338
Zn1   Zn    Zn3+2 0.861850 0.523100 0.516760 0.930476
Zn2   Zn    Zn3+2 0.138150 0.476900 0.483240 0.926440

loop_
_geom_bond_atom_site_label_1
_geom_bond_atom_site_label_2
_ccdc_geom_bond_type
C28   H1    S    
C7    C11   A    
C2    H26   S    
C32   H2    S    
C8    C13   A    
C24   H9    S    
C20   C27   A    
C26   H16   S    
C27   C29   A    
C24   H10   S    
C2    C31   D    
C25   H19   S    
O3    Zn2   S    
C30   H4    S    
C10   C19   A    
C16   C20   A    
O7    Zn2   S    
C4    N2    D    
C6    O8    A    
O4    Zn1   S    
C18   C28   A    
C23   H24   S    
C12   C31   S    
H8    N1    S    
C15   H20   S    
C4    H5    S    
C30   C32   D    
C10   H23   S    
C9    C11   A    
O6    Zn2   S    
N2    Zn1   S    
O5    Zn1   S    
H7    N2    S    
C1    O3    A    
C31   H3    S    
C5    O5    A    
C1    C30   S    
C17   C19   A    
C13   C22   S    
C8    C15   A    
C22   C24   S    
C5    O7    A    
C21   C23   A    
C29   H12   S    
C12   O4    A    
C14   C16   A    
C11   C25   S    
N1    Zn2   S    
C3    C4    S    
C19   C29   A    
C9    C18   A    
C6    O6    A    
C14   H21   S    
C12   O2    A    
C20   C21   A    
O2    Zn2   S    
C16   C18   A    
C22   H13   S    
C27   H25   S    
C26   H17   S    
O1    Zn1   S    
C15   C17   A    
C24   H11   S    
C26   H15   S    
C5    C7    S    
O8    Zn1   S    
C6    C8    S    
C9    H22   S    
C22   H14   S    
C25   C26   S    
C23   C28   A    
C25   H18   S    
C7    C14   A    
C17   C21   A    
C3    H6    S    
C1    O1    A    
C2    C32   S    
C10   C13   A    
C3    N1    D    
