data_mof_unit_62168.cif
_audit_creation_date              2012-12-10T18:22:59-0500
_audit_creation_method            fapswitch 2.2
_symmetry_space_group_name_H-M    P1
_symmetry_Int_Tables_number       1
_space_group_crystal_system       triclinic
_cell_length_a                    21.487063
_cell_length_b                    21.48362
_cell_length_c                    21.939111
_cell_angle_alpha                 61.16921
_cell_angle_beta                  119.236822
_cell_angle_gamma                 89.567117
_cell_volume                      7340.11137298

loop_
_atom_site_label
_atom_site_type_symbol
_atom_type_description
_atom_site_fract_x
_atom_site_fract_y
_atom_site_fract_z
_atom_type_partial_charge
C1    C     C_R   0.621823 0.499267 0.500934 0.847097
C2    C     C_3   0.794731 0.426392 0.514080 0.279140
C3    C     C_3   0.670910 0.567980 0.416655 -0.428856
C4    C     C_R   0.418774 0.581122 0.337505 0.906318
C5    C     C_3   0.750724 0.503544 0.574302 -0.399630
C6    C     C_3   0.689958 0.499075 0.500942 0.104001
C7    C     C_3   0.810372 0.501095 0.500253 0.119544
C8    C     C_3   0.741457 0.567837 0.414927 -0.477826
C9    C     C_3   0.820666 0.508260 0.571577 -0.351072
C10   C     C_3   0.715306 0.202787 0.027360 -0.166855
C11   C     C_3   0.681968 0.289323 0.971996 -0.165587
C12   C     C_3   0.291370 0.708342 0.082173 0.210898
C13   C     C_1   0.625707 0.374593 0.751624 -0.196576
C14   C     C_1   0.873916 0.125869 0.248387 -0.199365
C15   C     C_3   0.741172 0.205884 0.971593 -0.165110
C16   C     C_R   0.377823 0.501038 0.498402 0.826922
C17   C     C_3   0.708636 0.291618 0.917827 0.210468
C18   C     C_3   0.817373 0.211552 0.028009 -0.164368
C19   C     C_3   0.790713 0.209252 0.082185 0.210195
C20   C     C_3   0.784042 0.298084 0.972652 -0.163734
C21   C     C_3   0.758179 0.294986 0.028428 -0.165110
C22   C     C_1   0.663203 0.337137 0.826783 -0.083719
C23   C     C_3   0.183918 0.736619 0.971550 -0.165927
C24   C     C_1   0.836248 0.163581 0.173229 -0.085440
C25   C     C_3   0.250581 0.491432 0.428724 -0.398506
C26   C     C_3   0.180393 0.487762 0.431135 -0.400751
C27   C     C_3   0.330119 0.434672 0.584927 -0.411609
C28   C     C_R   0.581228 0.418878 0.662495 0.908302
C29   C     C_3   0.274657 0.575330 0.482530 -0.371904
C30   C     C_3   0.309676 0.501010 0.498465 0.181801
C31   C     C_3   0.189783 0.498091 0.500158 0.182783
C32   C     C_3   0.259614 0.433884 0.586776 -0.381130
C33   C     C_3   0.202764 0.574128 0.481586 -0.418906
C34   C     C_3   0.209291 0.790657 0.917815 0.210992
C35   C     C_R   0.999421 0.879357 0.498431 0.827255
C36   C     C_R   0.081327 0.918674 0.662486 0.906337
C37   C     C_R   0.001087 0.120014 0.502501 0.827264
C38   C     C_R   0.918673 0.081176 0.337515 0.908109
C39   C     C_R   0.001328 0.378466 0.499798 0.827362
C40   C     C_3   0.286324 0.731641 0.972079 -0.166504
C41   C     C_R   0.878336 0.502148 0.499894 0.828974
C42   C     C_R   0.997839 0.621501 0.500163 0.835720
C43   C     C_R   0.121697 0.497797 0.500181 0.837394
C44   C     C_3   0.058015 0.791865 0.482875 -0.372173
C45   C     C_3   0.214336 0.767360 0.027902 -0.164491
C46   C     C_3   0.055852 0.720906 0.481945 -0.418692
C47   C     C_3   0.019176 0.745296 0.584868 -0.411431
C48   C     C_3   0.920277 0.821836 0.428567 -0.399113
C49   C     C_3   0.999438 0.811147 0.498509 0.181776
C50   C     C_3   0.998143 0.689578 0.500182 0.183571
C51   C     C_3   0.020173 0.672942 0.586701 -0.381405
C52   C     C_3   0.316745 0.762380 0.028439 -0.165035
C53   C     C_3   0.918970 0.749257 0.430940 -0.400558
C54   C     C_3   0.082095 0.181849 0.564674 -0.393449
C55   C     C_3   0.082551 0.254964 0.561241 -0.404267
C56   C     C_3   0.238913 0.822194 0.972575 -0.163627
C57   C     C_3   0.971777 0.255602 0.412723 -0.414723
C58   C     C_3   0.949420 0.202075 0.528371 -0.365017
C59   C     C_3   0.001008 0.188280 0.502329 0.177666
C60   C     C_3   0.001265 0.310289 0.499856 0.181861
C61   C     C_3   0.969843 0.328134 0.410528 -0.375465
C62   C     C_3   0.951511 0.273014 0.529305 -0.420358
C63   C     C_1   0.374297 0.625403 0.248376 -0.198700
C64   C     C_1   0.126085 0.873994 0.751614 -0.198426
C65   C     C_3   0.261751 0.676799 0.027419 -0.166988
C66   C     C_1   0.336803 0.662847 0.173217 -0.085938
C67   C     C_1   0.163754 0.836300 0.826771 -0.085434
C68   C     C_3   0.721823 0.426728 0.511390 -0.330613
H1    H     H_    0.371990 0.772146 0.053345 0.128933
H2    H     H_    0.752548 0.621886 0.402261 0.181628
H3    H     H_    0.625669 0.322001 0.947449 0.128585
H4    H     H_    0.315047 0.717791 0.947613 0.129716
H5    H     H_    0.687917 0.162927 0.051362 0.129966
H6    H     H_    0.765943 0.330717 0.053315 0.128390
H7    H     H_    0.811433 0.337940 0.948647 0.130332
H8    H     H_    0.873667 0.178876 0.052544 0.131720
H9    H     H_    0.733417 0.170143 0.946719 0.131972
H10   H     H_    0.273961 0.439146 0.437525 0.183199
H11   H     H_    0.234757 0.539235 0.365967 0.153436
H12   H     H_    0.786685 0.421811 0.462221 0.049934
H13   H     H_    0.130337 0.532330 0.368190 0.183344
H14   H     H_    0.171630 0.432844 0.444155 0.148605
H15   H     H_    0.353851 0.380626 0.597048 0.177583
H16   H     H_    0.228765 0.882589 0.948516 0.129047
H17   H     H_    0.250499 0.378699 0.602212 0.158011
H18   H     H_    0.315445 0.582893 0.532742 0.178278
H19   H     H_    0.261005 0.624026 0.421320 0.166274
H20   H     H_    0.153983 0.620879 0.419058 0.170885
H21   H     H_    0.208074 0.583255 0.529538 0.153682
H22   H     H_    0.373771 0.439727 0.636023 0.154935
H23   H     H_    0.625632 0.566874 0.363042 0.161503
H24   H     H_    0.268792 0.440715 0.637441 0.181016
H25   H     H_    0.115671 0.782439 0.533226 0.178252
H26   H     H_    0.045772 0.839286 0.421739 0.166590
H27   H     H_    0.040369 0.734506 0.419504 0.170864
H28   H     H_    0.185607 0.781211 0.052362 0.129393
H29   H     H_    0.112809 0.678234 0.530073 0.153825
H30   H     H_    0.075214 0.737831 0.636097 0.155287
H31   H     H_    0.077527 0.631415 0.637520 0.181419
H32   H     H_    0.876672 0.836541 0.437168 0.183163
H33   H     H_    0.905595 0.868659 0.365889 0.153532
H34   H     H_    0.730964 0.563436 0.362396 0.185942
H35   H     H_    0.900867 0.762053 0.368048 0.183691
H36   H     H_    0.876896 0.727624 0.443705 0.148633
H37   H     H_    0.977122 0.757055 0.596785 0.177583
H38   H     H_    0.980235 0.648555 0.601887 0.157581
H39   H     H_    0.121037 0.170878 0.548775 0.184366
H40   H     H_    0.128676 0.726847 0.946650 0.130342
H41   H     H_    0.103532 0.134131 0.629725 0.154644
H42   H     H_    0.107371 0.241769 0.625700 0.183173
H43   H     H_    0.118857 0.280693 0.540176 0.147407
H44   H     H_    0.008911 0.247730 0.393468 0.174687
H45   H     H_    0.729081 0.553669 0.570092 0.181510
H46   H     H_    0.003841 0.356724 0.387278 0.162304
H47   H     H_    0.890344 0.209006 0.483345 0.182092
H48   H     H_    0.968254 0.153167 0.591865 0.165099
H49   H     H_    0.974303 0.257751 0.594168 0.178710
H50   H     H_    0.893315 0.312689 0.487308 0.148921
H51   H     H_    0.914283 0.260118 0.366714 0.157644
H52   H     H_    0.271899 0.616405 0.051479 0.130576
H53   H     H_    0.910798 0.366517 0.365485 0.177696
H54   H     H_    0.679716 0.423668 0.457833 0.130584
H55   H     H_    0.732538 0.376297 0.569907 0.203262
H56   H     H_    0.766271 0.453205 0.635496 0.168119
H57   H     H_    0.891071 0.349274 0.583009 0.326925
H58   H     H_    0.870805 0.463008 0.633877 0.216726
H59   H     H_    0.829754 0.562674 0.560542 0.136797
H60   H     H_    0.649915 0.620674 0.408674 0.193750
O1    O     O_R   0.592630 0.447740 0.499990 -0.633306
O2    O     O_R   0.965300 0.442140 0.430470 -0.631907
O3    O     O_R   0.942170 0.465260 0.569550 -0.607596
O4    O     O_R   0.592590 0.552250 0.500040 -0.628999
O5    O     O_R   0.872610 0.534760 0.430420 -0.637088
O6    O     O_R   0.034700 0.557860 0.569530 -0.632046
O7    O     O_R   0.965140 0.627350 0.430400 -0.629580
O8    O     O_R   0.127390 0.465250 0.569580 -0.631099
O9    O     O_R   0.057830 0.534740 0.430450 -0.629750
O10   O     O_R   0.438420 0.509360 0.376750 -0.617497
O11   O     O_R   0.438370 0.613870 0.376810 -0.617483
O12   O     O_R   0.947670 0.907410 0.499960 -0.630947
O13   O     O_R   0.407410 0.447750 0.499960 -0.631028
O14   O     O_R   0.407370 0.552260 0.500010 -0.632563
O15   O     O_R   0.561630 0.386130 0.623190 -0.615626
O16   O     O_R   0.561580 0.490640 0.623250 -0.617973
O17   O     O_R   0.052240 0.907300 0.499970 -0.632443
O18   O     O_3   0.854343 0.364326 0.592229 -0.767047
O19   O     O_R   0.113890 0.938270 0.623230 -0.617641
O20   O     O_R   0.009320 0.938380 0.623210 -0.616634
O21   O     O_R   0.052330 0.092440 0.500040 -0.630836
O22   O     O_R   0.947760 0.092550 0.500030 -0.631402
O23   O     O_R   0.990680 0.061470 0.376790 -0.616719
O24   O     O_R   0.886110 0.061580 0.376770 -0.616790
O25   O     O_R   0.034860 0.372650 0.569600 -0.629097
Zn1   Zn    Zn3+2 0.500030 0.430220 0.499960 0.934872
Zn2   Zn    Zn3+2 0.499970 0.569780 0.500040 0.931630
Zn3   Zn    Zn3+2 0.069820 0.999850 0.500010 0.931485
Zn4   Zn    Zn3+2 0.930180 1.000000 0.499990 0.933345
Zn5   Zn    Zn3+2 0.046440 0.453600 0.592900 0.928747
Zn6   Zn    Zn3+2 0.953560 0.546400 0.407100 0.913592

loop_
_geom_bond_atom_site_label_1
_geom_bond_atom_site_label_2
_ccdc_geom_bond_type
C44   C49   S    
C58   C62   S    
C15   C18   S    
C34   C56   S    
C23   C45   S    
O22   Zn4   S    
C10   C15   S    
C2    C7    S    
C37   O22   A    
C3    C6    S    
C17   C20   S    
C41   O5    A    
C7    C8    S    
C47   C49   S    
C15   H9    S    
C29   H19   S    
C5    H56   S    
C9    H59   S    
C47   H30   S    
C31   C43   S    
C54   H39   S    
C39   O25   A    
C34   C40   S    
C60   C62   S    
C19   C21   S    
O21   Zn3   S    
C1    O1    A    
H57   O18   S    
C5    C6    S    
O12   Zn4   S    
C10   H5    S    
C11   H3    S    
O13   Zn1   S    
C57   C59   S    
C57   H44   S    
C48   H33   S    
C53   H36   S    
C16   C30   S    
C29   C33   S    
O4    Zn2   S    
C27   H22   S    
C3    H23   S    
C18   C19   S    
C35   O17   A    
C14   C24   T    
O25   Zn5   S    
C62   H49   S    
C52   H1    S    
O24   Zn4   S    
O17   Zn3   S    
C36   O20   A    
C46   H27   S    
C45   C56   S    
C47   H37   S    
C35   C49   S    
C31   C33   S    
C13   C28   S    
C43   O9    A    
C28   O16   A    
O14   Zn2   S    
C57   H51   S    
C5    H45   S    
C1    O4    A    
C6    C68   S    
C63   C66   T    
C26   C31   S    
C26   H14   S    
C55   C60   S    
C27   C30   S    
C58   H48   S    
C60   C61   S    
C68   H55   S    
C38   O24   A    
C12   C52   S    
C44   C46   S    
C56   H16   S    
C32   H17   S    
C54   C59   S    
C51   H31   S    
C48   C53   S    
C48   H32   S    
C50   C53   S    
O7    Zn6   S    
O9    Zn6   S    
C1    C6    S    
C64   C67   T    
C2    H12   S    
C3    C8    S    
C44   H25   S    
C68   H54   S    
C41   O3    A    
C3    H60   S    
O15   Zn1   S    
C47   C51   S    
C58   C59   S    
C40   C52   S    
C12   C66   S    
C21   H6    S    
C11   C21   S    
C25   H10   S    
C54   H41   S    
C42   O7    A    
O5    Zn6   S    
O3    Zn5   S    
C16   O14   A    
C5    C9    S    
C29   C30   S    
C33   H21   S    
C35   O12   A    
C14   C38   S    
C36   O19   A    
C31   C32   S    
C4    C63   S    
O11   Zn2   S    
C10   C19   S    
C23   C34   S    
C50   C51   S    
C28   O15   A    
O23   Zn3   S    
O19   Zn3   S    
C29   H18   S    
C37   C59   S    
C42   C50   S    
C48   C49   S    
O6    Zn5   S    
C46   H29   S    
C26   H13   S    
C23   H40   S    
C40   C65   S    
C55   H42   S    
C58   H47   S    
C38   O23   A    
C25   C30   S    
C15   C17   S    
C54   C55   S    
C11   C17   S    
C18   H8    S    
C40   H4    S    
C55   H43   S    
C27   C32   S    
C25   H11   S    
C8    H2    S    
C33   H20   S    
C9    H58   S    
C61   H53   S    
C37   O21   A    
C12   C45   S    
C34   C67   S    
C57   C61   S    
C39   O2    A    
C2    O18   S    
C12   C65   S    
C46   C50   S    
C2    C68   S    
C17   C22   S    
C42   O6    A    
C23   C65   S    
O16   Zn2   S    
C27   H15   S    
C19   C24   S    
C25   C26   S    
O8    Zn5   S    
C4    O11   A    
O10   Zn1   S    
C32   H24   S    
C53   H35   S    
C51   H38   S    
C39   C60   S    
C65   H52   S    
C13   C22   T    
C16   O13   A    
C18   C20   S    
O20   Zn4   S    
C7    C41   S    
C43   O8    A    
C62   H50   S    
C44   H26   S    
C10   C11   S    
C4    O10   A    
C7    C9    S    
C20   C21   S    
C20   H7    S    
C61   H46   S    
O2    Zn6   S    
C36   C64   S    
C45   H28   S    
C8    H34   S    
O1    Zn1   S    
C52   C56   S    
