data_mof_unit_50051.cif
_audit_creation_date              2012-12-10T17:30:28-0500
_audit_creation_method            fapswitch 2.2
_symmetry_space_group_name_H-M    P1
_symmetry_Int_Tables_number       1
_space_group_crystal_system       triclinic
_cell_length_a                    11.956976
_cell_length_b                    12.895443
_cell_length_c                    15.055038
_cell_angle_alpha                 89.802439
_cell_angle_beta                  86.289711
_cell_angle_gamma                 93.068686
_cell_volume                      2313.10106362

loop_
_atom_site_label
_atom_site_type_symbol
_atom_type_description
_atom_site_fract_x
_atom_site_fract_y
_atom_site_fract_z
_atom_type_partial_charge
C1    C     C_R   0.521841 0.700509 0.498905 0.876655
C2    C     C_R   0.358651 0.137526 0.506170 -0.196004
C3    C     C_R   0.437577 0.867684 0.502418 -0.284405
C4    C     C_R   0.562423 0.132316 0.497585 -0.284408
C5    C     C_R   0.446272 0.974297 0.502194 0.186207
C6    C     C_R   0.553728 0.025703 0.497809 0.186212
C7    C     C_R   0.957336 0.424772 0.401294 0.435752
C8    C     C_R   0.042663 0.575212 0.598713 0.435703
C9    C     C_R   0.840148 0.427569 0.414134 -0.088837
C10   C     C_R   0.159850 0.572420 0.585872 -0.088848
C11   C     C_R   0.856318 0.530596 0.543197 -0.045158
C12   C     C_R   0.478159 0.299491 0.501096 0.876667
C13   C     C_R   0.143684 0.469405 0.456801 -0.045136
C14   C     C_R   0.974413 0.526869 0.535998 -0.118275
C15   C     C_R   0.025587 0.473129 0.464000 -0.118258
C16   C     C_R   0.500285 0.496989 0.673485 0.931817
C17   C     C_R   0.499714 0.503003 0.326515 0.931790
C18   C     C_R   0.597072 0.487027 0.180290 -0.346662
C19   C     C_R   0.402924 0.512930 0.819712 -0.346656
C20   C     C_R   0.498821 0.508578 0.230565 -0.177887
C21   C     C_R   0.501178 0.491395 0.769435 -0.177882
C22   C     C_R   0.401523 0.534597 0.188923 0.440485
C23   C     C_R   0.302246 0.534679 0.961222 -0.207563
C24   C     C_R   0.598478 0.465375 0.811075 0.440500
C25   C     C_R   0.400210 0.526137 0.096390 -0.012246
C26   C     C_R   0.599789 0.473824 0.903610 -0.012254
C27   C     C_R   0.499739 0.503024 0.046284 0.030382
C28   C     C_R   0.500258 0.496930 0.953717 0.030384
C29   C     C_R   0.598761 0.485656 0.088577 0.131150
C30   C     C_R   0.401235 0.514295 0.911424 0.131152
C31   C     C_R   0.301351 0.539713 0.053184 -0.215665
C32   C     C_R   0.698646 0.460244 0.946816 -0.215662
C33   C     C_3   0.041857 0.439530 0.260483 0.129160
C34   C     C_R   0.697749 0.465271 0.038779 -0.207559
C35   C     C_3   0.950991 0.452548 0.195514 -0.932586
C36   C     C_3   0.958131 0.560353 0.739513 0.129198
C37   C     C_3   0.048950 0.547375 0.804528 -0.932478
C38   C     C_3   0.292713 0.670388 0.231536 0.046485
C39   C     C_3   0.324101 0.725235 0.316413 -0.778245
C40   C     C_3   0.707319 0.329606 0.768454 0.046477
C41   C     C_3   0.675930 0.274752 0.683581 -0.778296
C42   C     C_R   0.465390 0.188243 0.501746 -0.054503
C43   C     C_R   0.534610 0.811757 0.498256 -0.054498
C44   C     C_R   0.650896 0.969844 0.493653 -0.220305
C45   C     C_R   0.349103 0.030156 0.506349 -0.220305
C46   C     C_R   0.641349 0.862474 0.493832 -0.196004
H1    H     H_    0.672415 0.469531 0.212534 0.183714
H2    H     H_    0.716858 0.819456 0.490676 0.168877
H3    H     H_    0.733586 0.009016 0.490308 0.144494
H4    H     H_    0.266414 0.990983 0.509695 0.144494
H5    H     H_    0.185175 0.426674 0.403678 0.185616
H6    H     H_    0.814828 0.573330 0.596318 0.185625
H7    H     H_    0.114556 0.405541 0.223770 0.193224
H8    H     H_    0.072560 0.517353 0.283874 0.149451
H9    H     H_    0.880606 0.494069 0.228015 0.243550
H10   H     H_    0.986232 0.498687 0.136831 0.219253
H11   H     H_    0.919017 0.375356 0.172731 0.270129
H12   H     H_    0.327579 0.530420 0.787469 0.183693
H13   H     H_    0.927517 0.482518 0.716085 0.149382
H14   H     H_    0.885371 0.594276 0.776200 0.193273
H15   H     H_    0.080746 0.624572 0.827432 0.270098
H16   H     H_    0.013737 0.501086 0.863133 0.219216
H17   H     H_    0.119456 0.506025 0.772018 0.243568
H18   H     H_    0.202721 0.681875 0.222634 0.152301
H19   H     H_    0.341261 0.708980 0.173538 0.134984
H20   H     H_    0.415049 0.719455 0.324953 0.238556
H21   H     H_    0.305934 0.808605 0.312388 0.199240
H22   H     H_    0.274608 0.689535 0.374709 0.272313
H23   H     H_    0.223058 0.554403 0.089997 0.164273
H24   H     H_    0.658789 0.291004 0.826456 0.134997
H25   H     H_    0.797318 0.318138 0.777347 0.152283
H26   H     H_    0.725360 0.310499 0.625275 0.272370
H27   H     H_    0.694182 0.191400 0.687583 0.199249
H28   H     H_    0.584966 0.280464 0.675076 0.238528
H29   H     H_    0.212840 0.611044 0.632587 0.158863
H30   H     H_    0.787155 0.388930 0.367427 0.158871
H31   H     H_    0.776940 0.445558 0.910004 0.164261
H32   H     H_    0.225590 0.547011 0.929083 0.152105
H33   H     H_    0.774403 0.452934 0.070918 0.152103
H34   H     H_    0.645256 0.171377 0.494144 0.167321
H35   H     H_    0.354743 0.828623 0.505859 0.167321
H36   H     H_    0.283141 0.180543 0.509326 0.168881
N1    N     N_R   0.207800 0.519350 0.516680 -0.138844
N2    N     N_R   0.792200 0.480650 0.483320 -0.138856
O1    O     O_R   0.421700 0.658830 0.504450 -0.633748
O2    O     O_3   0.996925 0.629985 0.669840 -0.633115
O3    O     O_3   0.306286 0.562119 0.239116 -0.631612
O4    O     O_3   0.693720 0.437870 0.760878 -0.631626
O5    O     O_R   0.578300 0.341170 0.495550 -0.633764
O6    O     O_R   0.609310 0.646410 0.493750 -0.625448
O7    O     O_R   0.390690 0.353590 0.506250 -0.625450
O8    O     O_R   0.406180 0.506230 0.637500 -0.641889
O9    O     O_R   0.593820 0.493770 0.362500 -0.641883
O10   O     O_R   0.593800 0.493820 0.626800 -0.568604
O11   O     O_R   0.406200 0.506180 0.373200 -0.568601
O12   O     O_3   0.003070 0.369949 0.330197 -0.633137
Zn1   Zn    Zn3+2 0.374730 0.508290 0.507150 0.945258
Zn2   Zn    Zn3+2 0.625270 0.491710 0.492850 0.945248

loop_
_geom_bond_atom_site_label_1
_geom_bond_atom_site_label_2
_ccdc_geom_bond_type
C44   H3    S    
C25   C31   A    
C26   C32   A    
C1    O6    A    
C40   H25   S    
C16   O10   A    
C27   C29   A    
C39   H22   S    
C12   O7    A    
C36   H13   S    
C18   H1    S    
C37   H16   S    
C7    O12   S    
C3    C43   A    
C16   C21   S    
C40   H24   S    
C36   C37   S    
C19   C21   A    
C24   C26   A    
C4    H34   S    
C38   C39   S    
C11   C14   A    
O10   Zn2   S    
C10   N1    A    
C17   C20   S    
C12   C42   S    
C11   H6    S    
C41   H28   S    
C13   H5    S    
C1    C43   S    
C22   C25   A    
C3    H35   S    
C17   O11   A    
C9    H30   S    
C18   C20   A    
C7    C15   A    
C32   H31   S    
C2    C45   A    
C6    C44   A    
C1    O1    A    
C37   H17   S    
C44   C46   A    
O8    Zn1   S    
C38   H18   S    
C19   H12   S    
C33   H7    S    
C46   H2    S    
C35   H9    S    
C23   C30   A    
C12   O5    A    
C4    C6    A    
C36   O2    S    
O5    Zn2   S    
C5    C45   A    
C29   C34   A    
C32   C34   A    
C34   H33   S    
C10   H29   S    
C38   H19   S    
C18   C29   A    
C22   O3    S    
O7    Zn1   S    
C24   O4    S    
C41   H26   S    
C40   C41   S    
C20   C22   A    
C16   O8    A    
C13   C15   A    
C39   H20   S    
C2    H36   S    
C17   O9    A    
C33   O12   S    
C33   H8    S    
C7    C9    A    
C8    C14   A    
C35   H10   S    
C39   H21   S    
C3    C5    A    
C37   H15   S    
O11   Zn1   S    
C11   N2    A    
C25   C27   A    
C13   N1    A    
C26   C28   A    
C38   O3    S    
C35   H11   S    
N2    Zn2   S    
C40   O4    S    
C28   C30   A    
C5    C6    A    
C4    C42   A    
C45   H4    S    
C2    C42   A    
C33   C35   S    
C8    O2    S    
C23   H32   S    
C43   C46   A    
O1    Zn1   S    
C9    N2    A    
C41   H27   S    
C31   H23   S    
C8    C10   A    
N1    Zn1   S    
C21   C24   A    
C27   C28   A    
C36   H14   S    
C14   C15   A    
C19   C30   A    
O9    Zn2   S    
O6    Zn2   S    
C23   C31   A    
