data_mof_unit_52393.cif
_audit_creation_date              2012-12-11T17:44:03-0500
_audit_creation_method            fapswitch 2.2
_symmetry_space_group_name_H-M    P1
_symmetry_Int_Tables_number       1
_space_group_crystal_system       triclinic
_cell_length_a                    20.295107
_cell_length_b                    22.731314
_cell_length_c                    6.938165
_cell_angle_alpha                 90.000085
_cell_angle_beta                  86.516178
_cell_angle_gamma                 89.999769
_cell_volume                      3194.89941619

loop_
_atom_site_label
_atom_site_type_symbol
_atom_type_description
_atom_site_fract_x
_atom_site_fract_y
_atom_site_fract_z
_atom_type_partial_charge
O1    O     O_R   0.751270 0.447300 0.600030 -0.539706
O2    O     O_R   0.248730 0.947300 0.399970 -0.539710
O3    O     O_R   0.613530 0.440160 0.952150 -0.537208
O4    O     O_R   0.386470 0.940160 0.047850 -0.537206
O5    O     O_R   0.613050 0.552700 0.122560 -0.534315
O6    O     O_R   0.386950 0.052700 0.877440 -0.534316
C1    C     C_R   0.591640 0.425347 0.787368 0.700837
C2    C     C_R   0.408360 0.925347 0.212632 0.700839
O7    O     O_R   0.750780 0.440350 0.929820 -0.545182
O8    O     O_R   0.249220 0.940350 0.070180 -0.545189
O9    O     O_R   0.751280 0.552900 0.100070 -0.537803
O10   O     O_R   0.248720 0.052900 0.899930 -0.537802
C3    C     C_R   0.773778 0.426172 0.757085 0.702165
C4    C     C_R   0.226222 0.926171 0.242914 0.702169
O11   O     O_R   0.613040 0.447100 0.622520 -0.534881
O12   O     O_R   0.386960 0.947100 0.377480 -0.534881
O13   O     O_3   0.682160 0.536920 0.777780 -0.368399
O14   O     O_3   0.317840 0.036920 0.222220 -0.368395
V1    V     V_3+5 0.682160 0.493150 0.052630 1.409892
V2    V     V_3+5 0.317840 0.993150 0.947370 1.409886
O15   O     O_R   0.750790 0.559840 0.429870 -0.545622
O16   O     O_R   0.249210 0.059840 0.570130 -0.545622
C5    C     C_R   0.774895 0.573194 0.256306 0.698751
C6    C     C_R   0.225103 0.073192 0.743694 0.698752
O17   O     O_R   0.613540 0.559650 0.452200 -0.535605
O18   O     O_R   0.386460 0.059650 0.547800 -0.535605
C7    C     C_R   0.591703 0.574488 0.287399 0.695131
C8    C     C_R   0.408296 0.074488 0.712601 0.695133
V3    V     V_3+5 0.682160 0.506850 0.552630 1.411853
V4    V     V_3+5 0.317840 0.006850 0.447370 1.411855
O19   O     O_3   0.682150 0.463080 0.277610 -0.367009
O20   O     O_3   0.317850 0.963080 0.722390 -0.367013
C9    C     C_R   0.578593 0.859992 0.150983 -0.158994
C10   C     C_R   0.421411 0.359988 0.849132 -0.158995
H1    H     H_    0.537295 0.946386 0.130232 0.107344
H2    H     H_    0.462709 0.446381 0.869884 0.107346
H3    H     H_    0.669323 0.776098 0.138266 0.127063
H4    H     H_    0.330683 0.276092 0.861911 0.127059
H5    H     H_    0.628169 0.875608 0.113285 0.114273
H6    H     H_    0.371837 0.375602 0.886888 0.114271
C11   C     C_R   0.462519 0.882022 0.210038 -0.041663
C12   C     C_R   0.537482 0.382021 0.789970 -0.041668
C13   C     C_R   0.473190 0.595979 0.337677 -0.166150
C14   C     C_R   0.526807 0.095982 0.662246 -0.166140
C15   C     C_R   0.419401 0.633918 0.349546 -0.118713
C16   C     C_R   0.580595 0.133922 0.650343 -0.118714
C17   C     C_R   0.427862 0.693978 0.316199 -0.156409
C18   C     C_R   0.572135 0.193981 0.683719 -0.156408
C19   C     C_R   0.491140 0.717958 0.269139 0.077769
C20   C     C_R   0.508859 0.217959 0.730846 0.077769
C21   C     C_R   0.546299 0.678473 0.255225 0.068765
C22   C     C_R   0.453701 0.178472 0.744799 0.068760
C23   C     C_R   0.501485 0.779692 0.235750 0.074061
C24   C     C_R   0.498515 0.279691 0.764260 0.074058
C25   C     C_R   0.566635 0.800055 0.187377 0.139164
C26   C     C_R   0.433368 0.300052 0.812705 0.139166
C27   C     C_R   0.619604 0.760607 0.174733 -0.199911
C28   C     C_R   0.380400 0.260603 0.825389 -0.199909
C29   C     C_R   0.609755 0.700903 0.208452 -0.194469
C30   C     C_R   0.390248 0.200900 0.791641 -0.194474
C31   C     C_R   0.449742 0.822157 0.247723 -0.215271
C32   C     C_R   0.550257 0.322158 0.752248 -0.215275
C33   C     C_R   0.526964 0.900457 0.161021 -0.171120
C34   C     C_R   0.473039 0.400454 0.839061 -0.171113
C35   C     C_R   0.536714 0.617275 0.290312 -0.086791
C36   C     C_R   0.463286 0.117275 0.709680 -0.086797
H7    H     H_    0.399076 0.810267 0.283490 0.093685
H8    H     H_    0.600921 0.310269 0.716430 0.093687
H9    H     H_    0.465238 0.549550 0.366039 0.106158
H10   H     H_    0.534759 0.049554 0.633854 0.106159
H11   H     H_    0.383784 0.720408 0.328589 0.108432
H12   H     H_    0.616213 0.220412 0.671297 0.108429
H13   H     H_    0.370514 0.616624 0.385923 0.119999
H14   H     H_    0.629481 0.116629 0.613912 0.119994
H15   H     H_    0.652508 0.672329 0.197128 0.112380
H16   H     H_    0.347496 0.172325 0.802998 0.112391
C37   C     C_R   0.171882 0.882217 0.260939 -0.085700
C38   C     C_R   0.828120 0.382218 0.739057 -0.085707
C39   C     C_R   0.159193 0.845368 0.105050 -0.216133
C40   C     C_R   0.840788 0.345347 0.894909 -0.216132
C41   C     C_R   0.108221 0.803181 0.118424 0.154774
C42   C     C_R   0.891758 0.303159 0.881523 0.154774
C43   C     C_R   0.066806 0.799210 0.292740 0.412389
C44   C     C_R   0.933201 0.299216 0.707249 0.412369
C45   C     C_R   0.080770 0.835852 0.447828 -0.225149
C46   C     C_R   0.919253 0.335877 0.552189 -0.225120
C47   C     C_R   0.132516 0.876536 0.433152 -0.202861
C48   C     C_R   0.867504 0.376557 0.566869 -0.202843
C49   C     C_R   0.897644 0.692672 0.377105 -0.152090
C50   C     C_R   0.102368 0.192686 0.622951 -0.152075
C51   C     C_R   0.845431 0.652188 0.391178 -0.265739
C52   C     C_R   0.154582 0.152203 0.608864 -0.265735
C53   C     C_R   0.936793 0.698302 0.203696 0.386826
C54   C     C_R   0.063197 0.198291 0.796330 0.386804
N1    N     N_2   0.013270 0.758386 0.325111 -0.304210
N2    N     N_2   0.986748 0.258402 0.674880 -0.304229
N3    N     N_2   0.989008 0.740010 0.175548 -0.299909
N4    N     N_2   0.010973 0.239991 0.824493 -0.299911
C55   C     C_R   0.831347 0.615722 0.234281 -0.061557
C56   C     C_R   0.168648 0.115716 0.765720 -0.061547
H17   H     H_    0.815368 0.650008 0.525234 0.147514
H18   H     H_    0.184658 0.150040 0.474833 0.147511
H19   H     H_    0.906426 0.720196 0.500294 0.144192
H20   H     H_    0.093602 0.220229 0.499800 0.144210
H21   H     H_    0.050721 0.833088 0.581894 0.136758
H22   H     H_    0.949316 0.333127 0.418141 0.136758
H23   H     H_    0.141109 0.904142 0.556378 0.142338
H24   H     H_    0.858925 0.404178 0.443668 0.142335
C57   C     C_R   0.872154 0.620725 0.060011 0.119537
C58   C     C_R   0.127820 0.120692 0.939953 0.119542
C59   C     C_R   0.923157 0.662617 0.047410 -0.185954
C60   C     C_R   0.076815 0.162583 0.952572 -0.185949
H25   H     H_    0.953649 0.667250 0.914443 0.127537
H26   H     H_    0.046307 0.167196 0.085516 0.127548
H27   H     H_    0.190163 0.848761 0.972659 0.138189
H28   H     H_    0.809800 0.348722 0.027274 0.138186
C61   C     C_3   0.864472 0.581560 0.886910 -0.729441
H29   H     H_    0.904510 0.588630 0.772837 0.192864
H30   H     H_    0.866401 0.534612 0.930495 0.200550
H31   H     H_    0.817152 0.591127 0.821318 0.218018
C62   C     C_3   0.135478 0.081499 0.112985 -0.729488
H32   H     H_    0.095416 0.088538 0.226997 0.192880
H33   H     H_    0.133576 0.034560 0.069301 0.200546
H34   H     H_    0.182779 0.091063 0.178682 0.218030
C63   C     C_3   0.102023 0.762529 0.948225 -0.738400
H35   H     H_    0.142948 0.768726 0.836283 0.190630
H36   H     H_    0.103642 0.715997 0.996409 0.221583
H37   H     H_    0.055344 0.771359 0.878090 0.220926
C64   C     C_3   0.897921 0.262470 0.051641 -0.738386
H38   H     H_    0.856957 0.268627 0.163476 0.190624
H39   H     H_    0.896339 0.215949 0.003332 0.221588
H40   H     H_    0.944569 0.271298 0.121934 0.220936

loop_
_geom_bond_atom_site_label_1
_geom_bond_atom_site_label_2
_ccdc_geom_bond_type
C9    C25   A    
C5    C55   S    
C56   C58   A    
O11   V3    S    
C39   H27   S    
O13   V3    S    
C14   C36   A    
C11   C31   A    
O4    C2    A    
V1    O19   S    
C60   H26   S    
C57   C61   S    
C17   C19   A    
C10   C26   A    
O9    V1    S    
C9    H5    S    
C10   H6    S    
C18   H12   S    
O3    C1    A    
C61   H30   S    
C58   C62   S    
C44   N2    S    
C48   H24   S    
C38   C40   A    
C1    C12   S    
C54   N4    S    
C28   C30   A    
C55   C57   A    
C46   C48   A    
C15   H13   S    
C21   C35   A    
C15   C17   A    
C54   C60   A    
O7    C3    A    
C62   H34   S    
C22   C30   A    
C57   C59   A    
O5    C7    A    
C23   C31   A    
O7    V1    S    
O6    C8    A    
C40   H28   S    
O8    V2    S    
C19   C21   A    
N2    N4    D    
C63   H37   S    
C20   C22   A    
O3    V1    S    
O14   V4    S    
C49   C51   A    
C12   C32   A    
C52   H18   S    
C64   H40   S    
C18   C20   A    
C2    O12   A    
H4    C28   S    
C49   H19   S    
C46   H22   S    
C29   H15   S    
C51   H17   S    
C45   H21   S    
O1    V3    S    
C41   C43   A    
C14   C16   A    
C50   C54   A    
C16   C18   A    
C23   C25   A    
O17   V3    S    
C24   C26   A    
C9    C33   A    
C45   C47   A    
C2    C11   S    
C40   C42   A    
O8    C4    A    
C61   H31   S    
C4    C37   S    
C1    O11   A    
C24   C32   A    
O15   V3    S    
C30   H16   S    
C8    C36   S    
C7    C35   S    
C31   H7    S    
C50   C52   A    
C13   C35   A    
C43   N1    S    
O10   V2    S    
C10   C34   A    
C37   C39   A    
C47   H23   S    
C59   H25   S    
C20   C24   A    
C42   C64   S    
C14   H10   S    
C13   C15   A    
C50   H20   S    
C62   H32   S    
C53   C59   A    
C43   C45   A    
O18   V4    S    
C42   C44   A    
C25   C27   A    
C63   H35   S    
O16   C6    A    
C21   C29   A    
C17   H11   S    
C53   N3    S    
C16   H14   S    
C22   C36   A    
C52   C56   A    
C39   C41   A    
C64   H38   S    
V2    O20   S    
C38   C48   A    
C3    C38   S    
O16   V4    S    
C41   C63   S    
C6    C56   S    
C44   C46   A    
C12   C34   A    
N1    N3    D    
O5    V1    S    
O17   C7    A    
O6    V2    S    
O10   C6    A    
O18   C8    A    
C32   H8    S    
O2    V4    S    
O15   C5    A    
V3    O19   S    
C61   H29   S    
V4    O20   S    
C19   C23   A    
O9    C5    A    
O13   V1    S    
C26   C28   A    
O14   V2    S    
C49   C53   A    
O2    C4    A    
C58   C60   A    
C62   H33   S    
C27   C29   A    
O4    V2    S    
O1    C3    A    
C37   C47   A    
C13   H9    S    
C63   H36   S    
C11   C33   A    
H1    C33   S    
C51   C55   A    
H2    C34   S    
O12   V4    S    
H3    C27   S    
C64   H39   S    
