data_mof_unit_29167.cif
_audit_creation_date              2012-12-10T17:39:08-0500
_audit_creation_method            fapswitch 2.2
_symmetry_space_group_name_H-M    P1
_symmetry_Int_Tables_number       1
_space_group_crystal_system       triclinic
_cell_length_a                    11.973186
_cell_length_b                    12.7811
_cell_length_c                    23.414839
_cell_angle_alpha                 89.909714
_cell_angle_beta                  86.255924
_cell_angle_gamma                 96.075142
_cell_volume                      3555.3261434

loop_
_atom_site_label
_atom_site_type_symbol
_atom_type_description
_atom_site_fract_x
_atom_site_fract_y
_atom_site_fract_z
_atom_type_partial_charge
C1    C     C_R   0.525216 0.701075 0.499895 1.033572
C2    C     C_R   0.593708 0.471360 0.294092 -0.184818
C3    C     C_R   0.603219 0.491601 0.758256 -0.075732
C4    C     C_R   0.592965 0.470066 0.234887 -0.065553
C5    C     C_R   0.502662 0.495309 0.791520 0.267029
C6    C     C_R   0.497573 0.494666 0.208601 0.266499
C7    C     C_R   0.453029 0.185805 0.500902 -0.299108
C8    C     C_R   0.547001 0.814304 0.500021 -0.311349
C9    C     C_R   0.609369 0.972434 0.549527 -0.164319
C10   C     C_R   0.389405 0.026954 0.452497 -0.126881
C11   C     C_R   0.615307 0.866083 0.540499 0.392664
C12   C     C_R   0.474807 0.298965 0.500194 1.012016
C13   C     C_R   0.383600 0.133347 0.461107 0.382632
C14   C     C_R   0.486361 0.871446 0.463958 0.373870
C15   C     C_R   0.514219 0.129322 0.537176 0.291733
C16   C     C_R   0.500309 0.500240 0.610665 0.975919
C17   C     C_R   0.499521 0.498771 0.389381 0.983424
C18   C     C_R   0.469092 0.974656 0.478980 -0.095449
C19   C     C_R   0.530343 0.025401 0.522827 -0.092989
C20   C     C_R   0.954322 0.429656 0.435122 -0.269871
C21   C     C_R   0.045647 0.570139 0.564940 -0.265678
C22   C     C_R   0.837833 0.433085 0.442760 0.036934
C23   C     C_R   0.401285 0.500734 0.765944 -0.063872
C24   C     C_R   0.162146 0.566796 0.557277 0.048668
C25   C     C_R   0.858155 0.524673 0.530194 0.061923
C26   C     C_R   0.141829 0.475199 0.469843 0.056755
C27   C     C_R   0.975723 0.523895 0.524189 0.066347
C28   C     C_R   0.024253 0.475930 0.475862 0.068099
C29   C     C_R   0.483010 0.401440 0.120425 0.596559
C30   C     C_R   0.508332 0.588384 0.879984 0.595751
C31   C     C_R   0.515701 0.588641 0.119388 0.607293
C32   C     C_R   0.500546 0.401309 0.880210 0.610467
C33   C     C_R   0.509624 0.592103 0.059652 -0.162073
C34   C     C_R   0.402385 0.519833 0.241205 -0.080071
C35   C     C_R   0.491237 0.397705 0.940395 -0.165653
C36   C     C_R   0.503055 0.495035 0.029982 -0.099529
C37   C     C_R   0.504468 0.494729 0.969916 -0.098868
C38   C     C_R   0.494937 0.398238 0.060412 -0.172118
C39   C     C_R   0.518933 0.591525 0.939327 -0.172109
C40   C     C_R   0.515841 0.688448 0.028672 0.345636
C41   C     C_R   0.474436 0.301344 0.971636 0.337575
C42   C     C_R   0.538339 0.687700 0.968973 0.325205
C43   C     C_R   0.494146 0.302056 0.030215 0.322077
C44   C     C_R   0.400330 0.502716 0.706718 -0.182463
C45   C     C_R   0.402485 0.520385 0.300477 -0.148126
C46   C     C_R   0.501069 0.499047 0.672908 -0.000647
C47   C     C_R   0.498468 0.496655 0.327213 -0.030307
C48   C     C_R   0.602581 0.493287 0.699036 -0.083896
H1    H     H_    0.180825 0.438543 0.433144 0.168111
H2    H     H_    0.328254 0.540447 0.325239 0.186438
H3    H     H_    0.681315 0.490269 0.673847 0.174328
H4    H     H_    0.668433 0.452350 0.313843 0.163244
H5    H     H_    0.681553 0.487630 0.778410 0.156655
H6    H     H_    0.666484 0.450661 0.209310 0.160779
H7    H     H_    0.666135 0.012913 0.578048 0.238430
H8    H     H_    0.332435 0.985689 0.424261 0.256176
H9    H     H_    0.354490 0.839976 0.130811 0.411650
H10   H     H_    0.283472 0.150228 0.878869 0.403819
H11   H     H_    0.727632 0.933703 0.958836 0.399793
H12   H     H_    0.819155 0.561255 0.566915 0.166021
H13   H     H_    0.630819 0.058244 0.032039 0.419527
H14   H     H_    0.731863 0.203671 0.565665 0.342724
H15   H     H_    0.531686 0.727983 0.332562 0.392880
H16   H     H_    0.174533 0.153711 0.355210 0.394504
H17   H     H_    0.823153 0.843956 0.646826 0.395058
H18   H     H_    0.216239 0.601314 0.589009 0.139654
H19   H     H_    0.783733 0.398527 0.411044 0.138122
H20   H     H_    0.989292 0.391881 0.397665 0.168058
H21   H     H_    0.010665 0.607855 0.602414 0.166745
H22   H     H_    0.323640 0.503687 0.792054 0.158047
H23   H     H_    0.328741 0.538929 0.220516 0.164188
H24   H     H_    0.321032 0.506976 0.687523 0.165078
N1    N     N_R   0.497993 0.494970 0.147881 -0.377194
N2    N     N_R   0.503728 0.494927 0.852176 -0.377686
N3    N     N_R   0.207800 0.519350 0.510590 -0.110268
N4    N     N_R   0.792200 0.480650 0.489410 -0.108793
O1    O     O_R   0.421690 0.658830 0.502820 -0.606008
O2    O     O_2   0.498661 0.676858 0.850087 -0.444127
O3    O     O_2   0.543595 0.676739 0.149083 -0.449242
O4    O     O_2   0.510125 0.313368 0.849399 -0.436825
O5    O     O_2   0.570967 0.863648 0.089294 -0.184319
O6    O     O_2   0.431185 0.876083 0.018387 -0.178015
O7    O     O_3   0.368088 0.772870 0.111816 -0.514837
O8    O     O_2   0.492418 0.125953 0.909116 -0.142053
O9    O     O_2   0.346104 0.114078 0.987724 -0.190611
O10   O     O_3   0.311265 0.217231 0.896883 -0.518798
O11   O     O_2   0.695699 0.767315 0.888254 -0.250835
O12   O     O_R   0.578310 0.341170 0.497180 -0.611949
O13   O     O_2   0.533482 0.866733 0.908320 -0.140502
O14   O     O_3   0.687921 0.873987 0.981585 -0.498475
O15   O     O_2   0.630100 0.221915 0.102548 -0.258787
O16   O     O_2   0.445041 0.123707 0.092933 -0.153890
O17   O     O_3   0.599806 0.114257 0.010683 -0.466936
O18   O     O_2   0.481412 0.265394 0.622794 -0.289719
O19   O     O_2   0.559940 0.105599 0.648676 -0.211888
O20   O     O_3   0.690542 0.250059 0.591277 -0.511831
O21   O     O_2   0.329594 0.759725 0.404710 -0.280701
O22   O     O_2   0.448195 0.901660 0.352499 -0.252421
O23   O     O_R   0.609320 0.646410 0.496030 -0.550879
O24   O     O_3   0.537371 0.732049 0.374527 -0.582159
O25   O     O_2   0.202165 0.238123 0.460734 -0.303350
O26   O     O_2   0.353832 0.286098 0.386727 -0.337910
O27   O     O_3   0.225629 0.112031 0.375139 -0.504320
O28   O     O_2   0.644339 0.712333 0.614295 -0.348037
O29   O     O_2   0.796651 0.761205 0.540756 -0.300043
O30   O     O_3   0.772513 0.886062 0.626852 -0.506409
O31   O     O_R   0.390680 0.353590 0.503970 -0.556189
O32   O     O_R   0.406170 0.506240 0.587240 -0.657115
O33   O     O_R   0.593830 0.493760 0.412760 -0.647938
O34   O     O_R   0.593790 0.493820 0.580450 -0.589856
O35   O     O_R   0.406210 0.506180 0.419550 -0.593723
O36   O     O_2   0.452472 0.313032 0.151572 -0.440695
S1    S     S_3+6 0.473238 0.805310 0.061643 0.152853
S2    S     S_3+6 0.406619 0.184610 0.941659 0.161300
S3    S     S_3+6 0.614134 0.801000 0.934457 0.149714
S4    S     S_3+6 0.541995 0.188449 0.061407 0.156312
S5    S     S_3+6 0.560135 0.187313 0.602401 0.065718
S6    S     S_3+6 0.446061 0.816694 0.397216 0.040430
S7    S     S_3+6 0.289903 0.196694 0.420600 0.037258
S8    S     S_3+6 0.708621 0.802133 0.580908 0.034818
Zn1   Zn    Zn3+2 0.374720 0.508290 0.504530 1.054999
Zn2   Zn    Zn3+2 0.625280 0.491710 0.495470 1.054736

loop_
_geom_bond_atom_site_label_1
_geom_bond_atom_site_label_2
_ccdc_geom_bond_type
H16   O27   S    
O13   S3    D    
H14   O20   S    
O35   Zn1   S    
C1    C8    S    
C1    O1    A    
O7    S1    S    
C29   O36   S    
C22   N4    A    
C41   S2    S    
C1    O23   A    
C16   O34   A    
O19   S5    D    
C15   C19   A    
C36   C37   A    
C35   C37   A    
C32   N2    A    
C30   N2    A    
O18   S5    D    
H13   O17   S    
O33   Zn2   S    
C31   N1    A    
C29   N1    A    
C17   O35   A    
C3    C48   A    
C5    N2    S    
C33   C36   A    
O15   S4    D    
C18   C19   A    
O21   S6    D    
C14   C18   A    
C9    C19   A    
C48   H3    S    
C14   S6    S    
C29   C38   A    
O8    S2    D    
C31   C33   A    
O29   S8    D    
C9    H7    S    
C25   H12   S    
C10   H8    S    
O32   Zn1   S    
O11   S3    D    
C24   H18   S    
C4    H6    S    
C40   C42   A    
C21   C27   A    
C41   C43   A    
C23   H22   S    
C11   S8    S    
H10   O10   S    
C13   S7    S    
C44   C46   A    
O22   S6    D    
C39   C42   A    
C45   C47   A    
C7    C12   S    
C46   C48   A    
C33   C40   A    
C12   O12   A    
O25   S7    D    
C32   C35   A    
O20   S5    S    
C4    C6    A    
C26   H1    S    
C16   C46   S    
C20   C28   A    
C23   C44   A    
C6    C34   A    
C21   H21   S    
O17   S4    S    
C2    C4    A    
H15   O24   S    
C43   S4    S    
C32   O4    S    
C9    C11   A    
C40   S1    S    
C5    C23   A    
H9    O7    S    
C26   N3    A    
C34   C45   A    
O14   S3    S    
O16   S4    D    
C2    H4    S    
O23   Zn2   S    
O12   Zn2   S    
C20   C22   A    
O24   S6    S    
O31   Zn1   S    
H17   O30   S    
C6    N1    S    
O9    S2    D    
C8    C14   A    
O30   S8    S    
N3    Zn1   S    
C20   H20   S    
O27   S7    S    
C17   C47   S    
O6    S1    D    
C3    C5    A    
C10   C13   A    
C17   O33   A    
C12   O31   A    
C24   N3    A    
C31   O3    S    
C2    C47   A    
C25   C27   A    
C26   C28   A    
O10   S2    S    
C25   N4    A    
N4    Zn2   S    
C36   C38   A    
C38   C43   A    
C37   C39   A    
O34   Zn2   S    
C3    H5    S    
C45   H2    S    
C10   C18   A    
C8    C11   A    
C7    C15   A    
C30   C39   A    
C44   H24   S    
C35   C41   A    
C22   H19   S    
O1    Zn1   S    
C16   O32   A    
C30   O2    S    
C15   S5    S    
C42   S3    S    
C7    C13   A    
C21   C24   A    
O5    S1    D    
C27   C28   A    
C34   H23   S    
H11   O14   S    
O26   S7    D    
O28   S8    D    
