data_mof_unit_32252.cif
_audit_creation_date              2012-12-10T17:44:28-0500
_audit_creation_method            fapswitch 2.2
_symmetry_space_group_name_H-M    P1
_symmetry_Int_Tables_number       1
_space_group_crystal_system       triclinic
_cell_length_a                    9.930622
_cell_length_b                    10.672435
_cell_length_c                    15.519088
_cell_angle_alpha                 92.069503
_cell_angle_beta                  67.039092
_cell_angle_gamma                 90.018514
_cell_volume                      1513.30321779

loop_
_atom_site_label
_atom_site_type_symbol
_atom_type_description
_atom_site_fract_x
_atom_site_fract_y
_atom_site_fract_z
_atom_type_partial_charge
C1    C     C_R   0.506547 0.738306 0.488585 0.888609
C2    C     C_R   0.737723 0.508750 0.028157 0.166250
C3    C     C_R   0.597113 0.462112 0.082043 0.098075
C4    C     C_R   0.407846 0.500250 0.676090 0.829257
C5    C     C_R   0.833787 0.543762 0.071053 -0.219862
C6    C     C_R   0.788756 0.539459 0.167826 -0.115909
C7    C     C_R   0.557651 0.453358 0.178444 -0.208810
C8    C     C_R   0.296949 0.883635 0.428602 0.405929
C9    C     C_R   0.159718 0.939676 0.451010 -0.139386
C10   C     C_R   0.121152 0.048455 0.507707 -0.192946
C11   C     C_R   0.225207 0.108816 0.533382 -0.168386
C12   C     C_R   0.424164 0.462401 0.907729 0.097795
C13   C     C_R   0.368955 0.058459 0.504336 0.049288
C14   C     C_R   0.394948 0.935772 0.466526 0.009409
C15   C     C_R   0.514923 0.870458 0.472344 -0.086039
C16   C     C_R   0.495069 0.259923 0.506502 0.905783
C17   C     C_R   0.628751 0.935002 0.484836 -0.214788
C18   C     C_R   0.618317 0.062281 0.499908 -0.163193
C19   C     C_R   0.489541 0.125231 0.509685 -0.119053
C20   C     C_R   0.786558 0.665904 0.623772 -0.147125
C21   C     C_R   0.820013 0.744632 0.685889 -0.216336
C22   C     C_R   0.958280 0.740779 0.687612 -0.195840
C23   C     C_R   0.287884 0.406321 0.957824 0.149834
C24   C     C_R   0.064518 0.659205 0.626435 -0.134090
C25   C     C_R   0.034582 0.578490 0.562544 0.146668
C26   C     C_R   0.890380 0.579692 0.562108 0.082290
C27   C     C_R   0.970006 0.426532 0.437302 0.452883
C28   C     C_R   0.592014 0.498941 0.323866 0.934793
C29   C     C_R   0.110740 0.426273 0.439811 -0.149289
C30   C     C_R   0.351245 0.486120 0.777093 -0.050003
C31   C     C_R   0.649958 0.495017 0.221679 -0.049898
C32   C     C_R   0.184035 0.392519 0.917364 -0.208894
C33   C     C_R   0.217090 0.429693 0.826107 -0.217140
C34   C     C_R   0.533060 0.469017 0.945590 0.068163
C35   C     C_R   0.447212 0.510901 0.820982 -0.248631
C36   C     C_R   0.496478 0.435219 0.039382 0.053976
C37   C     C_R   0.359801 0.378021 0.087424 -0.176229
C38   C     C_R   0.258286 0.362922 0.046693 -0.187475
C39   C     C_R   0.678165 0.505786 0.892021 -0.223132
C40   C     C_R   0.778795 0.524360 0.932773 -0.233328
Cl1   Cl    Cl    0.351413 0.765274 0.338957 -0.606498
H1    H     H_    0.155601 0.317746 0.085241 0.182456
H2    H     H_    0.451176 0.421515 0.222815 0.165610
H3    H     H_    0.983950 0.802245 0.735970 0.151633
H4    H     H_    0.169224 0.662273 0.630397 0.197222
H5    H     H_    0.198634 0.369447 0.389880 0.210942
H6    H     H_    0.859270 0.576221 0.200645 0.202411
H7    H     H_    0.887570 0.555767 0.890019 0.151744
H8    H     H_    0.080145 0.348480 0.954804 0.152449
H9    H     H_    0.141110 0.410095 0.792938 0.155028
H10   H     H_    0.542435 0.565378 0.784267 0.146806
H11   H     H_    0.329220 0.340327 0.155776 0.184339
H12   H     H_    0.940752 0.580451 0.030346 0.156514
H13   H     H_    0.718298 0.519007 0.817694 0.161502
H14   H     H_    0.093800 0.196313 0.241847 0.377596
H15   H     H_    0.724396 0.887092 0.485731 0.174665
H16   H     H_    0.083160 0.899259 0.424109 0.174532
H17   H     H_    0.012782 0.089272 0.528181 0.160629
H18   H     H_    0.190404 0.192901 0.577689 0.167197
H19   H     H_    0.710817 0.110845 0.505198 0.185351
H20   H     H_    0.678997 0.677062 0.625627 0.199655
H21   H     H_    0.738031 0.809432 0.732770 0.153994
N1    N     N_R   0.856800 0.501200 0.500850 -0.182092
N2    N     N_R   0.142390 0.501280 0.500880 -0.146663
O1    O     O_R   0.385310 0.683220 0.500000 -0.605223
O2    O     O_2   0.001663 0.437232 0.260014 -0.349055
O3    O     O_3   0.094729 0.231518 0.301547 -0.609685
O4    O     O_R   0.614640 0.683250 0.500010 -0.652509
O5    O     O_R   0.319840 0.499980 0.632240 -0.646355
O6    O     O_R   0.549160 0.500000 0.632250 -0.637234
O7    O     O_R   0.385360 0.316750 0.499990 -0.634410
O8    O     O_R   0.614690 0.316780 0.500000 -0.567296
O9    O     O_R   0.450840 0.500000 0.367750 -0.582401
O10   O     O_R   0.680160 0.500020 0.367760 -0.546105
O11   O     O_2   0.823023 0.284802 0.349431 -0.281924
S1    S     S_3+6 0.965066 0.345250 0.336448 0.000545
Zn1   Zn    Zn3+2 0.346880 0.499980 0.499990 0.959552
Zn2   Zn    Zn3+2 0.653120 0.500020 0.500010 1.001856

loop_
_geom_bond_atom_site_label_1
_geom_bond_atom_site_label_2
_ccdc_geom_bond_type
C27   C29   A    
N2    Zn1   S    
O5    Zn1   S    
C16   O8    A    
C26   N1    A    
C28   O10   A    
C4    O6    A    
C12   C23   A    
C30   C35   A    
C24   H4    S    
C5    H12   S    
C36   C37   A    
C10   H17   S    
C38   H1    S    
C3    C7    A    
C5    C6    A    
C39   H13   S    
O6    Zn2   S    
C1    O4    A    
C40   H7    S    
C18   C19   A    
C20   H20   S    
O8    Zn2   S    
C22   H3    S    
C8    C9    A    
C1    O1    A    
C1    C15   S    
C7    H2    S    
C9    C10   A    
C9    H16   S    
C6    C31   A    
C29   N2    A    
C13   C14   A    
C16   O7    A    
C11   H18   S    
C28   O9    A    
C4    O5    A    
O4    Zn2   S    
O1    Zn1   S    
C6    H6    S    
C13   C19   A    
C34   C39   A    
C7    C31   A    
C8    Cl1   S    
C39   C40   A    
C37   H11   S    
C33   H9    S    
C25   N2    A    
O11   S1    D    
C37   C38   A    
O2    S1    D    
C17   C18   A    
C24   C25   A    
C12   C35   A    
C17   H15   S    
C21   H21   S    
C27   N1    A    
C18   H19   S    
C35   H10   S    
C22   C24   A    
C2    C5    A    
C12   C34   A    
C27   S1    S    
O7    Zn1   S    
C15   C17   A    
C8    C14   A    
C30   C33   A    
C28   C31   S    
H14   O3    S    
C23   C38   A    
C29   H5    S    
C23   C32   A    
C2    C3    A    
C25   C26   A    
C32   C33   A    
C11   C13   A    
C20   C26   A    
C3    C36   A    
C16   C19   S    
C34   C36   A    
C32   H8    S    
C10   C11   A    
C2    C40   A    
C20   C21   A    
O10   Zn2   S    
O9    Zn1   S    
C14   C15   A    
O3    S1    S    
C21   C22   A    
C4    C30   S    
N1    Zn2   S    
