data_mof_unit_33838.cif
_audit_creation_date              2012-12-11T15:41:18-0500
_audit_creation_method            fapswitch 2.2
_symmetry_space_group_name_H-M    P1
_symmetry_Int_Tables_number       1
_space_group_crystal_system       triclinic
_cell_length_a                    15.09171
_cell_length_b                    15.111799
_cell_length_c                    15.099956
_cell_angle_alpha                 108.925964
_cell_angle_beta                  110.094332
_cell_angle_gamma                 110.328052
_cell_volume                      2619.6306343

loop_
_atom_site_label
_atom_site_type_symbol
_atom_type_description
_atom_site_fract_x
_atom_site_fract_y
_atom_site_fract_z
_atom_type_partial_charge
C1    C     C_R   0.248046 0.060924 0.970236 -0.089602
C2    C     C_R   0.795599 0.990194 0.081305 -0.076494
C3    C     C_R   0.772843 0.324184 0.324113 0.047327
C4    C     C_R   0.132782 0.695548 0.695664 0.047480
C5    C     C_R   0.500971 0.937910 0.300181 0.124786
C6    C     C_R   0.499560 0.977161 0.676755 0.098842
C7    C     C_R   0.502161 0.300949 0.938721 0.048930
C8    C     C_R   0.499467 0.676523 0.972265 0.050044
C9    C     C_R   0.317423 0.126140 0.589350 -0.090886
C10   C     C_R   0.664706 0.803808 0.326683 -0.081473
C11   C     C_R   0.391157 0.223909 0.689222 -0.099982
C12   C     C_R   0.598897 0.716305 0.219246 -0.085870
C13   C     C_R   0.353556 0.287712 0.736704 0.089281
C14   C     C_R   0.647789 0.679182 0.163605 0.072450
C15   C     C_R   0.240875 0.252523 0.681462 -0.151421
C16   C     C_R   0.763198 0.730148 0.217336 -0.159085
C17   C     C_R   0.167311 0.154667 0.581486 -0.099704
C18   C     C_R   0.828645 0.818332 0.324359 -0.113424
C19   C     C_R   0.205515 0.091439 0.535601 -0.109793
C20   C     C_R   0.779416 0.855168 0.378967 -0.115258
C21   C     C_R   0.430550 0.485035 0.858573 -0.197624
C22   C     C_R   0.582439 0.492421 0.034877 -0.185734
C23   C     C_R   0.747708 0.222196 0.313392 -0.120843
C24   C     C_R   0.196634 0.789190 0.698558 -0.121929
C25   C     C_R   0.502686 0.580721 0.960409 0.076474
C26   C     C_R   0.507933 0.395471 0.935074 0.069473
C27   C     C_R   0.578454 0.584671 0.050285 0.029853
C28   C     C_R   0.431532 0.390009 0.844555 0.028382
C29   C     C_R   0.870975 0.526113 0.427652 -0.140795
C30   C     C_R   0.963481 0.520501 0.619044 -0.144490
C31   C     C_R   0.963958 0.619217 0.520761 -0.152145
C32   C     C_R   0.870473 0.427479 0.525892 -0.138486
C33   C     C_R   0.017067 0.613369 0.613445 0.127899
C34   C     C_R   0.832120 0.426905 0.426850 0.131097
C35   C     C_R   0.564303 0.058434 0.580319 0.321641
C36   C     C_R   0.440702 0.847844 0.395261 0.325987
C37   C     C_R   0.566099 0.044971 0.487458 -0.253212
C38   C     C_R   0.440038 0.860734 0.489729 -0.247538
C39   C     C_R   0.504434 0.941051 0.395704 -0.056842
C40   C     C_R   0.501647 0.965327 0.581128 -0.044879
C41   C     C_R   0.040482 0.948077 0.013174 -0.277425
C42   C     C_R   0.038449 0.141961 0.084837 -0.273641
C43   C     C_R   0.946591 0.943708 0.007162 0.353519
C44   C     C_R   0.133145 0.145926 0.089988 0.359341
C45   C     C_R   0.408729 0.906864 0.208663 -0.087118
C46   C     C_R   0.592290 0.040083 0.778870 -0.039466
C47   C     C_R   0.946337 0.041262 0.043629 -0.042484
C48   C     C_R   0.133103 0.048148 0.054000 -0.048100
C49   C     C_R   0.592619 0.298395 0.996487 -0.125758
C50   C     C_R   0.406599 0.684693 0.947780 -0.122618
C51   C     C_R   0.592033 0.997024 0.298826 -0.170861
C52   C     C_R   0.406635 0.950322 0.684892 -0.139119
C53   C     C_R   0.409246 0.209453 0.908048 -0.090989
C54   C     C_R   0.591901 0.779187 0.035339 -0.073334
C55   C     C_R   0.747585 0.313449 0.222109 -0.106827
C56   C     C_R   0.196425 0.698388 0.789206 -0.129307
C57   C     C_R   0.252797 0.972400 0.064739 -0.144536
C58   C     C_R   0.795325 0.079933 0.988599 -0.136670
C59   C     C_R   0.221832 0.042774 0.044510 0.153093
C60   C     C_R   0.849117 0.037033 0.037200 0.127606
H1    H     H_    0.227761 0.105673 0.931634 0.122338
H2    H     H_    0.825537 0.963430 0.137330 0.107147
H3    H     H_    0.347057 0.077253 0.553740 0.134760
H4    H     H_    0.626905 0.831685 0.369658 0.140567
H5    H     H_    0.477524 0.249900 0.729927 0.172118
H6    H     H_    0.510110 0.677170 0.179491 0.164077
H7    H     H_    0.209660 0.299773 0.716595 0.117645
H8    H     H_    0.802267 0.702210 0.175866 0.138418
H9    H     H_    0.080535 0.127562 0.539809 0.108523
H10   H     H_    0.917501 0.857903 0.365046 0.109118
H11   H     H_    0.374177 0.484991 0.790584 0.134494
H12   H     H_    0.637612 0.494153 0.105164 0.128014
H13   H     H_    0.838057 0.530389 0.354316 0.111888
H14   H     H_    0.998085 0.515074 0.691330 0.120183
H15   H     H_    0.998900 0.691657 0.515514 0.109580
H16   H     H_    0.837142 0.354018 0.530001 0.120614
H17   H     H_    0.611873 0.116912 0.485252 0.176481
H18   H     H_    0.392087 0.790023 0.492269 0.179591
H19   H     H_    0.039279 0.871976 0.981014 0.177736
H20   H     H_    0.036368 0.216559 0.112644 0.177695
H21   H     H_    0.758024 0.200624 0.376078 0.094637
H22   H     H_    0.169389 0.820845 0.646847 0.086561
H23   H     H_    0.323844 0.853426 0.181745 0.129042
H24   H     H_    0.677225 0.078330 0.799898 0.128782
H25   H     H_    0.677332 0.352748 0.023390 0.115000
H26   H     H_    0.321608 0.619611 0.904074 0.110463
H27   H     H_    0.676835 0.026331 0.355086 0.104959
H28   H     H_    0.321663 0.907007 0.620125 0.106137
H29   H     H_    0.324396 0.182397 0.854837 0.102957
H30   H     H_    0.676844 0.800738 0.070589 0.132648
H31   H     H_    0.757610 0.376099 0.200452 0.091700
H32   H     H_    0.168895 0.646476 0.820713 0.097025
H33   H     H_    0.236735 0.936147 0.112620 0.112542
H34   H     H_    0.824526 0.133761 0.959369 0.114903
H35   H     H_    0.148399 0.015596 0.458404 0.107942
H36   H     H_    0.830138 0.923194 0.461945 0.112599
N1    N     N_R   0.293810 0.002730 0.945950 -0.055129
N2    N     N_R   0.706190 0.997270 0.054050 -0.048859
N3    N     N_R   0.706160 0.152130 0.208910 -0.045647
N4    N     N_R   0.293840 0.847870 0.791090 -0.040861
N5    N     N_R   0.443140 0.945920 0.152090 -0.047265
N6    N     N_R   0.556860 0.054080 0.847910 -0.047778
N7    N     N_R   0.556830 0.208940 0.002760 -0.041165
N8    N     N_R   0.443170 0.791060 0.997240 -0.041555
N9    N     N_R   0.556790 0.002750 0.208910 -0.040153
N10   N     N_R   0.443210 0.997250 0.791090 -0.045852
N11   N     N_R   0.443180 0.152110 0.945950 -0.042797
N12   N     N_R   0.556820 0.847890 0.054050 -0.050871
N13   N     N_R   0.706170 0.208950 0.152090 -0.044928
N14   N     N_R   0.293830 0.791050 0.847910 -0.039595
N15   N     N_R   0.293800 0.945910 0.002760 -0.048752
N16   N     N_R   0.706200 0.054090 0.997240 -0.047623
Ni1   Ni    Ni4+2 0.369690 0.999990 0.869700 0.219238
Ni2   Ni    Ni4+2 0.630310 0.000010 0.130300 0.219952
Ni3   Ni    Ni4+2 0.369670 0.869670 0.000000 0.231270
Ni4   Ni    Ni4+2 0.630330 0.130330 0.000000 0.236196
Br1   Br    Br    0.641617 0.206791 0.697730 -0.617739
Br2   Br    Br    0.356656 0.703716 0.270309 -0.571171
Br3   Br    Br    0.819308 0.801327 0.939300 -0.569475
Br4   Br    Br    0.259176 0.284224 0.146229 -0.516066

loop_
_geom_bond_atom_site_label_1
_geom_bond_atom_site_label_2
_ccdc_geom_bond_type
C18   H10   S    
C23   N3    A    
N4    N14   A    
C3    C23   A    
N8    N12   A    
N3    Ni2   S    
C42   H20   S    
C46   N6    A    
C7    C26   S    
C21   H11   S    
C58   N16   A    
C35   C37   A    
C54   H30   S    
C1    C59   A    
N1    N15   A    
C2    C60   A    
N2    Ni2   S    
C29   H13   S    
C44   Br4   S    
C58   C60   A    
N3    N13   A    
C56   N14   A    
C30   H14   S    
C24   H22   S    
N11   Ni1   S    
C55   H31   S    
N13   Ni4   S    
C47   C60   S    
C4    C33   S    
C3    C55   A    
C9    C19   A    
C10   C20   A    
C32   H16   S    
C31   C33   A    
C13   C28   S    
N6    N10   A    
C16   H8    S    
C14   C27   S    
C36   Br2   S    
C18   C20   A    
C20   H36   S    
C52   N10   A    
C38   C40   A    
C57   H33   S    
C4    C56   A    
C29   C31   A    
C8    C25   S    
C41   C43   A    
C45   H23   S    
C42   C44   A    
C10   C12   A    
C22   H12   S    
N5    N9    A    
N2    N16   A    
N10   Ni1   S    
C49   H25   S    
N9    Ni2   S    
C52   H28   S    
N6    Ni4   S    
C7    C49   A    
C1    N1    A    
C38   H18   S    
C3    C34   S    
C12   H6    S    
C29   C34   A    
C23   H21   S    
C32   C34   A    
N12   Ni2   S    
C41   H19   S    
N8    Ni3   S    
C53   N11   A    
C31   H15   S    
C51   N9    A    
C15   H7    S    
C5    C45   A    
C9    C11   A    
C45   N5    A    
C46   H24   S    
C21   C28   A    
C12   C14   A    
C22   C27   A    
C13   C15   A    
C53   H29   S    
N5    Ni3   S    
C14   C16   A    
C35   Br1   S    
C7    C53   A    
C51   H27   S    
C8    C50   A    
N16   Ni4   S    
C19   H35   S    
C48   C59   S    
C15   C17   A    
C21   C25   A    
C17   H9    S    
C6    C46   A    
C30   C33   A    
C9    H3    S    
C36   C39   A    
C10   H4    S    
N4    Ni1   S    
C43   C47   A    
C1    H1    S    
C49   N7    A    
N7    N11   A    
C24   N4    A    
C54   N12   A    
C25   C27   A    
C26   C28   A    
C8    C54   A    
C5    C39   S    
C35   C40   A    
C58   H34   S    
C37   C39   A    
C44   C48   A    
C30   C32   A    
C11   C13   A    
C57   N15   A    
C37   H17   S    
C4    C24   A    
C36   C38   A    
C17   C19   A    
C41   C48   A    
N7    Ni4   S    
C6    C40   S    
C42   C47   A    
C57   C59   A    
C50   H26   S    
C2    H2    S    
C56   H32   S    
C2    N2    A    
C16   C18   A    
C22   C26   A    
C5    C51   A    
N15   Ni3   S    
C6    C52   A    
N1    Ni1   S    
N14   Ni3   S    
C55   N13   A    
C50   N8    A    
C11   H5    S    
C43   Br3   S    
