data_mof_unit_6422.cif
_audit_creation_date              2012-12-11T16:08:28-0500
_audit_creation_method            fapswitch 2.2
_symmetry_space_group_name_H-M    P1
_symmetry_Int_Tables_number       1
_space_group_crystal_system       triclinic
_cell_length_a                    7.23173
_cell_length_b                    21.636951
_cell_length_c                    23.401584
_cell_angle_alpha                 90.0
_cell_angle_beta                  89.999987
_cell_angle_gamma                 89.999948
_cell_volume                      3661.70640371

loop_
_atom_site_label
_atom_site_type_symbol
_atom_type_description
_atom_site_fract_x
_atom_site_fract_y
_atom_site_fract_z
_atom_type_partial_charge
O1    O     O_R   0.365470 0.806380 0.442440 -0.535200
O2    O     O_R   0.134530 0.193620 0.942440 -0.535200
O3    O     O_R   0.865470 0.693620 0.557560 -0.535200
O4    O     O_R   0.634530 0.306380 0.057560 -0.535200
O5    O     O_R   0.035730 0.813790 0.557160 -0.529641
O6    O     O_R   0.464270 0.186210 0.057160 -0.529642
O7    O     O_R   0.535730 0.686210 0.442840 -0.529641
O8    O     O_R   0.964270 0.313790 0.942840 -0.529641
C1    C     C_R   0.204597 0.828793 0.575682 0.701286
C2    C     C_R   0.295403 0.171206 0.075681 0.701288
C3    C     C_R   0.704597 0.671206 0.424318 0.701286
C4    C     C_R   0.795403 0.328794 0.924318 0.701288
O9    O     O_R   0.035760 0.813790 0.442850 -0.526134
O10   O     O_R   0.464240 0.186210 0.942850 -0.526134
O11   O     O_R   0.535760 0.686210 0.557150 -0.526134
O12   O     O_R   0.964240 0.313790 0.057150 -0.526134
O13   O     O_R   0.865450 0.693620 0.442430 -0.536260
O14   O     O_R   0.634550 0.306380 0.942430 -0.536260
O15   O     O_R   0.365450 0.806380 0.557570 -0.536259
O16   O     O_R   0.134550 0.193620 0.057570 -0.536261
C5    C     C_R   0.204166 0.827876 0.423490 0.705037
C6    C     C_R   0.295834 0.172124 0.923490 0.705036
C7    C     C_R   0.704166 0.672124 0.576510 0.705037
C8    C     C_R   0.795834 0.327876 0.076510 0.705037
O17   O     O_3   0.198970 0.710570 0.500000 -0.373885
O18   O     O_3   0.301030 0.289430 0.000000 -0.373885
O19   O     O_3   0.698970 0.789430 0.500000 -0.373885
O20   O     O_3   0.801030 0.210570 0.000000 -0.373886
V1    V     V_3+5 0.924120 0.757310 0.500000 1.487028
V2    V     V_3+5 0.575880 0.242690 0.000000 1.487028
V3    V     V_3+5 0.424120 0.742690 0.500000 1.487028
V4    V     V_3+5 0.075880 0.257310 0.000000 1.487028
C9    C     C_3   0.883264 0.564128 0.754799 -0.227121
C10   C     C_3   0.616737 0.435871 0.254801 -0.227119
C11   C     C_3   0.383266 0.935872 0.245201 -0.227120
C12   C     C_3   0.116737 0.064129 0.745199 -0.227121
C13   C     C_3   0.542573 0.537017 0.742776 -0.107164
C14   C     C_3   0.957428 0.462983 0.242776 -0.107166
C15   C     C_3   0.042574 0.962982 0.257223 -0.107161
C16   C     C_3   0.457428 0.037017 0.757224 -0.107167
C17   C     C_3   0.560026 0.484490 0.788553 -0.449212
C18   C     C_3   0.939976 0.515510 0.288553 -0.449208
C19   C     C_3   0.060027 0.015508 0.211445 -0.449216
C20   C     C_3   0.439976 0.984489 0.711447 -0.449207
H1    H     H_    0.511454 0.580552 0.765043 0.117941
H2    H     H_    0.988548 0.419448 0.265044 0.117942
H3    H     H_    0.011457 0.919446 0.234956 0.117943
H4    H     H_    0.488548 0.080551 0.734955 0.117945
H5    H     H_    0.506907 0.501909 0.830019 0.199948
H6    H     H_    0.993099 0.498093 0.330018 0.199950
H7    H     H_    0.006914 0.998089 0.169979 0.199946
H8    H     H_    0.493101 0.001906 0.669982 0.199952
H9    H     H_    0.469640 0.444582 0.777791 0.150742
H10   H     H_    0.030360 0.555419 0.277790 0.150746
H11   H     H_    0.969638 0.055416 0.222206 0.150736
H12   H     H_    0.530358 0.944580 0.722211 0.150751
C21   C     C_1   0.784359 0.374961 0.879342 -0.130858
C22   C     C_1   0.715641 0.625040 0.379342 -0.130860
C23   C     C_1   0.284359 0.125039 0.120658 -0.130857
C24   C     C_1   0.215641 0.874960 0.620658 -0.130862
C25   C     C_3   0.729984 0.544367 0.710043 0.156700
C26   C     C_3   0.770016 0.455631 0.210043 0.156697
C27   C     C_3   0.229984 0.955632 0.289957 0.156697
C28   C     C_3   0.270015 0.044368 0.789956 0.156697
C29   C     C_3   0.896855 0.516130 0.805596 -0.124696
C30   C     C_3   0.603149 0.483870 0.305597 -0.124698
C31   C     C_3   0.396860 0.983871 0.194405 -0.124695
C32   C     C_3   0.103151 0.016131 0.694402 -0.124700
C33   C     C_3   0.763179 0.460333 0.794418 0.210875
C34   C     C_3   0.736823 0.539667 0.294418 0.210876
C35   C     C_3   0.263179 0.039667 0.205582 0.210873
C36   C     C_3   0.236822 0.960333 0.705582 0.210879
C37   C     C_3   0.817567 0.430465 0.735497 -0.178956
C38   C     C_3   0.682430 0.569534 0.235497 -0.178953
C39   C     C_3   0.317561 0.069535 0.264504 -0.178955
C40   C     C_3   0.182427 0.930467 0.764503 -0.178953
C41   C     C_3   0.789593 0.479086 0.685554 -0.215510
C42   C     C_3   0.710405 0.520912 0.185554 -0.215509
C43   C     C_3   0.289589 0.020914 0.314447 -0.215511
C44   C     C_3   0.210404 0.979088 0.814446 -0.215507
C45   C     C_1   0.773629 0.413300 0.841431 0.076241
C46   C     C_1   0.726373 0.586701 0.341431 0.076240
C47   C     C_1   0.273629 0.086700 0.158569 0.076241
C48   C     C_1   0.226372 0.913299 0.658569 0.076240
C49   C     C_1   0.720288 0.591291 0.662764 0.036251
C50   C     C_1   0.779711 0.408708 0.162765 0.036252
C51   C     C_1   0.220288 0.908709 0.337236 0.036251
C52   C     C_1   0.279712 0.091292 0.837235 0.036252
C53   C     C_1   0.712869 0.628213 0.623525 -0.125255
C54   C     C_1   0.787131 0.371786 0.123525 -0.125252
C55   C     C_1   0.212869 0.871787 0.376475 -0.125254
C56   C     C_1   0.287131 0.128214 0.876474 -0.125253
H13   H     H_    0.927532 0.487276 0.665714 0.107266
H14   H     H_    0.572465 0.512722 0.165715 0.107266
H15   H     H_    0.427528 0.012724 0.334286 0.107265
H16   H     H_    0.072465 0.987278 0.834285 0.107267
H17   H     H_    0.015142 0.557994 0.731214 0.126975
H18   H     H_    0.484859 0.442006 0.231216 0.126976
H19   H     H_    0.515143 0.942006 0.268787 0.126979
H20   H     H_    0.984859 0.057994 0.768784 0.126978
H21   H     H_    0.040103 0.497332 0.805100 0.094645
H22   H     H_    0.459900 0.502667 0.305103 0.094654
H23   H     H_    0.540107 0.002670 0.194903 0.094632
H24   H     H_    0.959901 0.997334 0.694896 0.094664
H25   H     H_    0.729003 0.389327 0.729490 0.111270
H26   H     H_    0.770993 0.610673 0.229489 0.111266
H27   H     H_    0.228992 0.110673 0.270510 0.111276
H28   H     H_    0.270988 0.889327 0.770511 0.111261
C57   C     C_2   0.882851 0.544023 0.864931 0.320952
H29   H     H_    0.995348 0.572599 0.880597 0.059322
O21   O     O_2   0.748210 0.535780 0.895413 -0.558374
C58   C     C_2   0.617159 0.455977 0.364933 0.320952
H30   H     H_    0.504663 0.427401 0.380600 0.059320
O22   O     O_2   0.751802 0.464221 0.395413 -0.558373
C59   C     C_2   0.382866 0.955979 0.135069 0.320953
H31   H     H_    0.495370 0.927405 0.119404 0.059320
O23   O     O_2   0.248228 0.964220 0.104587 -0.558376
C60   C     C_2   0.117165 0.044024 0.635067 0.320950
H32   H     H_    0.004671 0.072601 0.619399 0.059322
O24   O     O_2   0.251808 0.035779 0.604587 -0.558372
C61   C     C_R   0.883556 0.632761 0.772607 0.099710
C62   C     C_R   0.027654 0.671446 0.753133 -0.165239
C63   C     C_R   0.044941 0.731999 0.773208 -0.076543
C64   C     C_R   0.918388 0.755109 0.812756 -0.051333
C65   C     C_R   0.771027 0.718667 0.830852 -0.144350
C66   C     C_R   0.753103 0.658110 0.811070 -0.105360
H33   H     H_    0.130240 0.654445 0.723374 0.150449
H34   H     H_    0.158632 0.760632 0.758879 0.118003
H35   H     H_    0.935675 0.800861 0.830245 0.096433
H36   H     H_    0.673396 0.736751 0.861685 0.114045
H37   H     H_    0.644274 0.630668 0.829586 0.134638
C67   C     C_R   0.616444 0.367239 0.272610 0.099710
C68   C     C_R   0.472340 0.328554 0.253138 -0.165247
C69   C     C_R   0.455051 0.268002 0.273215 -0.076518
C70   C     C_R   0.581607 0.244892 0.312761 -0.051315
C71   C     C_R   0.728974 0.281333 0.330854 -0.144357
C72   C     C_R   0.746901 0.341889 0.311072 -0.105359
H38   H     H_    0.369751 0.345556 0.223381 0.150450
H39   H     H_    0.341355 0.239370 0.258889 0.118011
H40   H     H_    0.564319 0.199140 0.330252 0.096438
H41   H     H_    0.826608 0.263249 0.361687 0.114045
H42   H     H_    0.855733 0.369330 0.329586 0.134637
C73   C     C_R   0.383557 0.867240 0.227392 0.099711
C74   C     C_R   0.527651 0.828553 0.246867 -0.165244
C75   C     C_R   0.544935 0.768001 0.226791 -0.076533
C76   C     C_R   0.418386 0.744892 0.187242 -0.051330
C77   C     C_R   0.271029 0.781335 0.169145 -0.144352
C78   C     C_R   0.253106 0.841892 0.188927 -0.105358
H43   H     H_    0.630234 0.845553 0.276627 0.150454
H44   H     H_    0.658623 0.739366 0.241121 0.118009
H45   H     H_    0.435671 0.699139 0.169753 0.096436
H46   H     H_    0.173400 0.763252 0.138310 0.114045
H47   H     H_    0.144281 0.869335 0.170411 0.134642
C79   C     C_R   0.116443 0.132762 0.727391 0.099709
C80   C     C_R   0.972338 0.171446 0.746863 -0.165242
C81   C     C_R   0.955048 0.231998 0.726786 -0.076529
C82   C     C_R   0.081603 0.255109 0.687240 -0.051321
C83   C     C_R   0.228972 0.218668 0.669147 -0.144353
C84   C     C_R   0.246899 0.158112 0.688929 -0.105360
H48   H     H_    0.869750 0.154444 0.776620 0.150453
H49   H     H_    0.841351 0.260630 0.741113 0.118006
H50   H     H_    0.064314 0.300861 0.669750 0.096435
H51   H     H_    0.326605 0.236753 0.638314 0.114044
H52   H     H_    0.355733 0.130671 0.670415 0.134635
C85   C     C_2   0.375033 0.528370 0.704964 0.326993
H53   H     H_    0.284177 0.489362 0.711059 0.050123
O25   O     O_2   0.334894 0.566470 0.668544 -0.540327
C86   C     C_2   0.124967 0.471629 0.204964 0.326991
H54   H     H_    0.215820 0.510638 0.211056 0.050129
O26   O     O_2   0.165108 0.433527 0.168545 -0.540328
C87   C     C_2   0.875032 0.971628 0.295034 0.326997
H55   H     H_    0.784174 0.010637 0.288939 0.050112
O27   O     O_2   0.834890 0.933526 0.331453 -0.540329
C88   C     C_2   0.624966 0.028371 0.795037 0.326987
H56   H     H_    0.715816 0.989360 0.788946 0.050138
O28   O     O_2   0.665109 0.066474 0.831454 -0.540330
C89   C     C_R   0.668294 0.455846 0.636010 0.134852
C90   C     C_R   0.706686 0.477070 0.580324 -0.120583
C91   C     C_R   0.593538 0.460708 0.534434 -0.095308
C92   C     C_R   0.443872 0.421109 0.542637 -0.083246
C93   C     C_R   0.405678 0.398322 0.597076 -0.122768
C94   C     C_R   0.515827 0.415585 0.643491 -0.123571
H57   H     H_    0.822355 0.507707 0.572483 0.108017
H58   H     H_    0.620890 0.479480 0.492613 0.160501
H59   H     H_    0.356727 0.408473 0.506890 0.109801
H60   H     H_    0.288429 0.368027 0.603554 0.099041
H61   H     H_    0.474914 0.398903 0.685030 0.096618
C95   C     C_R   0.831703 0.544152 0.136011 0.134851
C96   C     C_R   0.793311 0.522928 0.080325 -0.120587
C97   C     C_R   0.906459 0.539289 0.034434 -0.095306
C98   C     C_R   0.056124 0.578888 0.042637 -0.083243
C99   C     C_R   0.094317 0.601676 0.097075 -0.122770
C100  C     C_R   0.984168 0.584415 0.143490 -0.123574
H62   H     H_    0.677643 0.492290 0.072483 0.108016
H63   H     H_    0.879107 0.520516 0.992613 0.160502
H64   H     H_    0.143268 0.591524 0.006890 0.109801
H65   H     H_    0.211564 0.631972 0.103553 0.099042
H66   H     H_    0.025081 0.601097 0.185029 0.096619
C101  C     C_R   0.168287 0.044153 0.363989 0.134852
C102  C     C_R   0.206682 0.022930 0.419676 -0.120586
C103  C     C_R   0.093533 0.039292 0.465566 -0.095310
C104  C     C_R   0.943864 0.078889 0.457363 -0.083249
C105  C     C_R   0.905667 0.101675 0.402924 -0.122768
C106  C     C_R   0.015817 0.084413 0.356509 -0.123570
H67   H     H_    0.322353 0.992294 0.427518 0.108018
H68   H     H_    0.120888 0.020520 0.507387 0.160501
H69   H     H_    0.856719 0.091525 0.493109 0.109802
H70   H     H_    0.788416 0.131969 0.396445 0.099040
H71   H     H_    0.974903 0.101094 0.314969 0.096617
C107  C     C_R   0.331703 0.955848 0.863989 0.134850
C108  C     C_R   0.293313 0.977073 0.919675 -0.120587
C109  C     C_R   0.406462 0.960712 0.965565 -0.095303
C110  C     C_R   0.556125 0.921111 0.957363 -0.083243
C111  C     C_R   0.594315 0.898323 0.902925 -0.122772
C112  C     C_R   0.484166 0.915584 0.856509 -0.123580
H72   H     H_    0.177647 0.007711 0.927516 0.108015
H73   H     H_    0.379113 0.979486 0.007386 0.160503
H74   H     H_    0.643270 0.908476 0.993109 0.109801
H75   H     H_    0.711561 0.868026 0.896446 0.099042
H76   H     H_    0.525077 0.898901 0.814970 0.096622
C113  C     C_2   0.012600 0.404170 0.734005 0.271579
H77   H     H_    0.091506 0.405316 0.694631 0.051010
O29   O     O_2   0.079762 0.377812 0.775199 -0.537421
C114  C     C_2   0.487396 0.595828 0.234005 0.271575
H78   H     H_    0.408495 0.594685 0.194630 0.051009
O30   O     O_2   0.420228 0.622182 0.275201 -0.537424
C115  C     C_2   0.512591 0.095832 0.265996 0.271579
H79   H     H_    0.591504 0.094682 0.305368 0.051010
O31   O     O_2   0.579742 0.122198 0.224804 -0.537421
C116  C     C_2   0.987392 0.904174 0.765995 0.271576
H80   H     H_    0.908498 0.905312 0.805371 0.051007
O32   O     O_2   0.920214 0.877826 0.724797 -0.537425

loop_
_geom_bond_atom_site_label_1
_geom_bond_atom_site_label_2
_ccdc_geom_bond_type
O17   V3    S    
C16   C88   S    
C87   H55   S    
O1    C5    A    
C85   H53   S    
C68   C69   A    
C51   C55   T    
O19   V1    S    
O13   V1    S    
C103  C104  A    
C30   H22   S    
O3    C7    A    
C77   C78   A    
C29   H21   S    
C105  C106  A    
O15   V3    S    
C114  H78   S    
C10   C30   S    
C60   O24   D    
C58   O22   D    
C90   C91   A    
C63   H34   S    
C12   C79   S    
C70   C71   A    
C27   C43   S    
C110  C111  A    
C108  C109  A    
O7    C3    A    
C26   C50   S    
C97   C98   A    
C15   H3    S    
C81   C82   A    
C23   C47   T    
C14   C18   S    
C111  H75   S    
C57   O21   D    
C5    C55   S    
O4    C8    A    
C86   O26   D    
C31   C35   S    
C109  H73   S    
C73   C74   A    
C102  H67   S    
C38   C114  S    
O1    V3    S    
O2    V4    S    
C62   H33   S    
O3    V1    S    
C31   C59   S    
C98   H64   S    
C15   C87   S    
C32   C60   S    
C88   H56   S    
C20   C36   S    
C96   H62   S    
C1    O15   A    
C82   C83   A    
C52   C56   T    
C2    O16   A    
C67   C68   A    
C59   O23   D    
C106  H71   S    
C34   C38   S    
C103  H68   S    
C7    C53   S    
C33   C37   S    
O14   V2    S    
C44   H16   S    
C3    C22   S    
C35   C47   S    
C90   H57   S    
O8    C4    A    
C20   H8    S    
O11   C7    A    
C108  H72   S    
C101  C106  A    
C19   H7    S    
C68   H38   S    
O12   C8    A    
C60   H32   S    
C9    C61   S    
C28   C44   S    
C73   C78   A    
O10   V2    S    
C11   H19   S    
C65   H36   S    
C17   H5    S    
C58   H30   S    
C100  H66   S    
C75   C76   A    
O5    V1    S    
C70   H40   S    
C72   H42   S    
O7    V3    S    
C104  C105  A    
C9    C29   S    
C98   C99   A    
O8    V4    S    
C32   H24   S    
C39   H27   S    
C63   C64   A    
C43   C101  S    
C50   C54   T    
C25   C41   S    
C69   H39   S    
C61   C66   A    
C49   C53   T    
C111  C112  A    
C74   C75   A    
C15   C19   S    
C40   C44   S    
C67   C72   A    
C31   H23   S    
O6    V2    S    
C41   C89   S    
C91   C92   A    
C114  O30   D    
C95   C96   A    
C43   H15   S    
C93   C94   A    
C14   C86   S    
C18   C34   S    
O5    C1    A    
C74   H43   S    
C38   H26   S    
C113  H77   S    
C87   O27   D    
C20   H12   S    
C37   H25   S    
C115  H79   S    
C11   C31   S    
C32   C36   S    
C29   C57   S    
C61   C62   A    
O9    C5    A    
C36   C40   S    
C12   H20   S    
C13   C85   S    
C99   H65   S    
C116  O32   D    
C17   H9    S    
C79   C80   A    
C36   C48   S    
C25   C49   S    
C83   H51   S    
C18   H6    S    
C4    C21   S    
C97   H63   S    
C9    C25   S    
C86   H54   S    
C115  O31   D    
C95   C100  A    
C89   C90   A    
C112  H76   S    
C104  H69   S    
C83   C84   A    
C40   C116  S    
C65   C66   A    
C21   C45   T    
C42   H14   S    
C42   C95   S    
C78   H47   S    
C13   H1    S    
C10   C26   S    
C40   H28   S    
C79   C84   A    
C92   C93   A    
C44   C107  S    
C76   C77   A    
O16   V4    S    
O9    V1    S    
C96   C97   A    
C16   H4    S    
C3    O13   A    
C19   C35   S    
C27   C51   S    
C80   H48   S    
C26   C42   S    
C6    C56   S    
C75   H44   S    
C71   C72   A    
C8    C54   S    
C81   H49   S    
C13   C25   S    
C93   H60   S    
C12   C32   S    
O11   V3    S    
C69   C70   A    
C19   H11   S    
O12   V4    S    
C15   C27   S    
C105  H70   S    
C16   C28   S    
C37   C113  S    
C110  H74   S    
C99   C100  A    
C1    C24   S    
C22   C46   T    
C2    C23   S    
O20   V2    S    
C113  O29   D    
C57   H29   S    
C18   H10   S    
C35   C39   S    
C24   C48   T    
O10   C6    A    
C59   H31   S    
C30   C34   S    
C66   H37   S    
C102  C103  A    
C29   C33   S    
C82   H50   S    
C41   H13   S    
O2    C6    A    
C10   H18   S    
C71   H41   S    
C64   H35   S    
C77   H46   S    
C101  C102  A    
C94   H61   S    
C13   C17   S    
C116  H80   S    
C34   C46   S    
C88   O28   D    
C14   H2    S    
C33   C45   S    
O6    C2    A    
C107  C112  A    
C10   C67   S    
C76   H45   S    
C91   H58   S    
C16   C20   S    
C109  C110  A    
C85   O25   D    
C107  C108  A    
C38   C42   S    
C92   H59   S    
C4    O14   A    
C80   C81   A    
C37   C41   S    
C84   H52   S    
C11   C27   S    
C9    H17   S    
C30   C58   S    
C62   C63   A    
C12   C28   S    
C17   C33   S    
C39   C43   S    
C39   C115  S    
C28   C52   S    
O18   V4    S    
O4    V2    S    
C89   C94   A    
C11   C73   S    
C64   C65   A    
C14   C26   S    
