data_mof_unit_46155.cif
_audit_creation_date              2013-03-05T15:41:37-0500
_audit_creation_method            fapswitch 2.2
_symmetry_space_group_name_H-M    P1
_symmetry_Int_Tables_number       1
_space_group_crystal_system       triclinic
_cell_length_a                    8.078799
_cell_length_b                    8.78732
_cell_length_c                    15.740517
_cell_angle_alpha                 91.81898
_cell_angle_beta                  86.119999
_cell_angle_gamma                 92.243495
_cell_volume                      1113.54469587

loop_
_atom_site_label
_atom_site_type_symbol
_atom_site_description
_atom_site_fract_x
_atom_site_fract_y
_atom_site_fract_z
_atom_type_partial_charge
O1    O     O_R   0.389240 0.738570 0.505550 -0.587832
O2    O     O_R   0.678400 0.711630 0.491050 -0.568078
C1    C     C_R   0.543137 0.792457 0.497786 0.865773
O3    O     O_R   0.355360 0.513470 0.630110 -0.569161
O4    O     O_R   0.644510 0.486530 0.615610 -0.571083
C2    C     C_R   0.501758 0.498938 0.660343 0.871181
Zn1   Zn    Zn3+2 0.306930 0.517990 0.509680 1.127347
Zn2   Zn    Zn3+2 0.693070 0.482010 0.490320 1.141617
O5    O     O_R   0.321600 0.288370 0.508950 -0.581641
O6    O     O_R   0.610760 0.261430 0.494450 -0.581596
O7    O     O_R   0.355490 0.513470 0.384390 -0.664733
O8    O     O_R   0.644640 0.486530 0.369890 -0.599580
C3    C     C_R   0.456862 0.207631 0.502728 0.855526
C4    C     C_R   0.498157 0.500492 0.339770 0.857007
C5    C     C_3   0.356560 0.588067 0.952337 -0.095863
C6    C     C_3   0.679148 0.579728 0.943079 -0.062219
C7    C     C_3   0.661630 0.609672 0.047487 0.401898
C8    C     C_1   0.494760 0.502710 0.251696 0.059629
C9    C     C_3   0.512147 0.491252 0.915889 -0.280413
C10   C     C_3   0.333559 0.562273 0.054219 -0.361634
C11   C     C_3   0.507020 0.499899 0.083966 -0.232222
C12   C     C_3   0.533646 0.323407 0.052437 -0.086261
C13   C     C_3   0.504428 0.313640 0.948879 0.351602
C14   C     C_1   0.498140 0.503476 0.176454 0.192846
C15   C     C_1   0.509824 0.490546 0.823498 0.108891
C16   C     C_1   0.506083 0.494051 0.748516 0.054975
C17   C     C_2   0.565594 0.954500 0.503111 0.004331
C18   C     C_2   0.434127 0.045661 0.498871 0.010256
N1    N     N_2   0.950340 0.457950 0.477370 -0.145233
N2    N     N_2   0.049660 0.542050 0.522630 -0.019480
C19   C     C_2   0.268837 0.706223 0.102786 0.819772
H1    H     H_    0.201044 0.788661 0.070818 0.173376
O9    O     O_2   0.266442 0.721267 0.180312 -0.493231
C20   C     C_2   0.199240 0.540971 0.908200 0.571841
H2    H     H_    0.163132 0.425383 0.894797 0.151289
O10   O     O_2   0.111769 0.636944 0.882373 -0.369260
C21   C     C_2   0.192497 0.446413 0.078648 0.419687
H3    H     H_    0.139438 0.370326 0.032996 0.166624
O11   O     O_2   0.135825 0.435256 0.152415 -0.473065
N3    N     N_R   0.700863 0.278341 0.077330 0.266858
O12   O     O_R   0.734645 0.295147 0.156886 -0.309911
O13   O     O_R   0.782894 0.172031 0.036322 -0.156632
N4    N     N_R   0.729554 0.012354 0.519691 0.245779
O14   O     O_R   0.850173 0.998672 0.461243 -0.227161
O15   O     O_R   0.761757 0.060432 0.596083 -0.258836
N5    N     N_R   0.269583 0.987814 0.483671 0.238791
O16   O     O_R   0.152670 0.994675 0.544519 -0.222457
O17   O     O_R   0.232673 0.947059 0.406828 -0.288583
C22   C     C_2   0.015356 0.416997 0.394679 0.707570
H4    H     H_    0.070889 0.503401 0.352923 0.081606
O18   O     O_2   0.998548 0.285882 0.367841 -0.469128
N6    N     N_R   0.980618 0.581686 0.602729 0.334236
O19   O     O_R   0.009347 0.500031 0.667128 -0.253642
O20   O     O_R   0.920730 0.716065 0.616530 -0.273630
N7    N     N_R   0.386426 0.750974 0.926749 0.208342
O21   O     O_R   0.375432 0.787923 0.847619 -0.295972
O22   O     O_R   0.414762 0.862498 0.979740 -0.295743
N8    N     N_R   0.816825 0.482672 0.911021 0.239285
O23   O     O_R   0.861802 0.478169 0.829798 -0.273017
O24   O     O_R   0.892531 0.396049 0.959085 -0.361163
C23   C     C_2   0.721898 0.726934 0.893590 0.721904
H5    H     H_    0.656367 0.755320 0.839366 0.095454
O25   O     O_2   0.850415 0.801295 0.903048 -0.357870
N9    N     N_R   0.630862 0.770301 0.075745 0.225316
O26   O     O_R   0.580765 0.797961 0.154798 -0.298238
O27   O     O_R   0.723652 0.879488 0.042762 -0.184247
N10   N     N_R   0.820577 0.583318 0.083915 0.261327
O28   O     O_R   0.826691 0.576654 0.166114 -0.282490
O29   O     O_R   0.949561 0.647452 0.044430 -0.379060
N11   N     N_R   0.343860 0.238737 0.925380 0.146362
O30   O     O_R   0.253690 0.148901 0.975248 -0.291268
O31   O     O_R   0.320608 0.220187 0.844458 -0.298943
N12   N     N_R   0.627789 0.214382 0.902068 0.310018
O32   O     O_R   0.621223 0.071351 0.920702 -0.193292
O33   O     O_R   0.680066 0.240276 0.823794 -0.258466
C24   C     C_2   0.421519 0.211159 0.105037 0.591802
H6    H     H_    0.336351 0.247095 0.156714 0.083777
O34   O     O_2   0.440397 0.074556 0.096929 -0.391563

loop_
_geom_bond_atom_site_label_1
_geom_bond_atom_site_label_2
_geom_bond_distance
_ccdc_geom_bond_type
O4    Zn2   1.984014 S    
C9    C13   1.657984 S    
N7    O21   1.306742 A    
C19   O9    1.222188 D    
C3    C18   1.427831 S    
Zn1   O5    2.025472 S    
N11   O30   1.298820 A    
N1    N2    1.301926 D    
N4    O15   1.301360 A    
N12   O32   1.297929 A    
C4    C8    1.389223 S    
C5    C20   1.526211 S    
C19   H1    1.081407 S    
C12   C24   1.536027 S    
Zn2   O8    1.963274 S    
C12   N3    1.502888 S    
N9    O26   1.300614 A    
C22   H4    1.083907 S    
C22   O18   1.220225 D    
C1    C17   1.428908 S    
O2    C1    1.322927 A    
N8    O23   1.305060 A    
C21   O11   1.224419 D    
Zn1   N2    2.092956 S    
C6    N8    1.479907 S    
C11   C12   1.631146 S    
N6    O19   1.298957 A    
C5    C9    1.608716 S    
C10   C21   1.535518 S    
N12   O33   1.299221 A    
C13   N11   1.495124 S    
C18   N5    1.437058 S    
C2    C16   1.392748 S    
C13   N12   1.491571 S    
O3    Zn1   1.963275 S    
C8    C14   1.183044 T    
O4    C2    1.316344 A    
N3    O13   1.296470 A    
N3    O12   1.302216 A    
C21   H3    1.065786 S    
N6    O20   1.299947 A    
Zn1   O7    1.984014 S    
C20   O10   1.217853 D    
C24   H6    1.076915 S    
N7    O22   1.290315 A    
N4    O14   1.300479 A    
C6    C9    1.607106 S    
C23   H5    1.075168 S    
C9    C15   1.455488 S    
O7    C4    1.315438 A    
N5    O17   1.301204 A    
C7    N10   1.470606 S    
N11   O31   1.304261 A    
C6    C23   1.546590 S    
Zn2   N1    2.092956 S    
N8    O24   1.288984 A    
N10   O28   1.301388 A    
C17   N4    1.437620 S    
O8    C4    1.315785 A    
O5    C3    1.322447 A    
C10   C11   1.627478 S    
O3    C2    1.316611 A    
C20   H2    1.064335 S    
C11   C14   1.452110 S    
O2    Zn2   2.025473 S    
C17   C18   1.361546 D    
C23   O25   1.220148 D    
N2    N6    1.383552 S    
C12   C13   1.661858 S    
C6    C7    1.653519 S    
O1    Zn1   2.026000 S    
N1    C22   1.411419 S    
C7    N9    1.491514 S    
O1    C1    1.312238 A    
C15   C16   1.184090 T    
N5    O16   1.300559 A    
O6    C3    1.312351 A    
Zn2   O6    2.026000 S    
C7    C11   1.632213 S    
N9    O27   1.294089 A    
C24   O34   1.217547 D    
C5    C10   1.623920 S    
N10   O29   1.295500 A    
C10   C19   1.547314 S    
C5    N7    1.505353 S    
