data_mof_unit_8856.cif
_audit_creation_date              2012-10-26T21:01:02-0400
_audit_creation_method            fapswitch 2.2
_symmetry_space_group_name_H-M    P1
_symmetry_Int_Tables_number       1
_space_group_crystal_system       triclinic
_cell_length_a                    10.900336
_cell_length_b                    10.859275
_cell_length_c                    9.566786
_cell_angle_alpha                 90.01796
_cell_angle_beta                  89.069642
_cell_angle_gamma                 90.660712
_cell_volume                      1132.19345238

loop_
_atom_site_label
_atom_site_type_symbol
_atom_type_description
_atom_site_fract_x
_atom_site_fract_y
_atom_site_fract_z
_atom_type_partial_charge
C1    C     C_R   0.499085 0.262641 0.499837 0.546335
C2    C     C_R   0.439814 0.410911 0.075523 -0.012004
C3    C     C_R   0.440102 0.410709 0.926767 -0.009191
C4    C     C_R   0.265270 0.495626 0.501221 0.552354
C5    C     C_R   0.548540 0.597247 0.924955 0.106967
C6    C     C_3   0.675885 0.646504 0.912119 -0.235918
C7    C     C_3   0.679952 0.645790 0.071242 0.138157
C8    C     C_R   0.496620 0.737664 0.499630 0.567111
C9    C     C_R   0.734643 0.499675 0.499345 0.551933
C10   C     C_2   0.933283 0.451583 0.397652 -0.159758
C11   C     C_2   0.866889 0.503948 0.499759 -0.111754
C12   C     C_R   0.502222 0.129707 0.497491 -0.031977
C13   C     C_2   0.067558 0.460598 0.392567 -0.171424
C14   C     C_2   0.133019 0.483482 0.507040 -0.115354
C15   C     C_R   0.536805 0.064061 0.614906 0.013320
C16   C     C_3   0.883117 0.615749 0.118833 -0.129152
C17   C     C_3   0.467538 0.916106 0.131051 -0.128940
C18   C     C_R   0.472181 0.065905 0.375111 -0.148374
C19   C     C_R   0.469056 0.936382 0.372709 0.248313
C20   C     C_R   0.497132 0.871591 0.496622 0.018069
C21   C     C_R   0.534698 0.937065 0.614394 -0.027842
C22   C     C_3   0.483657 0.931962 0.760254 -0.272671
C23   C     C_3   0.486203 0.071276 0.760485 -0.266151
C24   C     C_R   0.550672 0.596305 0.071755 0.197919
Cu1   Cu    Cu3+1 0.499990 0.499980 0.640670 0.935806
Cu2   Cu    Cu3+1 0.500010 0.500020 0.359330 1.007111
H1    H     H_    0.887948 0.404943 0.311954 0.174128
H2    H     H_    0.090398 0.487792 0.610037 0.102294
H3    H     H_    0.443050 0.117014 0.284737 0.124262
H4    H     H_    0.389435 0.891691 0.766388 0.143100
H5    H     H_    0.549618 0.892898 0.834286 0.119373
H6    H     H_    0.393212 0.112274 0.765859 0.131688
H7    H     H_    0.892946 0.676282 0.211787 0.134920
H8    H     H_    0.903579 0.669264 0.021707 0.096230
H9    H     H_    0.953211 0.542884 0.123452 0.134253
H10   H     H_    0.455054 0.842441 0.052343 0.126991
H11   H     H_    0.567421 0.938636 0.134587 0.094542
H12   H     H_    0.553522 0.111187 0.834434 0.137174
H13   H     H_    0.414581 0.996547 0.095099 0.113541
H14   H     H_    0.392791 0.337571 0.131884 0.101682
H15   H     H_    0.393378 0.337179 0.872170 0.107573
H16   H     H_    0.739442 0.579985 0.861630 0.178942
H17   H     H_    0.681002 0.740350 0.867159 0.069042
H18   H     H_    0.685802 0.738609 0.120728 0.090313
H19   H     H_    0.908472 0.552066 0.586483 0.091064
H20   H     H_    0.113052 0.446262 0.292099 0.140962
N1    N     N_R   0.500780 0.500930 0.147930 -0.209194
N2    N     N_R   0.500780 0.500890 0.852020 -0.229395
O1    O     O_R   0.500000 0.319640 0.618810 -0.504318
O2    O     O_3   0.420533 0.872086 0.260119 -0.543790
O3    O     O_R   0.500010 0.319680 0.381230 -0.520795
O4    O     O_R   0.321940 0.499980 0.618760 -0.507885
O5    O     O_R   0.321950 0.500020 0.381180 -0.499865
O6    O     O_R   0.499990 0.680320 0.618770 -0.513947
O7    O     O_R   0.500000 0.680360 0.381190 -0.453225
O8    O     O_R   0.678050 0.499980 0.618820 -0.513087
O9    O     O_R   0.678060 0.500020 0.381240 -0.443202
O10   O     O_3   0.765435 0.559699 0.119467 -0.536257

loop_
_geom_bond_atom_site_label_1
_geom_bond_atom_site_label_2
_ccdc_geom_bond_type
C17   O2    S    
C10   H1    S    
Cu1   O8    S    
C6    C7    S    
C17   H10   S    
C4    O5    A    
C23   H12   S    
C9    C11   S    
C7    O10   S    
C19   C20   A    
Cu1   N2    S    
C12   C15   A    
C16   H8    S    
C10   C11   D    
Cu2   O7    S    
C15   C23   S    
C2    C3    A    
Cu1   O4    S    
C18   H3    S    
C16   O10   S    
C13   C14   D    
Cu1   O6    S    
C1    O3    A    
C19   O2    S    
C8    C20   S    
C5    C24   A    
Cu2   N1    S    
C4    O4    A    
C8    O7    A    
C21   C22   S    
C5    N2    A    
C18   C19   A    
C9    O9    A    
C6    H17   S    
C22   C23   S    
C16   H9    S    
C4    C14   S    
C5    C6    S    
C2    N1    A    
Cu2   O9    S    
Cu1   O1    S    
C11   H19   S    
C22   H5    S    
C12   C18   A    
C7    C24   S    
Cu2   O5    S    
C2    H14   S    
C3    N2    A    
C15   C21   A    
C20   C21   A    
C16   H7    S    
C6    H16   S    
C8    O6    A    
C9    O8    A    
C17   H13   S    
C13   H20   S    
C3    H15   S    
C17   H11   S    
C22   H4    S    
C14   H2    S    
Cu1   Cu2   S    
Cu2   O3    S    
C24   N1    A    
C1    O1    A    
C7    H18   S    
C1    C12   S    
C23   H6    S    
C10   C13   S    
