data_mof_unit_56995.cif
_audit_creation_date              2012-12-10T19:05:54-0500
_audit_creation_method            fapswitch 2.2
_symmetry_space_group_name_H-M    P1
_symmetry_Int_Tables_number       1
_space_group_crystal_system       triclinic
_cell_length_a                    19.392059
_cell_length_b                    10.824852
_cell_length_c                    9.529469
_cell_angle_alpha                 89.773376
_cell_angle_beta                  89.55249
_cell_angle_gamma                 90.196167
_cell_volume                      2000.30102129

loop_
_atom_site_label
_atom_site_type_symbol
_atom_type_description
_atom_site_fract_x
_atom_site_fract_y
_atom_site_fract_z
_atom_type_partial_charge
C1    C     C_R   0.501097 0.262354 0.500247 0.793270
C2    C     C_R   0.291673 0.499007 0.503667 -0.101355
C3    C     C_R   0.930226 0.494861 0.511960 0.460588
C4    C     C_R   0.070182 0.496649 0.512044 0.418494
C5    C     C_R   0.815190 0.488679 0.636432 0.472712
C6    C     C_R   0.742948 0.487863 0.629272 -0.377431
C7    C     C_R   0.708857 0.497132 0.500110 -0.184168
C8    C     C_R   0.748136 0.501721 0.374867 0.500376
C9    C     C_R   0.820133 0.502516 0.381879 -0.323757
C10   C     C_R   0.854137 0.494706 0.510937 -0.087132
C11   C     C_R   0.499850 0.063350 0.626291 0.136082
C12   C     C_R   0.367485 0.499874 0.500724 0.813518
C13   C     C_R   0.507380 0.129415 0.501099 -0.094961
C14   C     C_R   0.523721 0.065340 0.377395 -0.218990
C15   C     C_R   0.523447 0.936601 0.377286 -0.210937
C16   C     C_R   0.506830 0.871101 0.500636 -0.095578
C17   C     C_R   0.499503 0.936109 0.626114 0.114973
C18   C     C_3   0.443203 0.929672 0.734011 -0.461704
C19   C     C_3   0.443843 0.069867 0.734415 -0.471728
C20   C     C_R   0.555558 0.544256 0.072436 0.296633
C21   C     C_R   0.448479 0.444484 0.075509 -0.087750
C22   C     C_R   0.448416 0.444648 0.926540 -0.084142
C23   C     C_R   0.500915 0.737797 0.499891 0.803095
C24   C     C_R   0.555851 0.543164 0.924995 0.243152
C25   C     C_3   0.585997 0.669612 0.916102 -0.515335
C26   C     C_3   0.584073 0.672338 0.075223 -0.491337
C27   C     C_R   0.632673 0.499355 0.499481 0.838599
C28   C     C_R   0.256335 0.506561 0.632309 -0.272715
C29   C     C_R   0.184251 0.503272 0.637864 0.513944
C30   C     C_R   0.146418 0.496820 0.511777 -0.040817
C31   C     C_R   0.182282 0.489166 0.383210 -0.226916
C32   C     C_R   0.254092 0.490083 0.379185 -0.190666
Cu1   Cu    Cu3+1 0.500000 0.499980 0.640670 0.936776
Cu2   Cu    Cu3+1 0.500000 0.500020 0.359330 0.952467
H1    H     H_    0.284444 0.514912 0.729637 0.164156
H2    H     H_    0.533458 0.889263 0.279867 0.154821
H3    H     H_    0.394664 0.889491 0.692342 0.202332
H4    H     H_    0.460856 0.888993 0.834665 0.194598
H5    H     H_    0.395626 0.111396 0.693269 0.193686
H6    H     H_    0.462376 0.109648 0.834738 0.198565
H7    H     H_    0.406250 0.401180 0.132030 0.139769
H8    H     H_    0.406118 0.401619 0.871647 0.135966
H9    H     H_    0.639234 0.668824 0.871954 0.190783
H10   H     H_    0.550812 0.737653 0.867184 0.219722
H11   H     H_    0.636085 0.677062 0.122774 0.240116
H12   H     H_    0.546233 0.739754 0.116601 0.198467
H13   H     H_    0.154845 0.483448 0.284888 0.176011
H14   H     H_    0.280110 0.484045 0.278463 0.158838
H15   H     H_    0.713360 0.477905 0.725423 0.173755
H16   H     H_    0.849501 0.510716 0.285242 0.179162
H17   H     H_    0.533810 0.114077 0.279838 0.163432
N1    N     N_R   0.035023 0.462682 0.395705 -0.252315
N2    N     N_R   0.966446 0.461896 0.395621 -0.251805
N3    N     N_R   0.965341 0.529903 0.627732 -0.183759
N4    N     N_R   0.033876 0.530733 0.627746 -0.169682
N5    N     N_R   0.500440 0.500930 0.147930 -0.190135
N6    N     N_R   0.500440 0.500890 0.852020 -0.182114
O1    O     O_R   0.500000 0.319640 0.618810 -0.578939
O2    O     O_R   0.500010 0.319680 0.381230 -0.589563
O3    O     O_R   0.400140 0.499970 0.618830 -0.590068
O4    O     O_R   0.400150 0.500010 0.381250 -0.586235
O5    O     O_R   0.499990 0.680320 0.618770 -0.579255
O6    O     O_R   0.500000 0.680360 0.381190 -0.582451
O7    O     O_R   0.599850 0.499990 0.618750 -0.591732
O8    O     O_R   0.599860 0.500030 0.381170 -0.535982
O9    O     O_3   0.151250 0.513027 0.766470 -0.565659
C33   C     C_3   0.152770 0.396849 0.833835 -0.297785
H18   H     H_    0.127952 0.324213 0.768711 0.163160
H19   H     H_    0.123078 0.403187 0.933513 0.201931
H20   H     H_    0.206380 0.369735 0.860671 0.141401
O10   O     O_3   0.848158 0.470877 0.763607 -0.565462
C34   C     C_3   0.830503 0.565789 0.858755 0.061259
H21   H     H_    0.779036 0.547442 0.906744 0.146412
H22   H     H_    0.830479 0.658518 0.807158 0.139808
C35   C     C_3   0.883237 0.568600 0.976001 -0.711761
H23   H     H_    0.935166 0.590347 0.932371 0.266103
H24   H     H_    0.868935 0.640452 0.053721 0.197746
H25   H     H_    0.884936 0.477410 0.029629 0.242950
O11   O     O_3   0.716681 0.514696 0.245962 -0.586952
C36   C     C_3   0.719979 0.400993 0.174492 -0.314503
H26   H     H_    0.691847 0.410287 0.074112 0.173525
H27   H     H_    0.694575 0.325747 0.236177 0.164110
H28   H     H_    0.774086 0.375690 0.148272 0.166312

loop_
_geom_bond_atom_site_label_1
_geom_bond_atom_site_label_2
_ccdc_geom_bond_type
Cu2   N5    S    
Cu1   O1    S    
C11   C13   A    
C20   N5    A    
C2    C12   S    
C25   H9    S    
C22   N6    A    
C7    C8    A    
C22   H8    S    
C11   C19   S    
C4    N1    A    
C28   C29   A    
C18   H3    S    
Cu1   O5    S    
C1    O2    A    
C30   C31   A    
C3    N3    A    
C16   C17   A    
C15   C16   A    
C7    C27   S    
Cu2   O8    S    
C2    C32   A    
C18   C19   S    
C26   H11   S    
C23   O5    A    
C14   H17   S    
C28   H1    S    
C8    C9    A    
C8    O11   S    
C9    C10   A    
C23   O6    A    
O9    C33   S    
C31   H13   S    
C13   C14   A    
C32   H14   S    
C34   C35   S    
C25   H10   S    
Cu1   Cu2   S    
C33   H18   S    
C20   C24   A    
C24   C25   S    
C34   H22   S    
C27   O7    A    
C34   H21   S    
C25   C26   S    
Cu2   O4    S    
O11   C36   S    
C33   H19   S    
C35   H23   S    
C29   C30   A    
C27   O8    A    
C31   C32   A    
C17   C18   S    
C35   H24   S    
C19   H5    S    
C21   H7    S    
C36   H27   S    
Cu1   O3    S    
C4    N4    A    
Cu2   O2    S    
C1    C13   S    
C15   H2    S    
N1    N2    A    
C36   H28   S    
C24   N6    A    
N3    N4    A    
C11   C17   A    
Cu1   N6    S    
C9    H16   S    
C36   H26   S    
C21   N5    A    
C6    C7    A    
C16   C23   S    
C33   H20   S    
C18   H4    S    
C5    C10   A    
C5    O10   S    
C3    C10   S    
C1    O1    A    
C12   O4    A    
C3    N2    A    
C5    C6    A    
C20   C26   S    
Cu1   O7    S    
Cu2   O6    S    
C6    H15   S    
C35   H25   S    
C19   H6    S    
C26   H12   S    
C29   O9    S    
C12   O3    A    
O10   C34   S    
C14   C15   A    
C2    C28   A    
C21   C22   A    
C4    C30   S    
