data_mof_unit_63508.cif
_audit_creation_date              2012-12-10T17:57:51-0500
_audit_creation_method            fapswitch 2.2
_symmetry_space_group_name_H-M    P1
_symmetry_Int_Tables_number       1
_space_group_crystal_system       triclinic
_cell_length_a                    18.682738
_cell_length_b                    18.865835
_cell_length_c                    18.997349
_cell_angle_alpha                 109.890475
_cell_angle_beta                  109.544655
_cell_angle_gamma                 109.189267
_cell_volume                      5140.91974447

loop_
_atom_site_label
_atom_site_type_symbol
_atom_type_description
_atom_site_fract_x
_atom_site_fract_y
_atom_site_fract_z
_atom_type_partial_charge
C1    C     C_R   0.382365 0.381322 0.501107 0.824696
C2    C     C_3   0.806632 0.498235 0.811214 -0.032750
C3    C     C_3   0.844597 0.582416 0.803350 -0.091840
C4    C     C_3   0.731826 0.498230 0.832991 -0.100101
C5    C     C_R   0.267029 0.230000 0.436570 0.043470
C6    C     C_R   0.318400 0.315445 0.504160 -0.107512
C7    C     C_R   0.305070 0.336028 0.575888 -0.207041
C8    C     C_R   0.240302 0.271398 0.576877 0.158641
C9    C     C_R   0.186722 0.186198 0.503791 -0.054986
C10   C     C_R   0.202909 0.169026 0.435597 -0.030751
C11   C     C_3   0.174144 0.100047 0.347909 -0.142493
C12   C     C_R   0.617217 0.497558 0.619079 0.884783
C13   C     C_3   0.247468 0.170358 0.348809 0.229382
C14   C     C_R   0.257986 0.431180 0.231818 0.013380
C15   C     C_R   0.315329 0.502621 0.314754 -0.084754
C16   C     C_R   0.306573 0.577557 0.332745 -0.169295
C17   C     C_R   0.241789 0.578698 0.267868 0.155837
C18   C     C_R   0.184294 0.503175 0.184599 -0.088334
C19   C     C_R   0.194647 0.431092 0.170439 -0.044511
C20   C     C_3   0.161358 0.339460 0.104531 0.302806
C21   C     C_3   0.233419 0.339721 0.175181 -0.382335
C22   C     C_R   0.771584 0.709703 0.544030 0.037098
C23   C     C_R   0.618587 0.618759 0.500018 0.859134
C24   C     C_R   0.683748 0.686373 0.499876 -0.172114
C25   C     C_R   0.662022 0.737546 0.466815 0.370117
C26   C     C_R   0.726904 0.803293 0.468416 -0.210815
C27   C     C_R   0.813648 0.819414 0.504457 -0.137054
C28   C     C_R   0.835447 0.775557 0.546674 0.099010
C29   C     C_3   0.886081 0.729498 0.538129 -0.450634
C30   C     C_3   0.814736 0.655586 0.532523 -0.035450
C31   C     C_R   0.996474 0.381262 0.877549 0.815202
C32   C     C_R   0.877511 0.502490 0.881286 0.856036
C33   C     C_R   0.997358 0.618908 0.115675 0.794580
C34   C     C_R   0.380939 0.500506 0.380752 0.824104
C35   C     C_R   0.116849 0.500329 0.116334 0.794832
C36   C     C_R   0.999777 0.118984 0.617907 0.874056
C37   C     C_R   0.118930 0.118398 0.500495 0.858773
C38   C     C_R   0.001213 0.882097 0.381609 0.843772
C39   C     C_R   0.880762 0.882140 0.500595 0.846662
C40   C     C_R   0.989232 0.239957 0.810990 -0.070523
C41   C     C_R   0.997456 0.315797 0.810075 -0.082105
C42   C     C_R   0.017007 0.331777 0.749110 0.078455
C43   C     C_R   0.018348 0.267134 0.685198 0.328786
C44   C     C_R   0.003065 0.188477 0.684375 -0.170183
C45   C     C_3   0.703852 0.417724 0.646444 0.430605
C46   C     C_R   0.995255 0.179097 0.751396 0.016719
C47   C     C_3   0.928957 0.104814 0.747634 -0.089385
C48   C     C_3   0.921163 0.172054 0.812818 0.211653
C49   C     C_R   0.021989 0.693016 0.262559 -0.016007
C50   C     C_R   0.999747 0.687347 0.182448 -0.123689
C51   C     C_R   0.986760 0.752712 0.169884 0.150127
C52   C     C_R   0.987626 0.817602 0.234683 0.170076
C53   C     C_R   0.003707 0.818585 0.313769 -0.122861
C54   C     C_R   0.022026 0.756433 0.326306 0.031025
C55   C     C_3   0.977605 0.692938 0.349011 0.204384
C56   C     C_3   0.768762 0.413129 0.722588 0.203300
C57   C     C_3   0.981765 0.624788 0.281790 -0.432477
C58   C     C_3   0.770248 0.583133 0.736482 -0.552021
C59   C     C_3   0.655749 0.491479 0.757610 0.429757
C60   C     C_3   0.684028 0.495185 0.687443 -0.109205
Cu1   Cu    Cu3+1 0.500370 0.438220 0.438550 1.066538
Cu2   Cu    Cu3+1 0.499630 0.561780 0.561450 1.054873
Cu3   Cu    Cu3+1 0.935500 0.438280 0.997350 1.022473
Cu4   Cu    Cu3+1 0.059110 0.561800 0.997270 0.999803
Cu5   Cu    Cu3+1 0.062130 0.000020 0.562160 0.992495
Cu6   Cu    Cu3+1 0.937870 0.000080 0.437940 1.039651
H1    H     H_    0.765209 0.563921 0.890442 0.193137
H2    H     H_    0.761368 0.638601 0.767570 0.254987
H3    H     H_    0.345039 0.401629 0.631023 0.179166
H4    H     H_    0.106824 0.078055 0.298720 0.153331
H5    H     H_    0.222083 0.189924 0.301167 0.083046
H6    H     H_    0.350199 0.635065 0.396549 0.184251
H7    H     H_    0.208285 0.296268 0.198930 0.173512
H8    H     H_    0.286184 0.336414 0.161882 0.199884
H9    H     H_    0.708905 0.839595 0.439283 0.202352
H10   H     H_    0.888136 0.711588 0.477340 0.236436
H11   H     H_    0.951233 0.764429 0.597506 0.197005
H12   H     H_    0.774798 0.594226 0.468714 0.197899
H13   H     H_    0.869215 0.059363 0.682393 0.197242
H14   H     H_    0.944045 0.177136 0.877297 0.128303
H15   H     H_    0.018071 0.709619 0.416505 0.116039
H16   H     H_    0.028753 0.605272 0.310725 0.157419
H17   H     H_    0.916792 0.569562 0.226149 0.249374
H18   H     H_    0.788753 0.596980 0.691399 0.188391
H19   H     H_    0.891282 0.581803 0.779899 0.174368
O1    O     O_R   0.410140 0.357660 0.448100 -0.532460
O2    O     O_R   0.049970 0.462000 0.907620 -0.571697
O3    O     O_R   0.854460 0.447890 0.906680 -0.526533
O4    O     O_R   0.958840 0.552200 0.906620 -0.591441
O5    O     O_R   0.944630 0.538080 0.087010 -0.581399
O6    O     O_R   0.049020 0.642390 0.086940 -0.586368
O7    O     O_R   0.035760 0.447880 0.088010 -0.608254
O8    O     O_R   0.140150 0.552190 0.087940 -0.553333
O9    O     O_R   0.051980 0.090160 0.642200 -0.578821
O10   O     O_R   0.947040 0.090210 0.537310 -0.543933
O11   O     O_R   0.142640 0.090190 0.552500 -0.597143
O12   O     O_R   0.409510 0.462000 0.551890 -0.590481
O13   O     O_R   0.037710 0.090250 0.447610 -0.569340
O14   O     O_R   0.052960 0.909890 0.462790 -0.588495
O15   O     O_R   0.948020 0.909940 0.357900 -0.595534
O16   O     O_R   0.962290 0.909850 0.552490 -0.582357
O17   O     O_R   0.857360 0.909910 0.447600 -0.580501
O18   O     O_R   0.590970 0.447830 0.538770 -0.570460
O19   O     O_R   0.590340 0.552170 0.642560 -0.531492
O20   O     O_R   0.590490 0.538000 0.448110 -0.589092
O21   O     O_R   0.589860 0.642340 0.551900 -0.562623
O22   O     O_R   0.409660 0.447830 0.357440 -0.585880
O23   O     O_R   0.409030 0.552170 0.461230 -0.587175
O24   O     O_R   0.945590 0.357690 0.907690 -0.551260
N1    N     N_3   0.745078 0.431978 0.594286 -0.514253
H20   H     H_    0.804037 0.490227 0.628420 0.195465
H21   H     H_    0.704210 0.427059 0.537701 0.274511
N2    N     N_3   0.894692 0.663783 0.887295 -0.582546
H22   H     H_    0.934456 0.713379 0.881989 0.237991
H23   H     H_    0.853221 0.683104 0.903172 0.255860
N3    N     N_3   0.227651 0.292292 0.650287 -0.530070
H24   H     H_    0.249045 0.260754 0.681067 0.223889
H25   H     H_    0.267284 0.358964 0.695192 0.233267
N4    N     N_3   0.187469 0.028353 0.350290 -0.571609
H26   H     H_    0.184534 0.992599 0.292564 0.273373
H27   H     H_    0.249203 0.052054 0.401741 0.289834
Cl1   Cl    Cl    0.337778 0.154469 0.352567 -0.521215
Cl2   Cl    Cl    0.603579 0.313706 0.569183 -0.556769
N5    N     N_3   0.233582 0.655176 0.286391 -0.546603
H28   H     H_    0.173650 0.640310 0.284491 0.196638
H29   H     H_    0.282391 0.705613 0.349357 0.234497
N6    N     N_3   0.072045 0.278070 0.077932 -0.553515
H30   H     H_    0.028612 0.291079 0.040256 0.228983
H31   H     H_    0.065305 0.288818 0.132574 0.217094
N7    N     N_3   0.173574 0.331687 0.030483 -0.550869
H32   H     H_    0.237772 0.377407 0.052585 0.225440
H33   H     H_    0.132486 0.348073 0.994876 0.196828
Cl3   Cl    Cl    0.553463 0.716849 0.417593 -0.604976
N8    N     N_3   0.725184 0.334676 0.726848 -0.505888
H34   H     H_    0.721307 0.281235 0.680807 0.296927
H35   H     H_    0.661059 0.315985 0.711674 0.234946
N9    N     N_3   0.846556 0.641970 0.605502 -0.624300
H36   H     H_    0.884331 0.701393 0.663962 0.236069
H37   H     H_    0.887635 0.616561 0.599749 0.234093
N10   N     N_3   0.031255 0.411527 0.749682 -0.561442
H38   H     H_    0.984867 0.396670 0.689619 0.264169
H39   H     H_    0.093617 0.442855 0.757965 0.260021
Cl4   Cl    Cl    0.037752 0.284986 0.606159 -0.599014
N11   N     N_3   0.967986 0.060206 0.782701 -0.571216
H40   H     H_    0.023493 0.105121 0.844199 0.245732
H41   H     H_    0.922186 0.018417 0.790367 0.237105
Cl5   Cl    Cl    0.815719 0.163012 0.766456 -0.568688
N12   N     N_3   0.964260 0.749828 0.088677 -0.538536
H42   H     H_    0.910099 0.688627 0.039977 0.215395
H43   H     H_    0.017062 0.758162 0.078085 0.251626
N13   N     N_3   0.967446 0.878495 0.216095 -0.537848
H44   H     H_    0.013106 0.941280 0.268384 0.229808
H45   H     H_    0.904883 0.864300 0.206679 0.255800
N14   N     N_3   0.840505 0.407366 0.707932 -0.539132
H46   H     H_    0.889237 0.465951 0.723110 0.202513
H47   H     H_    0.872072 0.386823 0.746645 0.237412
Cl6   Cl    Cl    0.866900 0.668612 0.317626 -0.639174
Cl7   Cl    Cl    0.643243 0.583800 0.809586 -0.619809
N15   N     N_3   0.568740 0.415270 0.716369 -0.560952
H48   H     H_    0.547931 0.418027 0.761484 0.244653
H49   H     H_    0.567665 0.356674 0.691667 0.229082
N16   N     N_3   0.703140 0.440116 0.865811 -0.544656
H50   H     H_    0.681399 0.466825 0.906480 0.239476
H51   H     H_    0.650748 0.378272 0.818413 0.228650

loop_
_geom_bond_atom_site_label_1
_geom_bond_atom_site_label_2
_ccdc_geom_bond_type
C24   C25   A    
C45   C60   S    
Cu3   O3    S    
C3    H19   S    
C41   C42   A    
Cu6   O17   S    
C43   Cl4   S    
C19   C20   S    
C16   H6    S    
Cu5   O16   S    
C11   N4    S    
C11   H4    S    
C7    C8    A    
C29   H10   S    
C53   C54   A    
C45   Cl2   S    
C40   C46   A    
N9    H37   S    
C26   C27   A    
C34   O22   A    
C14   C21   S    
C28   C29   S    
Cu1   O18   S    
N12   H43   S    
Cu4   O8    S    
C12   O19   A    
C33   O6    A    
C5    C6    A    
C59   Cl7   S    
Cu2   O23   S    
C58   C60   S    
C15   C16   A    
C23   O20   A    
C48   Cl5   S    
C21   H7    S    
C49   C57   S    
N3    H24   S    
C4    C59   S    
C2    C32   S    
C18   C19   A    
Cu6   O15   S    
N1    H20   S    
N2    H22   S    
C59   N15   S    
Cu5   O11   S    
Cu1   O1    S    
N15   H48   S    
C45   C56   S    
C27   C39   S    
C8    C9    A    
Cu3   O7    S    
N13   H44   S    
C57   H17   S    
C36   O10   A    
C47   H13   S    
C55   H15   S    
C25   Cl3   S    
C18   C35   S    
C15   C34   S    
N14   H47   S    
C35   O7    A    
N4    H27   S    
C59   C60   S    
C30   N9    S    
C22   C28   A    
Cu4   O4    S    
C37   O13   A    
C44   C46   A    
C39   O16   A    
N16   H51   S    
C35   O8    A    
C31   O2    A    
C42   N10   S    
C51   C52   A    
N12   H42   S    
Cu5   O14   S    
C12   O18   A    
N11   H41   S    
C3    N2    S    
C1    O12   A    
C45   N1    S    
C16   C17   A    
N8    H35   S    
C13   H5    S    
C33   C50   S    
C23   O21   A    
C21   H8    S    
Cu2   O19   S    
C1    C6    S    
C37   O11   A    
C30   H12   S    
Cu3   O24   S    
N7    H33   S    
C43   C44   A    
N6    H31   S    
C29   C30   S    
C58   H18   S    
C4    H1    S    
Cu2   O12   S    
C17   N5    S    
N7    H32   S    
C47   C48   S    
C23   C24   S    
C9    C37   S    
C50   C51   A    
C31   O24   A    
C31   C41   S    
N10   H38   S    
N14   H46   S    
N8    H34   S    
C20   N6    S    
C56   N14   S    
C40   C41   A    
C49   C50   A    
C55   C57   S    
C32   O4    A    
C22   C24   A    
C36   C44   S    
C42   C43   A    
N6    H30   S    
Cu1   O20   S    
C52   C53   A    
C39   O17   A    
N5    H29   S    
N16   H50   S    
C9    C10   A    
C58   H2    S    
C1    O1    A    
C40   C48   S    
C46   C47   S    
Cu5   O9    S    
C22   C30   S    
C57   H16   S    
C5    C13   S    
C14   C19   A    
C20   N7    S    
C38   O14   A    
C7    H3    S    
C54   C55   S    
C56   N8    S    
N4    H26   S    
C6    C7    A    
Cu2   O21   S    
N9    H36   S    
C17   C18   A    
N11   H40   S    
C34   O23   A    
Cu6   O13   S    
N15   H49   S    
C25   C26   A    
C5    C10   A    
C2    C56   S    
C33   O5    A    
C13   Cl1   S    
C11   C13   S    
C38   O15   A    
C48   H14   S    
C38   C53   S    
C51   N12   S    
C52   N13   S    
C2    C4    S    
C47   N11   S    
Cu3   O5    S    
N3    H25   S    
C2    C3    S    
C4    N16   S    
N13   H45   S    
Cu1   Cu2   S    
Cu1   O22   S    
N1    H21   S    
C10   C11   S    
C8    N3    S    
Cu3   Cu4   S    
C12   C60   S    
C3    C58   S    
C36   O9    A    
C55   Cl6   S    
C29   H11   S    
C20   C21   S    
C26   H9    S    
Cu5   Cu6   S    
C27   C28   A    
C14   C15   A    
N5    H28   S    
Cu4   O6    S    
N10   H39   S    
Cu4   O2    S    
C49   C54   A    
Cu6   O10   S    
N2    H23   S    
C32   O3    A    
