data_mof_unit_63438.cif
_audit_creation_date              2012-12-10T18:07:02-0500
_audit_creation_method            fapswitch 2.2
_symmetry_space_group_name_H-M    P1
_symmetry_Int_Tables_number       1
_space_group_crystal_system       triclinic
_cell_length_a                    10.751693
_cell_length_b                    12.749966
_cell_length_c                    13.900586
_cell_angle_alpha                 97.937964
_cell_angle_beta                  90.217159
_cell_angle_gamma                 93.228439
_cell_volume                      1884.16127499

loop_
_atom_site_label
_atom_site_type_symbol
_atom_type_description
_atom_site_fract_x
_atom_site_fract_y
_atom_site_fract_z
_atom_type_partial_charge
C1    C     C_R   0.498712 0.483574 0.315824 0.818318
C2    C     C_3   0.878477 0.499557 0.499069 0.133922
C3    C     C_3   0.933199 0.568179 0.592204 -0.348541
C4    C     C_3   0.931409 0.544095 0.407548 0.264572
C5    C     C_1   0.502069 0.525838 0.787516 -0.178002
C6    C     C_2   0.503445 0.543573 0.978406 -0.162547
C7    C     C_2   0.496782 0.456472 0.021602 -0.163833
C8    C     C_1   0.497438 0.465630 0.125426 0.002744
C9    C     C_1   0.502738 0.534408 0.874581 0.002503
C10   C     C_1   0.498046 0.474182 0.212489 -0.177515
C11   C     C_2   0.464397 0.028163 0.473616 -0.259749
C12   C     C_R   0.259408 0.500103 0.500243 0.768043
C13   C     C_2   0.535644 0.971834 0.526361 -0.256966
C14   C     C_1   0.525580 0.854633 0.519093 0.215382
C15   C     C_1   0.474440 0.145366 0.480896 0.201140
C16   C     C_R   0.501328 0.516429 0.684177 0.811249
C17   C     C_R   0.740624 0.499650 0.499557 0.773826
C18   C     C_3   0.063436 0.384959 0.498053 -0.382760
C19   C     C_3   0.920996 0.384890 0.497490 -0.473684
C20   C     C_3   0.076695 0.569046 0.592107 -0.380543
C21   C     C_3   0.075518 0.544172 0.408748 -0.408766
C22   C     C_3   0.121725 0.499660 0.499858 0.108383
Cu1   Cu    Cu3+1 0.491980 0.395330 0.493960 0.960831
Cu2   Cu    Cu3+1 0.508020 0.604670 0.506040 0.987632
H1    H     H_    0.095162 0.350776 0.562841 0.184815
H2    H     H_    0.115784 0.652135 0.594841 0.185097
H3    H     H_    0.903854 0.651015 0.596775 0.210123
H4    H     H_    0.490790 0.377990 0.979306 0.157086
H5    H     H_    0.509431 0.622056 0.020702 0.157909
H6    H     H_    0.604290 0.014215 0.577023 0.161127
H7    H     H_    0.395751 0.985782 0.422953 0.160731
H8    H     H_    0.093942 0.333090 0.432293 0.180618
H9    H     H_    0.883547 0.333136 0.431452 0.178506
H10   H     H_    0.884493 0.350531 0.561943 0.193431
H11   H     H_    0.110154 0.538597 0.658318 0.152486
H12   H     H_    0.897165 0.535946 0.657822 0.138826
H13   H     H_    0.117027 0.626060 0.407981 0.194983
H14   H     H_    0.107203 0.494943 0.341881 0.116469
H15   H     H_    0.894532 0.491429 0.341527 0.063755
N1    N     N_1   0.479930 0.238040 0.484880 -0.160688
N2    N     N_1   0.520070 0.761960 0.515120 -0.154737
O1    O     O_R   0.492240 0.399110 0.356330 -0.571537
O2    O     O_R   0.505790 0.575900 0.366540 -0.563225
O3    O     O_R   0.310920 0.411610 0.494880 -0.584644
O4    O     O_R   0.324460 0.588390 0.505090 -0.585170
O5    O     O_R   0.494210 0.424100 0.633460 -0.569811
O6    O     O_R   0.507760 0.600890 0.643670 -0.573359
O7    O     O_R   0.675540 0.411610 0.494910 -0.597012
O8    O     O_R   0.689080 0.588390 0.505120 -0.530882
O9    O     O_3   0.894091 0.647627 0.404783 -0.718379
H16   H     H_    0.908028 0.663245 0.337503 0.317841

loop_
_geom_bond_atom_site_label_1
_geom_bond_atom_site_label_2
_ccdc_geom_bond_type
C2    C4    S    
Cu1   Cu2   S    
C17   O7    A    
C5    C9    T    
C6    C7    D    
Cu2   N2    S    
C13   C14   S    
C1    O2    A    
C13   H6    S    
C4    H15   S    
C7    H4    S    
C6    C9    S    
C3    H3    S    
C2    C3    S    
C11   H7    S    
C7    C8    S    
C12   O3    A    
Cu1   O5    S    
C18   H1    S    
C21   C22   S    
C2    C17   S    
C4    C21   S    
C11   C13   D    
Cu1   O1    S    
C20   H2    S    
C3    H12   S    
C14   N2    T    
Cu2   O4    S    
C16   O6    A    
C20   C22   S    
O9    H16   S    
C15   N1    T    
C18   H8    S    
C1    C10   S    
C21   H14   S    
C16   O5    A    
Cu1   N1    S    
C12   C22   S    
C1    O1    A    
C3    C20   S    
C6    H5    S    
C21   H13   S    
C8    C10   T    
C18   C19   S    
C19   H9    S    
C17   O8    A    
Cu2   O8    S    
Cu2   O2    S    
C5    C16   S    
Cu1   O7    S    
C2    C19   S    
C18   C22   S    
Cu2   O6    S    
C11   C15   S    
C20   H11   S    
Cu1   O3    S    
C4    O9    S    
C12   O4    A    
C19   H10   S    
