data_mof_unit_38969.cif
_audit_creation_date              2013-03-05T16:11:15-0500
_audit_creation_method            fapswitch 2.2
_symmetry_space_group_name_H-M    P1
_symmetry_Int_Tables_number       1
_space_group_crystal_system       triclinic
_cell_length_a                    6.953673
_cell_length_b                    20.539911
_cell_length_c                    24.460556
_cell_angle_alpha                 90.187855
_cell_angle_beta                  90.552612
_cell_angle_gamma                 89.584318
_cell_volume                      3493.37557888

loop_
_atom_site_label
_atom_site_type_symbol
_atom_site_description
_atom_site_fract_x
_atom_site_fract_y
_atom_site_fract_z
_atom_type_partial_charge
O1    O     O_R   0.507280 0.423750 0.460310 -0.588587
O2    O     O_R   0.171030 0.555650 0.437630 -0.585949
O3    O     O_R   0.004080 0.576250 0.539690 -0.593441
C1    C     C_R   0.339046 0.575664 0.421781 0.964197
O4    O     O_R   0.177330 0.422980 0.453960 -0.590079
O5    O     O_R   0.010420 0.442640 0.556140 -0.580383
C2    C     C_R   0.345941 0.399115 0.443192 0.956946
O6    O     O_R   0.500930 0.557360 0.443860 -0.593397
O7    O     O_3   0.340310 0.506600 0.533500 -0.261704
V1    V     V_3+5 0.064140 0.498780 0.493780 1.198442
O8    O     O_R   0.680890 0.444350 0.562370 -0.576809
C3    C     C_R   0.850576 0.424469 0.578152 0.981533
O9    O     O_R   0.674590 0.577020 0.546040 -0.584980
C4    C     C_R   0.842896 0.600867 0.556862 0.940678
V2    V     V_3+5 0.564550 0.501220 0.506220 1.206468
O10   O     O_3   0.838250 0.493400 0.466500 -0.274899
C5    C     C_R   0.971726 0.837676 0.911535 -0.253827
C6    C     C_R   0.846727 0.661638 0.589099 -0.117359
C7    C     C_R   0.977599 0.719940 0.908544 -0.209371
C8    C     C_R   0.994052 0.777750 0.938165 0.470492
C9    C     C_R   0.937827 0.838929 0.854723 -0.291265
C10   C     C_R   0.921072 0.780347 0.823613 0.135368
C11   C     C_R   0.939541 0.720684 0.852061 0.055151
C12   C     C_R   0.884775 0.778743 0.765687 0.055578
C13   C     C_R   0.872165 0.717373 0.737230 -0.038034
C14   C     C_R   0.865493 0.659637 0.769230 0.183674
C15   C     C_R   0.908926 0.661860 0.824895 -0.203832
C16   C     C_R   0.853672 0.836491 0.735584 -0.168753
C17   C     C_R   0.813318 0.834976 0.679945 -0.218784
C18   C     C_R   0.815884 0.776477 0.651057 0.172695
C19   C     C_R   0.856262 0.717151 0.678536 0.129998
C20   C     C_R   0.781079 0.777149 0.594430 -0.158787
C21   C     C_R   0.790353 0.719790 0.564089 -0.159162
C22   C     C_R   0.887509 0.661042 0.645557 -0.200531
H1    H     H_    0.907207 0.616980 0.848099 0.172138
H2    H     H_    0.947607 0.617028 0.662583 0.151520
H3    H     H_    0.756654 0.720935 0.520757 0.116333
H4    H     H_    0.784933 0.880525 0.658976 0.146884
H5    H     H_    0.991563 0.674044 0.930044 0.170382
H6    H     H_    0.925365 0.886378 0.836371 0.118404
H7    H     H_    0.853684 0.884083 0.754092 0.132471
H8    H     H_    0.744884 0.822173 0.573621 0.134193
H9    H     H_    0.674032 0.251202 0.825060 0.158069
C23   C     C_R   0.759790 0.295208 0.749289 0.226426
C24   C     C_R   0.894060 0.294972 0.706388 -0.096397
C25   C     C_R   0.046395 0.249164 0.707710 0.488275
C26   C     C_R   0.063797 0.204843 0.751208 -0.249660
H10   H     H_    0.181659 0.170040 0.751700 0.172635
C27   C     C_R   0.930146 0.205156 0.793763 0.070998
C28   C     C_R   0.778387 0.250493 0.792459 -0.223625
C29   C     C_1   0.876140 0.341184 0.661373 0.208076
C30   C     C_1   0.948026 0.159003 0.838660 0.053591
C31   C     C_1   0.961140 0.120729 0.876365 -0.298004
C32   C     C_1   0.863081 0.379378 0.623628 -0.210117
H11   H     H_    0.653318 0.743302 0.324126 0.148749
C33   C     C_R   0.571081 0.789989 0.248695 -0.128399
H12   H     H_    0.696991 0.820738 0.248643 0.140318
C34   C     C_R   0.434926 0.794424 0.206114 0.118105
C35   C     C_R   0.273242 0.753824 0.207362 -0.188237
H13   H     H_    0.166600 0.756669 0.174859 0.179954
C36   C     C_R   0.247578 0.709310 0.250362 0.198835
C37   C     C_R   0.384588 0.704950 0.293155 0.080007
C38   C     C_R   0.545939 0.745773 0.291796 -0.157277
C39   C     C_1   0.459419 0.840644 0.161421 0.050179
C40   C     C_1   0.363040 0.659013 0.338272 0.063003
C41   C     C_1   0.348733 0.620887 0.376104 -0.261222
C42   C     C_1   0.475165 0.878995 0.123808 -0.234945
C43   C     C_R   0.474804 0.161763 0.089219 -0.107393
C44   C     C_R   0.350933 0.338320 0.411013 -0.149565
C45   C     C_R   0.566478 0.274714 0.097634 -0.162256
C46   C     C_R   0.548975 0.218355 0.066357 -0.154234
C47   C     C_R   0.416558 0.162053 0.144169 -0.236340
C48   C     C_R   0.434161 0.219083 0.177276 0.132046
C49   C     C_R   0.512838 0.275334 0.152780 0.165848
C50   C     C_R   0.382972 0.221742 0.234058 0.028563
C51   C     C_R   0.417077 0.279478 0.265485 0.080380
C52   C     C_R   0.498794 0.333440 0.238901 -0.174721
C53   C     C_R   0.542607 0.331541 0.183682 -0.219312
C54   C     C_R   0.292385 0.169376 0.259832 -0.255281
C55   C     C_R   0.251932 0.169817 0.315489 0.228093
C56   C     C_R   0.307776 0.223059 0.348781 -0.029462
C57   C     C_R   0.372492 0.281005 0.322713 0.072262
C58   C     C_R   0.296911 0.222008 0.406894 0.271314
C59   C     C_R   0.312683 0.279713 0.436771 -0.208689
C60   C     C_R   0.386517 0.338822 0.354798 -0.210735
H14   H     H_    0.605056 0.374302 0.165215 0.149523
H15   H     H_    0.416349 0.385586 0.337076 0.107854
H16   H     H_    0.298145 0.278761 0.480843 0.162651
H17   H     H_    0.626571 0.317688 0.078918 0.131176
H18   H     H_    0.596671 0.218527 0.024312 0.117906
H19   H     H_    0.367622 0.116394 0.160365 0.112101
H20   H     H_    0.534960 0.377904 0.259896 0.140301
H21   H     H_    0.242410 0.127925 0.236849 0.158578
O11   O     O_R   0.323320 0.942780 0.056240 -0.573188
O12   O     O_R   0.647300 0.077050 0.046060 -0.593955
O13   O     O_R   0.813840 0.057330 0.943840 -0.593694
C61   C     C_R   0.478836 0.101050 0.056830 0.920082
O14   O     O_R   0.653250 0.944380 0.062400 -0.580616
O15   O     O_R   0.819830 0.923720 0.960300 -0.583280
C62   C     C_R   0.485193 0.924387 0.078257 0.998908
O16   O     O_R   0.317330 0.076390 0.039790 -0.593150
O17   O     O_3   0.483830 0.993470 0.966560 -0.275715
V3    V     V_3+5 0.760140 0.001210 0.006210 1.196018
O18   O     O_R   0.149290 0.922840 0.953850 -0.581446
C63   C     C_R   0.980609 0.899030 0.943110 1.029141
O19   O     O_R   0.143340 0.055500 0.937510 -0.594957
C64   C     C_R   0.973667 0.075517 0.921809 0.964553
V4    V     V_3+5 0.259690 0.998600 0.993650 1.197140
O20   O     O_3   0.986130 0.006520 0.033440 -0.269791
I1    I     I_    0.525641 0.361985 0.751169 -0.293772
Cl1   Cl    Cl    0.217869 0.245800 0.655212 -0.611915
I2    I     I_    0.999637 0.649834 0.248474 -0.397684
I3    I     I_    0.054437 0.095892 0.338246 -0.322809
I4    I     I_    0.309604 0.137274 0.456823 -0.233401
Cl2   Cl    Cl    0.038399 0.773500 0.009123 -0.643070
I5    I     I_    0.732938 0.570027 0.745477 -0.366957

loop_
_geom_bond_atom_site_label_1
_geom_bond_atom_site_label_2
_geom_bond_distance
_ccdc_geom_bond_type
C13   C19   1.438874 A    
O15   V3    1.988561 S    
C52   H20   1.076484 S    
C48   C49   1.418911 A    
C4    C6    1.474520 S    
O2    C1    1.304234 A    
C7    C8    1.393826 A    
C1    O6    1.297557 A    
C56   C57   1.429671 A    
C44   C60   1.399550 A    
C26   C27   1.402066 A    
C24   C25   1.411906 A    
V4    O20   2.149996 S    
C46   H18   1.083662 S    
O11   V4    1.960950 S    
C14   C15   1.392506 A    
C17   C18   1.392039 A    
C16   C17   1.387228 A    
C54   H21   1.076586 S    
O5    C3    1.297505 A    
C18   C19   1.418536 A    
O19   C64   1.301481 A    
C24   C29   1.459934 S    
V2    O10   2.149931 S    
C16   H7    1.075947 S    
C5    C8    1.401413 A    
C33   H12   1.083289 S    
C43   C61   1.475455 S    
O8    V2    1.969950 S    
C26   H10   1.083622 S    
H11   C38   1.083412 S    
C17   H4    1.084367 S    
C45   C49   1.402973 A    
O17   V4    1.701908 S    
C45   C46   1.390905 A    
O1    V2    1.985078 S    
C11   C15   1.393728 A    
O7    V1    2.150613 S    
C53   H14   1.084413 S    
O16   V4    1.994021 S    
C35   H13   1.083385 S    
C3    C32   1.451346 S    
O9    C4    1.296608 A    
C48   C50   1.437881 A    
C58   I4    2.130260 S    
C36   C37   1.411204 A    
O18   C63   1.298284 A    
C56   C58   1.424458 A    
O12   V3    1.994858 S    
C14   I5    2.140606 S    
C60   H15   1.077459 S    
C34   C39   1.462232 S    
O15   C63   1.297442 A    
C35   C36   1.409389 A    
C39   C42   1.219384 T    
C59   H16   1.083965 S    
C12   C13   1.440790 A    
C51   C57   1.436859 A    
O4    C2    1.296575 A    
C47   H19   1.077935 S    
C55   C56   1.415657 A    
C15   H1    1.084340 S    
C13   C14   1.424349 A    
C52   C53   1.387855 A    
C21   H3    1.083594 S    
C7    C11   1.404340 A    
C50   C51   1.431118 A    
C2    C44   1.474274 S    
C37   C38   1.406268 A    
C5    C63   1.477252 S    
C31   C64   1.452341 S    
C58   C59   1.394858 A    
O11   C62   1.297395 A    
C43   C47   1.407512 A    
C27   C30   1.456940 S    
C25   Cl1   1.761609 S    
C33   C38   1.406785 A    
C51   C52   1.412515 A    
C6    C22   1.407198 A    
O3    C4    1.299153 A    
C7    H5    1.084257 S    
C42   C62   1.457690 S    
O13   C64   1.297702 A    
C27   C28   1.402524 A    
O6    V2    1.960412 S    
O14   C62   1.304411 A    
O9    V2    1.987763 S    
C10   C12   1.437099 A    
C45   H17   1.083994 S    
O2    V1    1.961158 S    
O18   V4    1.987847 S    
C19   C22   1.421199 A    
C30   C31   1.216166 T    
C23   C28   1.406163 A    
C25   C26   1.406324 A    
C37   C40   1.463798 S    
O1    C2    1.299161 A    
C23   C24   1.411298 A    
C12   C16   1.412370 A    
C47   C48   1.427193 A    
O5    V1    1.955683 S    
C8    Cl2   1.762260 S    
O8    C3    1.301269 A    
O12   C61   1.296696 A    
H9    C28   1.083350 S    
C57   C60   1.424733 A    
V3    O20   1.704947 S    
C29   C32   1.215818 T    
C20   C21   1.391801 A    
C34   C35   1.405285 A    
O4    V1    1.994816 S    
O3    V1    1.988770 S    
V1    O10   1.704876 S    
C18   C20   1.403900 A    
C9    H6    1.076922 S    
O19   V4    1.970171 S    
C43   C46   1.395858 A    
C33   C34   1.403529 A    
C22   H2    1.076572 S    
O7    V2    1.704687 S    
O17   V3    2.150590 S    
C6    C21   1.395697 A    
C5    C9    1.407560 A    
C54   C55   1.392801 A    
C55   I3    2.133544 S    
C1    C41   1.457682 S    
C40   C41   1.219488 T    
C49   C53   1.393485 A    
O13   V3    1.955605 S    
C44   C59   1.389139 A    
C20   H8    1.083916 S    
C10   C11   1.415645 A    
C9    C10   1.426478 A    
C36   I2    2.120304 S    
C50   C54   1.404672 A    
C61   O16   1.299772 A    
O14   V3    1.961353 S    
C23   I1    2.122030 S    
