data_mof_unit_6336.cif
_audit_creation_date              2012-12-11T14:06:45-0500
_audit_creation_method            fapswitch 2.2
_symmetry_space_group_name_H-M    P1
_symmetry_Int_Tables_number       1
_space_group_crystal_system       triclinic
_cell_length_a                    6.923672
_cell_length_b                    17.281904
_cell_length_c                    24.112403
_cell_angle_alpha                 104.558042
_cell_angle_beta                  90.409753
_cell_angle_gamma                 89.965443
_cell_volume                      2792.4454967

loop_
_atom_site_label
_atom_site_type_symbol
_atom_type_description
_atom_site_fract_x
_atom_site_fract_y
_atom_site_fract_z
_atom_type_partial_charge
O1    O     O_R   0.494290 0.391990 0.999150 -0.534971
O2    O     O_R   0.827170 0.534410 0.082350 -0.543036
O3    O     O_R   0.994360 0.608010 0.000850 -0.535123
C1    C     C_R   0.658518 0.549086 0.106218 0.705952
O4    O     O_R   0.824210 0.388010 0.004470 -0.545918
O5    O     O_R   0.991370 0.460560 0.922410 -0.540493
C2    C     C_R   0.654556 0.354868 0.001475 0.775597
O6    O     O_R   0.497270 0.539440 0.077590 -0.540725
O7    O     O_3   0.659770 0.523970 0.973170 -0.371373
V1    V     V_3+5 0.935840 0.495550 0.004980 1.413417
O8    O     O_R   0.320910 0.465590 0.917650 -0.543714
C3    C     C_R   0.151316 0.450966 0.893820 0.706680
O9    O     O_R   0.323870 0.611990 0.995530 -0.545971
C4    C     C_R   0.154391 0.645123 0.998519 0.775707
V2    V     V_3+5 0.435470 0.504450 0.995020 1.413266
O10   O     O_3   0.161670 0.476030 0.026830 -0.371345
C5    C     C_2   0.142785 0.730270 0.998086 -0.339605
H1    H     H_    0.277222 0.761116 0.994708 0.150375
C6    C     C_2   0.972761 0.769762 0.002014 -0.339927
H2    H     H_    0.838324 0.738915 0.005389 0.150580
C7    C     C_R   0.177140 0.266392 0.622264 0.571804
N1    N     N_R   0.102210 0.340235 0.647569 -0.560732
C8    C     C_R   0.013377 0.385108 0.615218 0.580627
C9    C     C_R   0.997291 0.356065 0.555191 -0.090986
C10   C     C_R   0.072225 0.280234 0.528756 -0.019822
C11   C     C_R   0.163528 0.234959 0.562529 -0.010266
C12   C     C_R   0.907811 0.401025 0.521237 -0.232378
C13   C     C_R   0.893397 0.371914 0.461387 0.459273
C14   C     C_R   0.963093 0.294350 0.434536 -0.122308
C15   C     C_R   0.054472 0.249163 0.468596 -0.076834
C16   C     C_R   0.127856 0.172560 0.442721 -0.000664
C17   C     C_R   0.219474 0.128226 0.476873 -0.146478
C18   C     C_R   0.237330 0.159069 0.535988 -0.143384
C19   C     C_R   0.946780 0.260519 0.374622 0.618281
N2    N     N_R   0.018528 0.185651 0.350316 -0.566733
C20   C     C_R   0.107603 0.141767 0.383192 0.573820
O11   O     O_2   0.262289 0.222890 0.654863 -0.516890
O12   O     O_2   0.942238 0.457880 0.640903 -0.517223
H3    H     H_    0.847863 0.459254 0.540935 0.172390
O13   O     O_2   0.861892 0.302175 0.340765 -0.481975
O14   O     O_2   0.175183 0.068014 0.358376 -0.517788
H4    H     H_    0.277535 0.069337 0.458054 0.171007
H5    H     H_    0.308370 0.122980 0.560836 0.176109
C21   C     C_R   0.822544 0.133753 0.262364 -0.077535
H6    H     H_    0.692155 0.144594 0.287654 0.126612
C22   C     C_R   0.809129 0.100160 0.203108 -0.194000
H7    H     H_    0.667532 0.086420 0.183838 0.129105
C23   C     C_R   0.976689 0.084778 0.169283 -0.058551
C24   C     C_R   0.157585 0.104045 0.196376 -0.194225
H8    H     H_    0.289741 0.093526 0.171904 0.130157
C25   C     C_R   0.170600 0.137578 0.255478 -0.079662
H9    H     H_    0.311253 0.151949 0.275290 0.123512
C26   C     C_R   0.003457 0.152688 0.289016 0.369228
C27   C     C_R   0.946615 0.381349 0.742413 -0.080742
H10   H     H_    0.806495 0.368737 0.721926 0.121468
C28   C     C_R   0.958532 0.407552 0.802216 -0.195685
H11   H     H_    0.826043 0.415126 0.826543 0.130413
C29   C     C_R   0.139052 0.423273 0.830146 -0.058835
C30   C     C_R   0.307116 0.412573 0.796491 -0.189769
H12   H     H_    0.448410 0.424257 0.816332 0.128768
C31   C     C_R   0.294827 0.386334 0.736658 -0.081958
H13   H     H_    0.425815 0.378216 0.711614 0.120634
C32   C     C_R   0.114561 0.370243 0.709147 0.374242
C33   C     C_R   0.600303 0.859490 0.617060 0.573224
N3    N     N_R   0.509739 0.815496 0.649300 -0.566411
C34   C     C_R   0.439234 0.740406 0.624402 0.618725
C35   C     C_R   0.458950 0.706409 0.564625 -0.120941
C36   C     C_R   0.552391 0.751633 0.531290 -0.076460
C37   C     C_R   0.623967 0.828520 0.557711 -0.001143
C38   C     C_R   0.391105 0.628552 0.537254 0.458993
C39   C     C_R   0.409537 0.599180 0.477563 -0.233789
C40   C     C_R   0.501095 0.644168 0.444318 -0.089122
C41   C     C_R   0.574117 0.720295 0.471310 -0.019268
C42   C     C_R   0.667445 0.765599 0.438253 -0.010403
C43   C     C_R   0.739388 0.841798 0.465369 -0.142730
C44   C     C_R   0.717681 0.872887 0.524283 -0.146430
C45   C     C_R   0.520658 0.614912 0.384435 0.580235
N4    N     N_R   0.610953 0.659882 0.352700 -0.560751
C46   C     C_R   0.684527 0.733972 0.378626 0.571839
O15   O     O_2   0.666454 0.933485 0.642331 -0.517782
O16   O     O_2   0.352685 0.698596 0.657551 -0.482018
H14   H     H_    0.350867 0.540756 0.457393 0.171382
O17   O     O_2   0.451100 0.541861 0.358287 -0.516170
O18   O     O_2   0.771284 0.777621 0.346740 -0.517157
H15   H     H_    0.811926 0.877953 0.441116 0.175680
H16   H     H_    0.774516 0.931991 0.543522 0.170880
C47   C     C_R   0.804219 0.615344 0.264112 -0.081206
H17   H     H_    0.935446 0.624460 0.289600 0.121631
C48   C     C_R   0.816204 0.589018 0.204227 -0.189794
H18   H     H_    0.957353 0.578363 0.184816 0.127973
C49   C     C_R   0.647830 0.576933 0.169972 -0.059136
C50   C     C_R   0.467496 0.591447 0.197379 -0.194742
H19   H     H_    0.334628 0.582820 0.172668 0.130865
C51   C     C_R   0.455874 0.617686 0.257134 -0.081196
H20   H     H_    0.315664 0.629240 0.277069 0.121372
C52   C     C_R   0.623897 0.630104 0.291072 0.372774
C53   C     C_R   0.661389 0.863589 0.744879 -0.081196
H21   H     H_    0.802091 0.849764 0.725597 0.123121
C54   C     C_R   0.648601 0.896747 0.803971 -0.193017
H22   H     H_    0.781120 0.907501 0.828846 0.130626
C55   C     C_R   0.467849 0.915387 0.830555 -0.058887
C56   C     C_R   0.300057 0.899637 0.796095 -0.194060
H23   H     H_    0.158577 0.912876 0.814933 0.128484
C57   C     C_R   0.313258 0.866360 0.736751 -0.076497
H24   H     H_    0.182676 0.855241 0.710989 0.127255
C58   C     C_R   0.494220 0.848152 0.710647 0.368662
C59   C     C_2   0.642904 0.269695 0.001900 -0.339139
H25   H     H_    0.777501 0.238777 0.005264 0.150357
C60   C     C_2   0.472601 0.230270 0.997986 -0.339448
H26   H     H_    0.338003 0.261190 0.994627 0.150557
O19   O     O_R   0.618210 0.960470 0.922400 -0.540944
O20   O     O_R   0.291310 0.111960 0.995450 -0.545919
O21   O     O_R   0.124210 0.039530 0.077580 -0.540690
C61   C     C_R   0.460958 0.145102 0.998429 0.776101
O22   O     O_R   0.288310 0.965490 0.917650 -0.542784
O23   O     O_R   0.121180 0.892010 0.999220 -0.535205
C62   C     C_R   0.456809 0.949011 0.893904 0.706417
O24   O     O_R   0.621230 0.107990 0.000760 -0.535105
O25   O     O_3   0.455770 0.976060 0.026840 -0.371314
V3    V     V_3+5 0.179680 0.004440 0.995020 1.413409
O26   O     O_R   0.791670 0.888040 0.004570 -0.545981
C63   C     C_R   0.961150 0.854905 0.001571 0.776248
O27   O     O_R   0.794680 0.034510 0.082370 -0.543547
C64   C     C_R   0.964122 0.051000 0.106045 0.707176
V4    V     V_3+5 0.680070 0.995560 0.005010 1.413329
O28   O     O_3   0.953840 0.023940 0.973160 -0.371301
O29   O     O_3   0.294646 0.582913 0.567925 -0.524773
C65   C     C_3   0.415006 0.519210 0.573254 -0.120483
H27   H     H_    0.345651 0.487891 0.602786 0.177112
H28   H     H_    0.558280 0.541088 0.592120 0.148703
H29   H     H_    0.433351 0.474832 0.531366 0.114093
O30   O     O_3   0.799305 0.417586 0.429949 -0.523699
C66   C     C_3   0.921919 0.480781 0.425226 -0.118187
H30   H     H_    0.854014 0.512558 0.395505 0.177212
H31   H     H_    0.064514 0.458231 0.406881 0.147309
H32   H     H_    0.941539 0.524929 0.467250 0.115678

loop_
_geom_bond_atom_site_label_1
_geom_bond_atom_site_label_2
_ccdc_geom_bond_type
C38   O29   S    
C47   H17   S    
C6    C63   S    
C55   C56   A    
N2    C26   S    
C33   O15   S    
C41   C42   A    
N2    C20   A    
C9    C12   A    
C1    O6    A    
C65   H27   S    
C57   C58   A    
C53   H21   S    
O27   C64   A    
C45   N4    A    
C40   C45   A    
O23   C63   A    
C19   O13   S    
C13   C14   A    
O5    C3    A    
C46   O18   S    
C56   C57   A    
V3    O28   S    
O27   V4    S    
C27   C32   A    
C45   O17   S    
V2    O10   S    
C28   H11   S    
C37   C44   A    
C19   N2    A    
C31   C32   A    
N1    C32   S    
C27   H10   S    
O8    V2    S    
C21   C26   A    
C43   H15   S    
C16   C17   A    
N4    C52   S    
O30   C66   S    
C24   C25   A    
O19   V4    S    
C66   H32   S    
C8    C9    A    
C38   C39   A    
O1    V2    S    
O24   V4    S    
C48   C49   A    
O7    V1    S    
C1    C49   S    
C3    C29   S    
C34   C35   A    
C30   H12   S    
O9    C4    A    
C59   C60   D    
C4    C5    S    
C20   O14   S    
C56   H23   S    
O20   C61   A    
C57   H24   S    
C53   C54   A    
C7    C11   A    
C21   C22   A    
C22   C23   A    
N1    C8    A    
C27   C28   A    
C30   C31   A    
C42   C43   A    
C35   C36   A    
C18   H5    S    
C9    C10   A    
C12   H3    S    
C49   C50   A    
O20   V3    S    
N4    C46   A    
C36   C37   A    
O22   C62   A    
C36   C41   A    
C14   C19   A    
O23   V3    S    
C13   O30   S    
O2    C1    A    
C43   C44   A    
O26   V4    S    
C14   C15   A    
O21   V3    S    
C11   C18   A    
C54   H22   S    
C15   C16   A    
C59   H25   S    
C47   C52   A    
C50   C51   A    
C5    H1    S    
C7    O11   S    
C51   H20   S    
C33   C37   A    
C51   C52   A    
O26   C63   A    
C61   O24   A    
O3    C4    A    
C60   C61   S    
C53   C58   A    
O25   V4    S    
C23   C24   A    
C54   C55   A    
C24   H8    S    
O6    V2    S    
C42   C46   A    
C47   C48   A    
V4    O28   S    
C2    C59   S    
C29   C30   A    
O29   C65   S    
O2    V1    S    
C65   H29   S    
C44   H16   S    
N3    C58   S    
C21   H6    S    
O4    C2    A    
C10   C15   A    
C22   H7    S    
O1    C2    A    
C40   C41   A    
C65   H28   S    
C23   C64   S    
O25   V3    S    
C8    O12   S    
O19   C62   A    
C35   C38   A    
C55   C62   S    
C17   C18   A    
C39   H14   S    
C6    H2    S    
O9    V2    S    
C10   C11   A    
C25   H9    S    
O3    V1    S    
V1    O10   S    
C60   H26   S    
C33   N3    A    
C34   O16   S    
C66   H30   S    
O21   C64   A    
C50   H19   S    
C5    C6    D    
C28   C29   A    
N3    C34   A    
O7    V2    S    
C31   H13   S    
O5    V1    S    
O4    V1    S    
C39   C40   A    
O22   V3    S    
C12   C13   A    
C66   H31   S    
C17   H4    S    
C16   C20   A    
C25   C26   A    
C48   H18   S    
C7    N1    A    
O8    C3    A    
