data_mof_unit_62687.cif
_audit_creation_date              2012-10-26T21:19:18-0400
_audit_creation_method            fapswitch 2.2
_symmetry_space_group_name_H-M    P1
_symmetry_Int_Tables_number       1
_space_group_crystal_system       triclinic
_cell_length_a                    15.807488
_cell_length_b                    15.884006
_cell_length_c                    17.06773
_cell_angle_alpha                 90.232649
_cell_angle_beta                  96.366191
_cell_angle_gamma                 92.268647
_cell_volume                      4255.55350673

loop_
_atom_site_label
_atom_site_type_symbol
_atom_type_description
_atom_site_fract_x
_atom_site_fract_y
_atom_site_fract_z
_atom_type_partial_charge
Br1   Br    Br    0.440566 0.929711 0.666806 -0.380563
Br2   Br    Br    0.559434 0.070289 0.333193 -0.380563
Br3   Br    Br    0.580443 0.350884 0.272364 -0.434689
Br4   Br    Br    0.419557 0.649116 0.727636 -0.434689
Br5   Br    Br    0.620838 0.336202 0.916672 -0.311681
Br6   Br    Br    0.379162 0.663798 0.083328 -0.311681
Br7   Br    Br    0.612618 0.345091 0.720217 -0.388364
Br8   Br    Br    0.387382 0.654909 0.279782 -0.388364
C1    C     C_R   0.510437 0.499616 0.651193 0.610446
C2    C     C_R   0.437538 0.574807 0.140331 0.205469
C3    C     C_R   0.560077 0.430268 0.777351 0.123341
C4    C     C_R   0.439923 0.569732 0.222649 0.123341
C5    C     C_R   0.248326 0.541194 0.538089 0.045484
C6    C     C_R   0.751674 0.458806 0.461911 0.045484
C7    C     C_R   0.158988 0.538808 0.535887 -0.097953
C8    C     C_R   0.841012 0.461192 0.464113 -0.097953
C9    C     C_R   0.108779 0.482756 0.483775 0.213778
C10   C     C_R   0.891221 0.517244 0.516225 0.213778
C11   C     C_R   0.151367 0.430919 0.435473 -0.115705
C12   C     C_R   0.489563 0.500384 0.348807 0.610446
C13   C     C_R   0.848633 0.569081 0.564527 -0.115705
C14   C     C_R   0.240792 0.435325 0.439568 0.045815
C15   C     C_R   0.759208 0.564675 0.560431 0.045815
C16   C     C_R   0.499683 0.660237 0.500008 0.582548
C17   C     C_R   0.500317 0.339763 0.499992 0.582549
C18   C     C_3   0.554779 0.030192 0.561762 -0.115086
C19   C     C_3   0.445221 0.969808 0.438238 -0.115086
C20   C     C_3   0.474882 0.971444 0.568084 0.187492
C21   C     C_3   0.525118 0.028556 0.431916 0.187492
C22   C     C_1   0.499028 0.749712 0.499771 0.050603
C23   C     C_R   0.476133 0.555896 0.778773 0.090757
C24   C     C_1   0.500972 0.250288 0.500229 0.050603
C25   C     C_3   0.577217 0.974939 0.492965 0.131304
C26   C     C_3   0.422783 0.025061 0.507034 0.131304
C27   C     C_3   0.498915 0.916619 0.499730 -0.001441
C28   C     C_3   0.501085 0.083381 0.500270 -0.001441
C29   C     C_1   0.498808 0.825104 0.499630 0.018151
C30   C     C_1   0.501192 0.174896 0.500370 0.018151
C31   C     C_R   0.516250 0.495626 0.736924 -0.006220
C32   C     C_R   0.483750 0.504374 0.263076 -0.006220
C33   C     C_3   0.271064 0.991361 0.509790 -0.253400
C34   C     C_R   0.523867 0.444104 0.221227 0.090757
C35   C     C_3   0.728936 0.008639 0.490210 -0.253400
C36   C     C_R   0.478619 0.550242 0.860174 -0.074034
C37   C     C_R   0.521381 0.449758 0.139826 -0.074034
C38   C     C_R   0.520887 0.484423 0.901268 0.176044
C39   C     C_R   0.479113 0.515577 0.098732 0.176044
C40   C     C_R   0.562461 0.425193 0.859669 0.205470
Cu1   Cu    Cu3+1 0.584780 0.504040 0.503820 1.035911
Cu2   Cu    Cu3+1 0.415220 0.495960 0.496180 1.035911
H1    H     H_    0.115320 0.387058 0.394630 0.126815
H2    H     H_    0.286152 0.584403 0.578161 0.171999
H3    H     H_    0.869999 0.419555 0.425407 0.144975
H4    H     H_    0.130000 0.580445 0.574593 0.144975
H5    H     H_    0.324247 0.106388 0.479368 0.260207
H6    H     H_    0.211473 0.019752 0.523949 0.164130
H7    H     H_    0.286551 0.940229 0.552455 0.207315
H8    H     H_    0.260203 0.964443 0.449161 0.141669
H9    H     H_    0.675753 0.893611 0.520632 0.260207
H10   H     H_    0.788527 0.980247 0.476050 0.164130
H11   H     H_    0.739797 0.035557 0.550838 0.141670
H12   H     H_    0.884680 0.612942 0.605370 0.126815
H13   H     H_    0.713449 0.059771 0.447545 0.207315
H14   H     H_    0.272540 0.394934 0.401915 0.140395
H15   H     H_    0.727460 0.605066 0.598084 0.140395
H16   H     H_    0.599814 0.055359 0.611660 0.160181
H17   H     H_    0.400186 0.944641 0.388340 0.160181
H18   H     H_    0.552548 0.402283 0.108988 0.212988
H19   H     H_    0.447452 0.597717 0.891012 0.212988
H20   H     H_    0.713848 0.415597 0.421839 0.171999
N1    N     N_2   0.523141 0.475643 0.984215 -0.187104
N2    N     N_2   0.476859 0.524356 0.015785 -0.187104
N3    N     N_R   0.287870 0.489880 0.490440 -0.230944
N4    N     N_R   0.712130 0.510120 0.509560 -0.230944
N5    N     N_2   0.017117 0.476088 0.477647 -0.223868
N6    N     N_2   0.982883 0.523911 0.522353 -0.223868
N7    N     N_2   0.338974 0.055488 0.514878 -0.479374
N8    N     N_2   0.661026 0.944512 0.485122 -0.479375
O1    O     O_R   0.579470 0.503780 0.617500 -0.479038
O2    O     O_R   0.420530 0.496220 0.382500 -0.479038
O3    O     O_R   0.436280 0.496950 0.611050 -0.481033
O4    O     O_R   0.563720 0.503050 0.388950 -0.481033
O5    O     O_R   0.571580 0.624340 0.503230 -0.511700
O6    O     O_R   0.428420 0.375660 0.496770 -0.511700
O7    O     O_R   0.428390 0.617510 0.496780 -0.475622
O8    O     O_R   0.571610 0.382490 0.503220 -0.475622

loop_
_geom_bond_atom_site_label_1
_geom_bond_atom_site_label_2
_ccdc_geom_bond_type
Br3   C34   S    
C12   O4    A    
C19   C21   S    
C10   C13   A    
C35   H13   S    
C35   N8    S    
Br7   C3    S    
C21   C28   S    
Br2   C21   S    
C6    N4    A    
C27   C29   S    
C16   O5    A    
C33   H8    S    
C26   N7    S    
C33   N7    S    
H5    N7    S    
C25   N8    S    
C21   C25   S    
C1    C31   S    
C1    O1    A    
C8    H3    S    
Cu2   O7    S    
C9    C11   A    
C20   C27   S    
C17   O6    A    
C24   C30   T    
C16   O7    A    
C17   C24   S    
C32   C34   A    
C20   C26   S    
C6    H20   S    
C3    C40   A    
H9    N8    S    
C36   C38   A    
C37   C39   A    
C19   C26   S    
Br5   C40   S    
C38   C40   A    
C23   C36   A    
C12   O2    A    
Cu2   O6    S    
C18   H16   S    
C7    H4    S    
C11   C14   A    
Cu2   N3    S    
C19   C27   S    
Cu1   O1    S    
C22   C29   T    
C34   C37   A    
Cu1   O4    S    
C4    C32   A    
N5    N6    D    
C33   H6    S    
Br1   C20   S    
C5    H2    S    
C18   C25   S    
Br8   C4    S    
C37   H18   S    
C13   H12   S    
C36   H19   S    
C3    C31   A    
C38   N1    S    
C2    C4    A    
C35   H10   S    
C18   C28   S    
C5    N3    A    
C5    C7    A    
C6    C8    A    
C15   N4    A    
C35   H11   S    
C7    C9    A    
C10   N6    S    
Cu1   O8    S    
Cu2   O2    S    
Br6   C2    S    
C18   C20   S    
Cu1   O5    S    
C13   C15   A    
C33   H7    S    
N1    N2    D    
C15   H15   S    
C12   C32   S    
C28   C30   S    
C17   O8    A    
C25   C27   S    
C23   C31   A    
C26   C28   S    
C16   C22   S    
C39   N2    S    
Br4   C23   S    
C19   H17   S    
C14   H14   S    
C11   H1    S    
C8    C10   A    
Cu1   Cu2   S    
C2    C39   A    
C9    N5    S    
Cu1   N4    S    
C14   N3    A    
Cu2   O3    S    
C1    O3    A    
