data_mof_unit_16133.cif
_audit_creation_date              2012-12-10T17:58:17-0500
_audit_creation_method            fapswitch 2.2
_symmetry_space_group_name_H-M    P1
_symmetry_Int_Tables_number       1
_space_group_crystal_system       triclinic
_cell_length_a                    9.529783
_cell_length_b                    10.802014
_cell_length_c                    15.496757
_cell_angle_alpha                 89.973831
_cell_angle_beta                  74.486538
_cell_angle_gamma                 90.045182
_cell_volume                      1537.1297792

loop_
_atom_site_label
_atom_site_type_symbol
_atom_type_description
_atom_site_fract_x
_atom_site_fract_y
_atom_site_fract_z
_atom_type_partial_charge
C1    C     C_R   0.999867 0.262625 0.500063 0.810743
C2    C     C_R   0.000089 0.737355 0.500021 0.811085
C3    C     C_R   0.585258 0.523311 0.094439 -0.206070
C4    C     C_R   0.423744 0.426907 0.910644 -0.207988
C5    C     C_R   0.730913 0.537617 0.049231 -0.226244
C6    C     C_R   0.278386 0.411023 0.956059 -0.226014
C7    C     C_R   0.958232 0.064600 0.431681 -0.071083
C8    C     C_R   0.041291 0.935301 0.568634 -0.071264
C9    C     C_R   0.958813 0.935258 0.431498 -0.066827
C10   C     C_R   0.040958 0.064674 0.568734 -0.066314
C11   C     C_R   0.000191 0.871345 0.500018 -0.132100
C12   C     C_R   0.999659 0.128605 0.500166 -0.132205
C13   C     C_R   0.547873 0.430487 0.560501 -0.008572
C14   C     C_R   0.452131 0.569494 0.439490 -0.009137
C15   C     C_R   0.399133 0.430637 0.560537 -0.015021
C16   C     C_R   0.600869 0.569347 0.439456 -0.015892
C17   C     C_R   0.918318 0.500269 0.672114 0.810328
C18   C     C_R   0.081691 0.498881 0.327925 0.809725
C19   C     C_R   0.873486 0.502865 0.770318 -0.042673
C20   C     C_R   0.127079 0.487552 0.230128 -0.042867
C21   C     C_R   0.924721 0.541516 0.912328 -0.206146
C22   C     C_R   0.081609 0.421455 0.091254 -0.209287
C23   C     C_R   0.972843 0.530428 0.819643 -0.156462
C24   C     C_R   0.030635 0.446044 0.182433 -0.162371
C25   C     C_R   0.727013 0.482260 0.814677 -0.242894
C26   C     C_R   0.273261 0.508262 0.185432 -0.237730
C27   C     C_R   0.675992 0.489909 0.908409 0.094482
C28   C     C_R   0.328811 0.480157 0.094102 0.094918
C29   C     C_R   0.777394 0.522678 0.956890 0.160441
C30   C     C_R   0.229424 0.437904 0.046863 0.158984
C31   C     C_R   0.526826 0.469938 0.954789 0.068067
C32   C     C_R   0.479645 0.492238 0.048746 0.068540
Cu1   Cu    Cu3+1 0.140660 0.500020 0.500000 0.969434
Cu2   Cu    Cu3+1 0.859340 0.499980 0.500000 0.968808
H1    H     H_    0.807586 0.562159 0.086990 0.153411
H2    H     H_    0.203564 0.377286 0.919581 0.156003
H3    H     H_    0.341218 0.546411 0.224099 0.142615
H4    H     H_    0.654147 0.464002 0.773921 0.146546
H5    H     H_    0.917032 0.429382 0.215938 0.169423
H6    H     H_    0.086628 0.546970 0.786500 0.167032
H7    H     H_    0.002421 0.566929 0.949079 0.147661
H8    H     H_    0.005912 0.387084 0.055714 0.147837
H9    H     H_    0.560316 0.535028 0.165877 0.141455
H10   H     H_    0.451815 0.401099 0.841069 0.140755
H11   H     H_    0.582558 0.374484 0.608892 0.120223
H12   H     H_    0.417449 0.625483 0.391092 0.121106
H13   H     H_    0.321975 0.374987 0.608996 0.138588
H14   H     H_    0.678025 0.624991 0.390994 0.139605
N1    N     N_R   0.352080 0.500030 0.499980 -0.161117
N2    N     N_R   0.647920 0.499970 0.500020 -0.161185
O1    O     O_R   0.118740 0.319660 0.500000 -0.573495
O2    O     O_R   0.881260 0.680340 0.500000 -0.573426
O3    O     O_R   0.881170 0.319630 0.500010 -0.577696
O4    O     O_R   0.118830 0.680370 0.499990 -0.577392
O5    O     O_R   0.055570 0.500030 0.629830 -0.578802
O6    O     O_R   0.944430 0.499970 0.370170 -0.579151
O7    O     O_R   0.818000 0.500000 0.629840 -0.593892
O8    O     O_R   0.182000 0.500000 0.370160 -0.592805
C33   C     C_1   0.919259 0.131568 0.360125 0.267038
N3    N     N_1   0.888120 0.184809 0.303121 -0.282902
C34   C     C_1   0.079222 0.868144 0.640490 0.264966
N4    N     N_1   0.109366 0.814581 0.697708 -0.278692
C35   C     C_1   0.921931 0.868127 0.359284 0.246946
N5    N     N_1   0.892777 0.814633 0.301721 -0.297906
C36   C     C_1   0.077794 0.131809 0.640956 0.247193
N6    N     N_1   0.106905 0.185317 0.698529 -0.300334

loop_
_geom_bond_atom_site_label_1
_geom_bond_atom_site_label_2
_ccdc_geom_bond_type
Cu1   O5    S    
Cu2   O7    S    
C19   C23   A    
C26   H3    S    
Cu2   O6    S    
Cu1   O8    S    
C18   O6    A    
C25   H4    S    
Cu1   O1    S    
C9    C11   A    
C17   O5    A    
C18   C20   S    
C31   C32   A    
C15   H13   S    
C8    C34   S    
C3    C5    A    
C20   C24   A    
C16   H14   S    
C28   C30   A    
Cu1   Cu2   S    
C33   N3    T    
C14   H12   S    
C15   N1    A    
C13   H11   S    
C1    O1    A    
C3    H9    S    
C22   H8    S    
C1    C12   S    
C2    O2    A    
C8    C11   A    
C21   H7    S    
C2    C11   S    
C10   C12   A    
C22   C24   A    
C7    C33   S    
C26   C28   A    
C17   C19   S    
C16   N2    A    
C5    C29   A    
C13   C15   A    
C21   C23   A    
C3    C32   A    
C19   C25   A    
C14   C16   A    
C7    C12   A    
Cu2   N2    S    
C4    C31   A    
C27   C29   A    
C34   N4    T    
Cu1   N1    S    
C13   N2    A    
C14   N1    A    
C5    H1    S    
C28   C32   A    
C24   H5    S    
C27   C31   A    
Cu2   O3    S    
C4    C6    A    
C36   N6    T    
C2    O4    A    
C10   C36   S    
C17   O7    A    
Cu1   O4    S    
C7    C9    A    
C1    O3    A    
Cu2   O2    S    
C22   C30   A    
C6    C30   A    
C9    C35   S    
C21   C29   A    
C18   O8    A    
C8    C10   A    
C23   H6    S    
C6    H2    S    
C35   N5    T    
C20   C26   A    
C25   C27   A    
C4    H10   S    
