data_mof_unit_57897.cif
_audit_creation_date              2012-12-11T15:22:50-0500
_audit_creation_method            fapswitch 2.2
_symmetry_space_group_name_H-M    P1
_symmetry_Int_Tables_number       1
_space_group_crystal_system       triclinic
_cell_length_a                    22.465457
_cell_length_b                    13.002071
_cell_length_c                    26.98902
_cell_angle_alpha                 90.130144
_cell_angle_beta                  90.431302
_cell_angle_gamma                 89.974332
_cell_volume                      7883.17995193

loop_
_atom_site_label
_atom_site_type_symbol
_atom_type_description
_atom_site_fract_x
_atom_site_fract_y
_atom_site_fract_z
_atom_type_partial_charge
C1    C     C_R   0.720867 0.344960 0.178372 0.542175
C2    C     C_R   0.279429 0.344745 0.821713 0.533805
C3    C     C_R   0.220243 0.843856 0.177952 0.533663
C4    C     C_R   0.779626 0.844305 0.821899 0.533902
C5    C     C_R   0.476468 0.165589 0.870583 -0.007633
C6    C     C_R   0.530693 0.159741 0.126204 -0.003137
C7    C     C_R   0.975300 0.663498 0.871338 -0.008816
C8    C     C_R   0.027619 0.661663 0.127358 -0.009178
C9    C     C_R   0.514819 0.252628 0.103181 -0.132918
C10   C     C_R   0.473919 0.258100 0.897623 -0.146873
C11   C     C_R   0.019512 0.755980 0.102808 -0.148675
C12   C     C_R   0.979233 0.757601 0.896984 -0.148243
C13   C     C_R   0.503677 0.254903 0.051947 0.008742
C14   C     C_R   0.485673 0.258464 0.948577 -0.000013
C15   C     C_R   0.008654 0.757668 0.051558 -0.003602
C16   C     C_R   0.991195 0.758719 0.948030 -0.004162
C17   C     C_R   0.510198 0.163889 0.023738 0.059828
C18   C     C_R   0.502070 0.165963 0.972123 0.062009
C19   C     C_R   0.006694 0.664099 0.024944 0.057050
C20   C     C_R   0.999201 0.664730 0.973246 0.058489
C21   C     C_R   0.487658 0.346684 0.028115 -0.100649
C22   C     C_R   0.478444 0.348305 0.976796 -0.106740
C23   C     C_R   0.001792 0.850965 0.026101 -0.110639
C24   C     C_R   0.992650 0.851439 0.974740 -0.112213
C25   C     C_R   0.741423 0.956015 0.130330 0.009332
C26   C     C_R   0.258102 0.954797 0.869279 0.005951
C27   C     C_R   0.240810 0.458260 0.129758 0.006963
C28   C     C_R   0.760957 0.460606 0.870803 0.007957
C29   C     C_R   0.792459 0.983932 0.103901 -0.134963
C30   C     C_R   0.206230 0.980231 0.895257 -0.126234
C31   C     C_R   0.290456 0.490203 0.102555 -0.128049
C32   C     C_R   0.706104 0.470888 0.894743 -0.125882
C33   C     C_R   0.796990 0.961978 0.053630 -0.003364
C34   C     C_R   0.201047 0.957012 0.945365 -0.003122
C35   C     C_R   0.294046 0.469934 0.052092 -0.003943
C36   C     C_R   0.701913 0.455122 0.945755 -0.000439
C37   C     C_R   0.750749 0.907645 0.029377 0.017797
C38   C     C_R   0.247663 0.904323 0.969929 0.012946
C39   C     C_R   0.248490 0.413044 0.028418 0.014286
C40   C     C_R   0.753470 0.429236 0.973464 0.015687
C41   C     C_R   0.700964 0.875558 0.056243 -0.137867
C42   C     C_R   0.298176 0.874231 0.943356 -0.130429
C43   C     C_R   0.199976 0.377562 0.055859 -0.132241
C44   C     C_R   0.807396 0.413265 0.948759 -0.133197
C45   C     C_R   0.554745 0.156723 0.176968 0.547836
C46   C     C_R   0.446668 0.157615 0.822162 0.542489
C47   C     C_R   0.054136 0.657023 0.177281 0.541923
C48   C     C_R   0.946419 0.657362 0.822379 0.541212
C49   C     C_R   0.696216 0.899730 0.106396 -0.134041
C50   C     C_R   0.303449 0.899352 0.893388 -0.129808
C51   C     C_R   0.196014 0.400260 0.106235 -0.131686
C52   C     C_R   0.811074 0.428156 0.897944 -0.128377
C53   C     C_R   0.709373 0.918799 0.943209 -0.114272
C54   C     C_R   0.289065 0.917849 0.056088 -0.110048
C55   C     C_R   0.207764 0.422508 0.941990 -0.110903
C56   C     C_R   0.777177 0.327816 0.048903 -0.120403
C57   C     C_R   0.716644 0.906242 0.892093 -0.133089
C58   C     C_R   0.282271 0.905777 0.107264 -0.132582
C59   C     C_R   0.215652 0.408814 0.890995 -0.132053
C60   C     C_R   0.771427 0.309676 0.099302 -0.122500
C61   C     C_R   0.812174 0.824441 0.907437 -0.104607
C62   C     C_R   0.187370 0.821573 0.092441 -0.104590
C63   C     C_R   0.310769 0.326629 0.907556 -0.107143
C64   C     C_R   0.717665 0.470327 0.108676 -0.119991
C65   C     C_R   0.804424 0.834739 0.957982 -0.104662
C66   C     C_R   0.194663 0.831455 0.041795 -0.101287
C67   C     C_R   0.302576 0.338507 0.957941 -0.105225
C68   C     C_R   0.725070 0.489976 0.058324 -0.096968
C69   C     C_R   0.754062 0.885017 0.976162 0.028601
C70   C     C_R   0.244501 0.882589 0.023292 0.031301
C71   C     C_R   0.252053 0.389287 0.975410 0.032422
C72   C     C_R   0.752184 0.416246 0.027711 0.031761
C73   C     C_R   0.769105 0.861920 0.874279 0.042370
C74   C     C_R   0.230384 0.860364 0.125403 0.040127
C75   C     C_R   0.268246 0.363708 0.873865 0.042320
C76   C     C_R   0.739440 0.378646 0.129144 0.024678
C77   C     C_R   0.528022 0.169279 0.371036 0.022911
C78   C     C_R   0.472552 0.168503 0.629167 0.022664
C79   C     C_R   0.027998 0.669316 0.371039 0.023024
C80   C     C_R   0.972515 0.668679 0.629154 0.022687
C81   C     C_R   0.538472 0.259320 0.398647 -0.123933
C82   C     C_R   0.464550 0.259922 0.602259 -0.126365
C83   C     C_R   0.038197 0.759555 0.398572 -0.128111
C84   C     C_R   0.963984 0.759843 0.602140 -0.126230
C85   C     C_R   0.527268 0.261526 0.449242 -0.119137
C86   C     C_R   0.476052 0.262449 0.551713 -0.121430
C87   C     C_R   0.027004 0.761846 0.449173 -0.122994
C88   C     C_R   0.975535 0.762395 0.551605 -0.121844
C89   C     C_R   0.731347 0.002122 0.179282 0.544124
C90   C     C_R   0.268583 0.002010 0.820658 0.545256
C91   C     C_R   0.231253 0.502467 0.179167 0.544416
C92   C     C_R   0.768901 0.502685 0.820876 0.544300
C93   C     C_R   0.504404 0.174386 0.473025 0.036465
C94   C     C_R   0.496693 0.174135 0.527282 0.036195
C95   C     C_R   0.004461 0.674554 0.473039 0.036274
C96   C     C_R   0.996770 0.674387 0.527292 0.035963
C97   C     C_R   0.489951 0.086848 0.444733 -0.119185
C98   C     C_R   0.508853 0.084975 0.554918 -0.120405
C99   C     C_R   0.990243 0.586808 0.444831 -0.115718
C100  C     C_R   0.009455 0.585556 0.555025 -0.119539
C101  C     C_R   0.502055 0.084050 0.394178 -0.128311
C102  C     C_R   0.496559 0.081982 0.605418 -0.130094
C103  C     C_R   0.002268 0.583971 0.394264 -0.121901
C104  C     C_R   0.997086 0.582508 0.605520 -0.128871
C105  C     C_R   0.739980 0.956163 0.371753 0.024886
C106  C     C_R   0.262231 0.960385 0.626811 0.025809
C107  C     C_R   0.234698 0.480935 0.376030 0.041042
C108  C     C_R   0.760154 0.455856 0.628215 0.025141
C109  C     C_R   0.689637 0.922062 0.397475 -0.125897
C110  C     C_R   0.314113 0.936324 0.600415 -0.125361
C111  C     C_R   0.221894 0.383466 0.394922 -0.132343
C112  C     C_R   0.810658 0.422656 0.602355 -0.125813
C113  C     C_R   0.692712 0.906345 0.448086 -0.122866
C114  C     C_R   0.311896 0.924258 0.549529 -0.124754
C115  C     C_R   0.220934 0.369051 0.446189 -0.114833
C116  C     C_R   0.807637 0.407344 0.551701 -0.123198
C117  C     C_R   0.746573 0.921363 0.473536 0.037764
C118  C     C_R   0.257465 0.932240 0.524248 0.034852
C119  C     C_R   0.231041 0.452897 0.478329 0.031360
C120  C     C_R   0.753667 0.421721 0.526358 0.037804
C121  C     C_R   0.798240 0.946104 0.447117 -0.120148
C122  C     C_R   0.204741 0.947240 0.551156 -0.120284
C123  C     C_R   0.240803 0.550901 0.458805 -0.127040
C124  C     C_R   0.701866 0.445368 0.552893 -0.120253
C125  C     C_R   0.794872 0.964244 0.396442 -0.129316
C126  C     C_R   0.207205 0.962605 0.602172 -0.127908
C127  C     C_R   0.243163 0.564389 0.408169 -0.114809
C128  C     C_R   0.705181 0.463220 0.603622 -0.129488
C129  C     C_R   0.784127 0.979704 0.555958 -0.119898
C130  C     C_R   0.214756 0.984452 0.442696 -0.122904
C131  C     C_R   0.282956 0.486687 0.557884 -0.119719
C132  C     C_R   0.715644 0.479934 0.444210 -0.120269
C133  C     C_R   0.721154 0.347247 0.321707 0.542604
C134  C     C_R   0.278766 0.347468 0.678357 0.544076
C135  C     C_R   0.221492 0.848546 0.321256 0.538803
C136  C     C_R   0.778870 0.847017 0.678253 0.543090
C137  C     C_R   0.790442 0.964324 0.606666 -0.129089
C138  C     C_R   0.207217 0.966756 0.392293 -0.129229
C139  C     C_R   0.293533 0.463803 0.607251 -0.127799
C140  C     C_R   0.709255 0.464554 0.393486 -0.129847
C141  C     C_R   0.720285 0.822646 0.601776 -0.126113
C142  C     C_R   0.287943 0.842949 0.394474 -0.141008
C143  C     C_R   0.209023 0.347547 0.606451 -0.126744
C144  C     C_R   0.780396 0.324188 0.397834 -0.125878
C145  C     C_R   0.715089 0.836430 0.551133 -0.123070
C146  C     C_R   0.294203 0.858110 0.445078 -0.129980
C147  C     C_R   0.198257 0.370933 0.556914 -0.122738
C148  C     C_R   0.785644 0.337904 0.448486 -0.123265
C149  C     C_R   0.748387 0.912902 0.527612 0.037581
C150  C     C_R   0.255888 0.925710 0.469956 0.038524
C151  C     C_R   0.236484 0.437885 0.531940 0.036756
C152  C     C_R   0.751870 0.413632 0.472280 0.037518
C153  C     C_R   0.760277 0.883087 0.629449 0.024940
C154  C     C_R   0.241488 0.891380 0.368584 0.023062
C155  C     C_R   0.258296 0.390686 0.631271 0.024581
C156  C     C_R   0.739833 0.383841 0.370446 0.024814
C157  C     C_R   0.554422 0.158987 0.321657 0.542925
C158  C     C_R   0.445639 0.158777 0.678373 0.542346
C159  C     C_R   0.054423 0.658996 0.321662 0.543384
C160  C     C_R   0.945634 0.658799 0.678369 0.543378
C161  C     C_R   0.731625 0.002144 0.322970 0.544475
C162  C     C_R   0.268713 0.002742 0.676669 0.543981
C163  C     C_R   0.231211 0.504149 0.323598 0.536385
C164  C     C_R   0.768379 0.501954 0.677046 0.544390
C165  C     C_R   0.533417 0.068661 0.097997 -0.128462
C166  C     C_R   0.497181 0.075690 0.893561 -0.132285
C167  C     C_R   0.021148 0.569040 0.100905 -0.127363
C168  C     C_R   0.988469 0.571307 0.896103 -0.134694
C169  C     C_R   0.524911 0.070508 0.047062 0.008337
C170  C     C_R   0.509163 0.074821 0.944227 0.010814
C171  C     C_R   0.012552 0.569573 0.049924 0.010081
C172  C     C_R   0.998738 0.570927 0.946921 0.007500
C173  C     C_R   0.525051 0.982924 0.967823 -0.141438
C174  C     C_R   0.532639 0.980673 0.019017 -0.137477
C175  C     C_R   0.005620 0.477566 0.972100 -0.142688
C176  C     C_R   0.012055 0.476846 0.023386 -0.136571
Cr1   Cr    Cr6+3 0.756570 0.170940 0.251190 1.013034
Cr2   Cr    Cr6+3 0.243430 0.170940 0.748810 1.018050
Cr3   Cr    Cr6+3 0.256570 0.670940 0.251190 1.015701
Cr4   Cr    Cr6+3 0.743430 0.670940 0.748810 1.017634
Cr5   Cr    Cr6+3 0.623740 0.299110 0.249580 1.018866
Cr6   Cr    Cr6+3 0.376260 0.299110 0.750420 1.014676
Cr7   Cr    Cr6+3 0.123740 0.799110 0.249580 1.013312
Cr8   Cr    Cr6+3 0.876260 0.799110 0.750420 1.015374
Cr9   Cr    Cr6+3 0.625990 0.036240 0.250480 1.010694
Cr10  Cr    Cr6+3 0.374010 0.036240 0.749520 1.012056
Cr11  Cr    Cr6+3 0.125990 0.536240 0.250480 1.017136
Cr12  Cr    Cr6+3 0.874010 0.536240 0.749520 1.010830
H1    H     H_    0.499956 0.004413 0.872751 0.127992
H2    H     H_    0.546084 0.996394 0.115071 0.132812
H3    H     H_    0.986202 0.498373 0.876605 0.129667
H4    H     H_    0.027136 0.495680 0.119321 0.133509
H5    H     H_    0.851730 0.786045 0.894055 0.127165
H6    H     H_    0.148175 0.782610 0.106058 0.128405
H7    H     H_    0.350184 0.287216 0.894692 0.123182
H8    H     H_    0.693203 0.524700 0.131177 0.122894
H9    H     H_    0.665271 0.833573 0.038100 0.111613
H10   H     H_    0.334137 0.833333 0.961652 0.130686
H11   H     H_    0.164815 0.333633 0.038074 0.124900
H12   H     H_    0.847427 0.392923 0.969143 0.121271
H13   H     H_    0.656103 0.878227 0.125817 0.124680
H14   H     H_    0.344117 0.879456 0.874312 0.135535
H15   H     H_    0.156882 0.375905 0.126247 0.130391
H16   H     H_    0.854179 0.420564 0.880585 0.138117
H17   H     H_    0.559173 0.325907 0.381977 0.134654
H18   H     H_    0.445532 0.327659 0.619417 0.131570
H19   H     H_    0.058681 0.826268 0.381833 0.132909
H20   H     H_    0.944511 0.827294 0.619203 0.133458
H21   H     H_    0.526528 0.016720 0.537273 0.100967
H22   H     H_    0.470580 0.019637 0.461892 0.100235
H23   H     H_    0.027576 0.517573 0.537449 0.103734
H24   H     H_    0.971118 0.519476 0.462070 0.101992
H25   H     H_    0.503320 0.010661 0.625347 0.123262
H26   H     H_    0.493472 0.013822 0.373680 0.123152
H27   H     H_    0.004262 0.511413 0.625538 0.122917
H28   H     H_    0.993843 0.513612 0.373827 0.126217
H29   H     H_    0.539229 0.329825 0.470068 0.100257
H30   H     H_    0.465974 0.332110 0.531405 0.102699
H31   H     H_    0.038722 0.830340 0.469946 0.098695
H32   H     H_    0.965033 0.831764 0.531204 0.099444
H33   H     H_    0.646572 0.915483 0.379415 0.134493
H34   H     H_    0.357426 0.935019 0.618331 0.137684
H35   H     H_    0.213420 0.319224 0.370248 0.105234
H36   H     H_    0.853786 0.416650 0.620350 0.134469
H37   H     H_    0.808636 0.041579 0.538718 0.101386
H38   H     H_    0.186603 0.040710 0.460655 0.096435
H39   H     H_    0.313384 0.538141 0.539317 0.101662
H40   H     H_    0.690778 0.541299 0.461682 0.101271
H41   H     H_    0.821184 0.012231 0.627478 0.123530
H42   H     H_    0.172024 0.007065 0.372721 0.123433
H43   H     H_    0.331655 0.498451 0.625555 0.126723
H44   H     H_    0.678104 0.511908 0.372880 0.123253
H45   H     H_    0.530636 0.912508 0.946798 0.112352
H46   H     H_    0.544649 0.908736 0.036682 0.108310
H47   H     H_    0.005057 0.405058 0.952214 0.114068
H48   H     H_    0.017126 0.403843 0.042262 0.113897
H49   H     H_    0.652139 0.887816 0.467539 0.099420
H50   H     H_    0.353331 0.913816 0.529919 0.100463
H51   H     H_    0.213665 0.292478 0.460639 0.107063
H52   H     H_    0.848311 0.389678 0.532156 0.099255
H53   H     H_    0.687470 0.783474 0.530169 0.099313
H54   H     H_    0.326533 0.811892 0.464944 0.095896
H55   H     H_    0.161457 0.334181 0.537714 0.098964
H56   H     H_    0.813660 0.285359 0.469234 0.099283
H57   H     H_    0.696647 0.758946 0.618352 0.135090
H58   H     H_    0.315894 0.786038 0.376747 0.124777
H59   H     H_    0.180940 0.291230 0.624308 0.128146
H60   H     H_    0.804430 0.260987 0.381041 0.135163
H61   H     H_    0.840762 0.954573 0.465848 0.100656
H62   H     H_    0.161834 0.949952 0.532661 0.100709
H63   H     H_    0.246967 0.617151 0.482727 0.112291
H64   H     H_    0.659276 0.453264 0.534221 0.100432
H65   H     H_    0.834324 0.989722 0.377186 0.123665
H66   H     H_    0.166700 0.980663 0.621906 0.122247
H67   H     H_    0.249753 0.641089 0.393886 0.130131
H68   H     H_    0.665619 0.487984 0.623010 0.123332
H69   H     H_    0.458448 0.328068 0.879938 0.131026
H70   H     H_    0.512959 0.323037 0.124705 0.122942
H71   H     H_    0.969362 0.829086 0.878022 0.129644
H72   H     H_    0.024576 0.827681 0.122973 0.128400
H73   H     H_    0.465607 0.419757 0.959138 0.152122
H74   H     H_    0.482326 0.417156 0.049121 0.138276
H75   H     H_    0.986586 0.924248 0.955924 0.150988
H76   H     H_    0.003293 0.923483 0.045921 0.147972
H77   H     H_    0.827377 0.028741 0.121594 0.131319
H78   H     H_    0.171067 0.024023 0.877374 0.138708
H79   H     H_    0.324887 0.536771 0.119841 0.139248
H80   H     H_    0.667034 0.495374 0.874065 0.133240
H81   H     H_    0.669938 0.957024 0.956978 0.122094
H82   H     H_    0.328080 0.956859 0.042142 0.117284
H83   H     H_    0.168226 0.461138 0.955295 0.119455
H84   H     H_    0.798677 0.270286 0.026088 0.125988
H85   H     H_    0.682408 0.932730 0.866697 0.105602
H86   H     H_    0.316417 0.933542 0.132468 0.106817
H87   H     H_    0.181786 0.434911 0.865166 0.106016
H88   H     H_    0.788244 0.237817 0.114082 0.136213
H89   H     H_    0.838494 0.805814 0.982965 0.125938
H90   H     H_    0.160683 0.801355 0.017007 0.125873
H91   H     H_    0.336377 0.310320 0.983372 0.121010
H92   H     H_    0.707697 0.560864 0.042954 0.121375
O1    O     O_R   0.769900 0.064540 0.196060 -0.525271
O2    O     O_R   0.230100 0.064540 0.803940 -0.518821
O3    O     O_R   0.269900 0.564540 0.196060 -0.518367
O4    O     O_R   0.730100 0.564540 0.803940 -0.515800
O5    O     O_R   0.574760 0.239320 0.300850 -0.504385
O6    O     O_R   0.425240 0.239320 0.699150 -0.503445
O7    O     O_R   0.074760 0.739320 0.300850 -0.504841
O8    O     O_R   0.925240 0.739320 0.699150 -0.503482
O9    O     O_R   0.566290 0.069580 0.305400 -0.521658
O10   O     O_R   0.433710 0.069580 0.694600 -0.524177
O11   O     O_R   0.066290 0.569580 0.305400 -0.514682
O12   O     O_R   0.933710 0.569580 0.694600 -0.522070
O13   O     O_R   0.680760 0.993330 0.302620 -0.506652
O14   O     O_R   0.319240 0.993330 0.697380 -0.507490
O15   O     O_R   0.180760 0.493330 0.302620 -0.496020
O16   O     O_R   0.819240 0.493330 0.697380 -0.505861
O17   O     O_3   0.668770 0.168760 0.250420 -0.239806
O18   O     O_3   0.331230 0.168760 0.749580 -0.241441
O19   O     O_3   0.168770 0.668760 0.250420 -0.243848
O20   O     O_3   0.831230 0.668760 0.749580 -0.241699
O21   O     O_R   0.750800 0.274080 0.199250 -0.506625
O22   O     O_R   0.249200 0.274080 0.800750 -0.497880
O23   O     O_R   0.250800 0.774080 0.199250 -0.497306
O24   O     O_R   0.749200 0.774080 0.800750 -0.497351
O25   O     O_R   0.669990 0.371670 0.194150 -0.513559
O26   O     O_R   0.330010 0.371670 0.805850 -0.515812
O27   O     O_R   0.169990 0.871670 0.194150 -0.514958
O28   O     O_R   0.830010 0.871670 0.805850 -0.515203
O29   O     O_R   0.574600 0.238480 0.197800 -0.496555
O30   O     O_R   0.425400 0.238480 0.802200 -0.506524
O31   O     O_R   0.074600 0.738480 0.197800 -0.505263
O32   O     O_R   0.925400 0.738480 0.802200 -0.505603
O33   O     O_R   0.566130 0.068680 0.194240 -0.525600
O34   O     O_R   0.433870 0.068680 0.805760 -0.520016
O35   O     O_R   0.066130 0.568680 0.194240 -0.522684
O36   O     O_R   0.933870 0.568680 0.805760 -0.524209
O37   O     O_R   0.680610 0.992490 0.199570 -0.503663
O38   O     O_R   0.319390 0.992490 0.800430 -0.502195
O39   O     O_R   0.180610 0.492490 0.199570 -0.504388
O40   O     O_R   0.819390 0.492490 0.800430 -0.505097
O41   O     O_R   0.770060 0.065440 0.307230 -0.522192
O42   O     O_R   0.229940 0.065440 0.692770 -0.519117
O43   O     O_R   0.270060 0.565440 0.307230 -0.521197
O44   O     O_R   0.729940 0.565440 0.692770 -0.522974
O45   O     O_R   0.750960 0.274920 0.302300 -0.505818
O46   O     O_R   0.249040 0.274920 0.697700 -0.504959
O47   O     O_R   0.250960 0.774920 0.302300 -0.510468
O48   O     O_R   0.749040 0.774920 0.697700 -0.506982
O49   O     O_R   0.670160 0.372580 0.305320 -0.523820
O50   O     O_R   0.329840 0.372580 0.694680 -0.524069
O51   O     O_R   0.170160 0.872580 0.305320 -0.522776
O52   O     O_R   0.829840 0.872580 0.694680 -0.521541
C177  C     C_1   0.847274 0.003364 0.027150 0.174097
N1    N     N_1   0.887432 0.036831 0.005975 -0.327750
C178  C     C_1   0.149669 0.995706 0.971433 0.183996
N2    N     N_1   0.108621 0.026987 0.992292 -0.321941
C179  C     C_1   0.342526 0.515348 0.024836 0.178771
N3    N     N_1   0.381180 0.552201 0.003044 -0.329433
C180  C     C_1   0.644448 0.467276 0.968580 0.185102
N4    N     N_1   0.598483 0.477709 0.986943 -0.315548

loop_
_geom_bond_atom_site_label_1
_geom_bond_atom_site_label_2
_ccdc_geom_bond_type
C99   C103  A    
C7    C168  A    
C164  O44   A    
C55   C59   A    
C90   O2    A    
C142  C146  A    
C77   C101  A    
C19   C20   A    
Cr12  O40   S    
C53   C69   A    
C88   C96   A    
C179  N3    T    
C177  N1    T    
C108  C164  S    
Cr10  O18   S    
C37   C69   S    
C26   C50   A    
C95   C99   A    
C29   C33   A    
C100  C104  A    
C3    C74   S    
C9    C13   A    
C146  C150  A    
C11   C15   A    
C12   C16   A    
C142  H58   S    
C169  C174  A    
C172  C175  A    
C141  C145  A    
C108  C112  A    
C138  C154  A    
C6    C165  A    
C21   C22   A    
C135  O47   A    
C112  H36   S    
C174  H46   S    
C41   C49   A    
Cr12  O12   S    
C18   C170  A    
C25   C29   A    
C27   C31   A    
C28   C32   A    
Cr9   O9    S    
C62   C66   A    
C167  C171  A    
C98   C102  A    
C47   O35   A    
C60   C76   A    
Cr6   O26   S    
C78   C82   A    
C102  H25   S    
C175  C176  A    
C54   C70   A    
C147  H55   S    
C16   C20   A    
Cr7   O51   S    
C117  C149  S    
C165  H2    S    
C35   C179  S    
C137  C153  A    
Cr1   O45   S    
C2    O22   A    
Cr3   O47   S    
C140  C156  A    
C20   C172  A    
C175  H47   S    
C132  C152  A    
C55   H83   S    
C62   H6    S    
C56   H84   S    
C109  H33   S    
C89   O1    A    
C84   C88   A    
C68   H92   S    
Cr5   O17   S    
C26   C90   S    
C5    C46   S    
Cr4   O24   S    
C105  C125  A    
Cr2   O22   S    
C7    C48   S    
Cr3   O19   S    
C8    C47   S    
C107  C127  A    
C115  H51   S    
C136  C153  S    
C66   C70   A    
Cr2   O2    S    
C178  N2    T    
C61   C65   A    
C129  C137  A    
C130  H38   S    
C39   C71   S    
C139  H43   S    
C103  H28   S    
C55   C71   A    
C2    C75   S    
Cr9   O37   S    
Cr10  O34   S    
Cr11  O39   S    
C119  C123  A    
C46   O30   A    
C6    C9    A    
Cr2   O46   S    
C129  C149  A    
C127  H67   S    
C64   C68   A    
C133  O49   A    
C118  C150  S    
C86   H30   S    
C57   C73   A    
C83   H19   S    
C123  C127  A    
C78   C158  S    
C92   O40   A    
C87   C95   A    
C130  C150  A    
C141  H57   S    
C23   C24   A    
C27   C91   S    
C110  C114  A    
Cr9   O17   S    
C114  H50   S    
C162  O42   A    
C79   C103  A    
Cr11  O19   S    
C160  O12   A    
C27   C51   A    
C159  O11   A    
C7    C12   A    
C98   H21   S    
C49   H13   S    
C30   C34   A    
C31   H79   S    
C3    O27   A    
C138  H42   S    
C41   H9    S    
C10   C14   A    
C133  O45   A    
C56   C72   A    
C1    O25   A    
C142  C154  A    
C116  C120  A    
C144  C156  A    
C147  C151  A    
C121  C125  A    
C122  H62   S    
C84   H20   S    
C143  C155  A    
C139  C155  A    
C146  H54   S    
C54   C58   A    
C17   C18   A    
C10   H69   S    
C126  H66   S    
C5    C166  A    
C108  C128  A    
C45   O33   A    
C4    C73   S    
Cr12  O16   S    
C42   C50   A    
C113  C117  A    
C4    O28   A    
C26   C30   A    
C115  C119  A    
C105  C161  S    
Cr9   O13   S    
C67   H91   S    
Cr10  O10   S    
C93   C97   A    
C82   H18   S    
Cr11  O15   S    
C58   C74   A    
C105  C109  A    
C40   C72   S    
C1    C76   S    
C107  C111  A    
C148  C152  A    
C107  C163  S    
C163  O15   A    
C44   H12   S    
C57   H85   S    
C171  C176  A    
C100  H23   S    
C13   C17   A    
C166  H1    S    
C14   C22   A    
C92   O4    A    
Cr3   O43   S    
Cr8   O20   S    
C141  C153  A    
C63   C75   A    
C96   C100  A    
C24   H75   S    
Cr7   O7    S    
C54   H82   S    
C48   O36   A    
C37   C41   A    
Cr5   O49   S    
C131  C139  A    
Cr12  O20   S    
C21   H74   S    
C40   C44   A    
C56   C60   A    
C129  H37   S    
C148  H56   S    
C9    H70   S    
C81   C85   A    
C83   C87   A    
C58   H86   S    
C6    C45   S    
C61   H5    S    
C78   C102  A    
C133  C156  S    
C29   H77   S    
Cr6   O18   S    
Cr2   O18   S    
C112  C116  A    
C80   C84   A    
C15   C19   A    
Cr3   O3    S    
C135  C154  S    
C80   C104  A    
C132  H40   S    
C79   C159  S    
C80   C160  S    
C94   C98   A    
C47   O31   A    
C4    O24   A    
C48   O32   A    
C89   O37   A    
C91   O39   A    
Cr1   O17   S    
C173  H45   S    
Cr10  O38   S    
Cr11  O35   S    
C12   H71   S    
Cr4   O4    S    
C60   H88   S    
Cr5   O5    S    
C124  C128  A    
C50   H14   S    
C165  C169  A    
Cr7   O27   S    
Cr7   O19   S    
C51   H15   S    
C137  H41   S    
C53   C57   A    
C157  O5    A    
C61   C73   A    
C82   C86   A    
C33   C37   A    
C88   H32   S    
C52   H16   S    
C35   C39   A    
C8    C167  A    
C180  N4    T    
Cr4   O44   S    
C42   H10   S    
C101  H26   S    
C111  H35   S    
Cr4   O48   S    
C38   C70   S    
C140  H44   S    
C65   H89   S    
C63   H7    S    
C136  O48   A    
C110  H34   S    
C32   C36   A    
C164  O16   A    
C2    O26   A    
C161  O13   A    
C104  H27   S    
C132  C140  A    
C106  C126  A    
C25   C89   S    
C11   H72   S    
C45   O29   A    
Cr12  O36   S    
C79   C83   A    
C43   C51   A    
C23   H76   S    
C65   C69   A    
C143  H59   S    
C67   C71   A    
C106  C162  S    
Cr10  O14   S    
C25   C49   A    
Cr11  O11   S    
C131  H39   S    
C168  C172  A    
C124  H64   S    
C77   C81   A    
C134  O46   A    
Cr7   O31   S    
C62   C74   A    
C145  C149  A    
C170  C173  A    
C93   C94   S    
C34   C178  S    
C28   C52   A    
C14   C18   A    
C95   C96   S    
C144  C148  A    
C173  C174  A    
C143  C147  A    
C167  H4    S    
C168  H3    S    
C19   C171  A    
C38   C42   A    
C163  O43   A    
Cr8   O28   S    
C17   C169  A    
C22   H73   S    
C64   H8    S    
C117  C121  A    
C85   H29   S    
C86   C94   A    
C128  H68   S    
C134  C155  S    
Cr5   O25   S    
Cr6   O30   S    
C32   H80   S    
C30   H78   S    
C87   H31   S    
C68   C72   A    
C15   C23   A    
C161  O41   A    
C16   C24   A    
C33   C177  S    
Cr1   O41   S    
C3    O23   A    
C99   H24   S    
C119  C151  S    
C63   C67   A    
C120  C152  S    
C97   H22   S    
C13   C21   A    
C157  O9    A    
C36   C40   A    
C90   O38   A    
C39   C43   A    
Cr6   O50   S    
C159  O7    A    
C59   H87   S    
C160  O8    A    
C122  C126  A    
C118  C122  A    
C123  H63   S    
Cr6   O6    S    
C121  H61   S    
C85   C93   A    
Cr4   O20   S    
Cr1   O21   S    
C64   C76   A    
C145  H53   S    
C28   C92   S    
Cr3   O23   S    
C114  C118  A    
C1    O21   A    
Cr8   O52   S    
Cr1   O1    S    
C53   H81   S    
C144  H60   S    
C36   C180  S    
C59   C75   A    
C81   H17   S    
C106  C110  A    
C158  O6    A    
C135  O51   A    
Cr5   O29   S    
C34   C38   A    
C111  C115  A    
C134  O50   A    
C125  H65   S    
C136  O52   A    
C109  C113  A    
C116  H52   S    
Cr9   O33   S    
C5    C10   A    
C46   O34   A    
C91   O3    A    
Cr2   O42   S    
C44   C52   A    
C176  H48   S    
C8    C11   A    
C113  H49   S    
C166  C170  A    
C131  C151  A    
C66   H90   S    
C31   C35   A    
Cr8   O8    S    
C158  O10   A    
C43   H11   S    
Cr8   O32   S    
C162  O14   A    
C97   C101  A    
C120  C124  A    
C77   C157  S    
C130  C138  A    
