data_mof_unit_34250.cif
_audit_creation_date              2012-10-26T18:44:53-0400
_audit_creation_method            fapswitch 2.2
_symmetry_space_group_name_H-M    P1
_symmetry_Int_Tables_number       1
_space_group_crystal_system       triclinic
_cell_length_a                    16.028431
_cell_length_b                    14.750768
_cell_length_c                    10.930156
_cell_angle_alpha                 90.341928
_cell_angle_beta                  89.838782
_cell_angle_gamma                 88.683316
_cell_volume                      2583.49540438

loop_
_atom_site_label
_atom_site_type_symbol
_atom_type_description
_atom_site_fract_x
_atom_site_fract_y
_atom_site_fract_z
_atom_type_partial_charge
C1    C     C_1   0.251319 0.501620 0.495993 -0.048608
C2    C     C_R   0.577874 0.046366 0.503897 0.207373
C3    C     C_R   0.952331 0.528630 0.398574 0.240902
C4    C     C_R   0.045232 0.456728 0.595229 0.246800
C5    C     C_R   0.039756 0.531430 0.396370 0.243665
C6    C     C_R   0.957740 0.460400 0.601720 0.237958
C7    C     C_R   0.340668 0.500781 0.498861 0.540561
C8    C     C_R   0.658941 0.499032 0.501812 0.535780
C9    C     C_R   0.499914 0.499615 0.261561 0.581707
C10   C     C_R   0.499485 0.500565 0.738487 0.583632
C11   C     C_R   0.911645 0.494437 0.502132 -0.062119
C12   C     C_1   0.747559 0.496650 0.504583 -0.039655
C13   C     C_R   0.086446 0.495251 0.494529 -0.058757
C14   C     C_1   0.501108 0.802678 0.503089 0.210150
C15   C     C_1   0.501190 0.197423 0.503764 0.171142
C16   C     C_1   0.822305 0.495058 0.505255 -0.010353
C17   C     C_1   0.176249 0.499476 0.494135 -0.013857
C18   C     C_R   0.436189 0.658925 0.110355 0.138919
C19   C     C_R   0.440489 0.343889 0.888898 0.138060
C20   C     C_R   0.529998 0.668043 0.893639 0.146611
C21   C     C_R   0.539562 0.332762 0.100193 0.126979
C22   C     C_R   0.441924 0.742088 0.047686 0.251198
C23   C     C_R   0.496403 0.501854 0.872554 -0.010655
C24   C     C_R   0.458405 0.258421 0.941445 0.268066
C25   C     C_R   0.494899 0.747964 0.945021 0.256951
C26   C     C_R   0.516331 0.252713 0.038052 0.265126
C27   C     C_R   0.505656 0.583374 0.941219 -0.066357
C28   C     C_R   0.506822 0.417459 0.058497 -0.068004
C29   C     C_R   0.480108 0.581280 0.063298 -0.059710
C30   C     C_R   0.480360 0.420971 0.937355 -0.056714
C31   C     C_3   0.092709 0.661229 0.320918 -0.004281
C32   C     C_3   0.097544 0.712847 0.200954 -0.369848
C33   C     C_3   0.889362 0.352863 0.711258 0.004551
C34   C     C_R   0.497000 0.499235 0.127707 -0.010455
C35   C     C_3   0.860031 0.330333 0.839894 -0.359949
C36   C     C_3   0.870867 0.640835 0.310345 0.000753
C37   C     C_3   0.790300 0.646884 0.237081 -0.372057
C38   C     C_3   0.116908 0.329002 0.654613 -0.010346
C39   C     C_3   0.123710 0.268701 0.766853 -0.374452
C40   C     C_3   0.515042 0.118000 0.140786 -0.036538
C41   C     C_3   0.576286 0.052932 0.202000 -0.351646
C42   C     C_3   0.562411 0.881801 0.940481 -0.028704
C43   C     C_3   0.566912 0.972045 0.874299 -0.358012
C44   C     C_3   0.347859 0.164409 0.932284 -0.043181
C45   C     C_R   0.501988 0.903040 0.507459 -0.070018
C46   C     C_3   0.310133 0.088018 0.858377 -0.358811
C47   C     C_3   0.327371 0.833501 0.021074 -0.000432
C48   C     C_3   0.275223 0.909898 0.078776 -0.402159
C49   C     C_3   0.680115 0.122293 0.603617 0.009253
C50   C     C_3   0.772253 0.143421 0.594043 -0.376567
C51   C     C_3   0.318784 0.886332 0.421571 -0.003145
C52   C     C_3   0.260393 0.807983 0.438202 -0.384823
C53   C     C_3   0.327350 0.129953 0.405564 -0.009728
C54   C     C_3   0.233791 0.149529 0.403955 -0.373594
C55   C     C_3   0.690967 0.874166 0.576862 0.005836
C56   C     C_R   0.501875 0.097375 0.508529 -0.078774
C57   C     C_3   0.750495 0.795417 0.546573 -0.380736
C58   C     C_3   0.308626 0.590227 0.180314 -0.295594
C59   C     C_3   0.309660 0.414573 0.823031 -0.302468
C60   C     C_3   0.673851 0.632034 0.836287 -0.305734
C61   C     C_3   0.680207 0.372404 0.159360 -0.277448
C62   C     C_R   0.577594 0.950041 0.498362 0.217650
C63   C     C_R   0.426085 0.050219 0.514290 0.235871
C64   C     C_R   0.426601 0.954064 0.518079 0.239404
Cu1   Cu    Cu3+1 0.500000 0.589220 0.500000 1.005903
Cu2   Cu    Cu3+1 0.500000 0.410780 0.500000 0.997469
H1    H     H_    0.152369 0.667169 0.370861 0.126970
H2    H     H_    0.912181 0.337824 0.905629 0.176118
H3    H     H_    0.913784 0.692199 0.274274 0.136345
H4    H     H_    0.855938 0.658848 0.407294 0.104939
H5    H     H_    0.745642 0.596102 0.270425 0.157339
H6    H     H_    0.761366 0.715652 0.247425 0.109850
H7    H     H_    0.803495 0.633808 0.138650 0.155631
H8    H     H_    0.179430 0.332276 0.611101 0.135087
H9    H     H_    0.074059 0.295521 0.588723 0.096891
H10   H     H_    0.061339 0.261088 0.809422 0.152138
H11   H     H_    0.148734 0.200634 0.739852 0.097212
H12   H     H_    0.042629 0.694552 0.377709 0.099799
H13   H     H_    0.166054 0.298544 0.835268 0.151802
H14   H     H_    0.469629 0.076870 0.089672 0.160161
H15   H     H_    0.481877 0.158196 0.213718 0.099841
H16   H     H_    0.618865 0.091547 0.261317 0.205116
H17   H     H_    0.541660 0.003034 0.256743 0.112711
H18   H     H_    0.614818 0.015999 0.132826 0.151437
H19   H     H_    0.624854 0.847237 0.935081 0.113342
H20   H     H_    0.546091 0.895311 0.037997 0.167250
H21   H     H_    0.507325 0.010839 0.886076 0.212598
H22   H     H_    0.618754 0.012453 0.911307 0.126603
H23   H     H_    0.038759 0.705516 0.148758 0.168618
H24   H     H_    0.577693 0.960475 0.775199 0.132605
H25   H     H_    0.305741 0.225003 0.923733 0.121934
H26   H     H_    0.349277 0.144803 0.030240 0.102748
H27   H     H_    0.349851 0.025616 0.865249 0.176014
H28   H     H_    0.246756 0.073830 0.893601 0.084473
H29   H     H_    0.305119 0.107957 0.760888 0.210992
H30   H     H_    0.288430 0.771887 0.017403 0.119789
H31   H     H_    0.343864 0.853734 0.926300 0.188307
H32   H     H_    0.313407 0.971237 0.090359 0.147091
H33   H     H_    0.220952 0.926545 0.019464 0.100598
H34   H     H_    0.106959 0.785959 0.219651 0.081245
H35   H     H_    0.251748 0.888703 0.169434 0.133148
H36   H     H_    0.672423 0.071877 0.678097 0.107494
H37   H     H_    0.645358 0.185695 0.629123 0.154037
H38   H     H_    0.781637 0.198393 0.526705 0.152589
H39   H     H_    0.795641 0.165420 0.684457 0.082967
H40   H     H_    0.808376 0.081958 0.564390 0.157578
H41   H     H_    0.367114 0.865054 0.352755 0.138492
H42   H     H_    0.282030 0.944514 0.384694 0.143838
H43   H     H_    0.295041 0.748187 0.475232 0.181488
H44   H     H_    0.208747 0.827592 0.501657 0.154940
H45   H     H_    0.150087 0.686338 0.144274 0.149550
H46   H     H_    0.234044 0.790030 0.348011 0.076257
H47   H     H_    0.342643 0.080786 0.330349 0.086972
H48   H     H_    0.359064 0.194425 0.386177 0.139489
H49   H     H_    0.217079 0.201067 0.474796 0.147682
H50   H     H_    0.214995 0.175842 0.312878 0.089636
H51   H     H_    0.199382 0.086609 0.422679 0.150645
H52   H     H_    0.646656 0.850827 0.647773 0.107264
H53   H     H_    0.727826 0.930380 0.615119 0.142933
H54   H     H_    0.715189 0.737662 0.509040 0.177612
H55   H     H_    0.797204 0.816747 0.477890 0.146946
H56   H     H_    0.938943 0.302670 0.684233 0.122872
H57   H     H_    0.783610 0.772957 0.630585 0.087906
H58   H     H_    0.356414 0.710809 0.246437 0.274823
H59   H     H_    0.263733 0.591671 0.257557 0.159061
H60   H     H_    0.331995 0.519330 0.169269 0.148799
H61   H     H_    0.275980 0.611276 0.095302 0.127322
H62   H     H_    0.362254 0.294656 0.750428 0.286424
H63   H     H_    0.266235 0.417335 0.744514 0.171096
H64   H     H_    0.331252 0.484463 0.839404 0.150350
H65   H     H_    0.275931 0.391310 0.905531 0.125799
H66   H     H_    0.600125 0.735640 0.762455 0.270691
H67   H     H_    0.835680 0.346482 0.647896 0.124396
H68   H     H_    0.718098 0.637522 0.758460 0.147854
H69   H     H_    0.666838 0.558939 0.856656 0.153006
H70   H     H_    0.700179 0.667051 0.917268 0.121501
H71   H     H_    0.613081 0.265935 0.230839 0.280512
H72   H     H_    0.724124 0.368071 0.237634 0.151434
H73   H     H_    0.668494 0.445253 0.139057 0.140297
H74   H     H_    0.709574 0.338379 0.078553 0.143943
H75   H     H_    0.807692 0.376872 0.867289 0.153833
H76   H     H_    0.838434 0.259550 0.843624 0.084986
N1    N     N_1   0.500000 0.276710 0.500000 -0.199078
N2    N     N_1   0.500000 0.723290 0.500000 -0.188106
N3    N     N_2   0.376299 0.650721 0.206413 -0.472259
N4    N     N_2   0.379080 0.353233 0.794915 -0.475685
N5    N     N_2   0.594401 0.673598 0.803581 -0.465541
N6    N     N_2   0.603345 0.328460 0.191101 -0.462002
O1    O     O_R   0.380310 0.575320 0.500020 -0.496160
O2    O     O_3   0.918888 0.442217 0.711868 -0.517126
O3    O     O_3   0.907509 0.553214 0.295075 -0.516997
O4    O     O_3   0.089508 0.417332 0.690470 -0.523134
O5    O     O_3   0.559693 0.172265 0.058836 -0.556135
O6    O     O_3   0.501471 0.829037 0.883402 -0.564086
O7    O     O_3   0.429301 0.180094 0.888080 -0.554317
O8    O     O_3   0.399971 0.818589 0.091694 -0.582507
O9    O     O_3   0.652895 0.089523 0.489175 -0.547308
O10   O     O_3   0.352571 0.909861 0.536263 -0.523351
O11   O     O_3   0.350337 0.097010 0.522432 -0.537650
O12   O     O_R   0.619690 0.424680 0.499980 -0.492435
O13   O     O_3   0.650482 0.902689 0.468766 -0.529574
O14   O     O_R   0.619690 0.575320 0.499980 -0.503496
O15   O     O_R   0.380310 0.424680 0.500020 -0.492429
O16   O     O_R   0.499990 0.575350 0.319650 -0.471788
O17   O     O_R   0.500010 0.424650 0.680350 -0.468487
O18   O     O_R   0.500010 0.575350 0.680350 -0.465208
O19   O     O_R   0.499990 0.424650 0.319650 -0.479466
O20   O     O_3   0.078706 0.568629 0.296143 -0.521720

loop_
_geom_bond_atom_site_label_1
_geom_bond_atom_site_label_2
_ccdc_geom_bond_type
C21   C26   A    
C59   H64   S    
C50   H38   S    
C32   H45   S    
C27   C29   A    
H71   N6    S    
C63   O11   S    
C18   N3    S    
Cu2   O12   S    
C58   N3    S    
C55   H53   S    
C53   C54   S    
C36   H3    S    
C31   H1    S    
C59   H65   S    
Cu2   O19   S    
C43   H22   S    
C39   H11   S    
C20   N5    S    
C36   C37   S    
C42   O6    S    
C61   N6    S    
C24   C26   A    
C33   O2    S    
C2    O9    S    
C38   C39   S    
C61   H72   S    
C62   O13   S    
C20   C25   A    
C48   H35   S    
C41   H17   S    
C45   C62   A    
C35   H2    S    
C5    O20   S    
C4    C13   A    
C49   C50   S    
C7    O1    A    
C46   H29   S    
C12   C16   T    
C44   C46   S    
C51   H42   S    
C22   C25   A    
C54   H50   S    
Cu1   O14   S    
C50   H39   S    
C47   H30   S    
C40   H14   S    
C42   H20   S    
C60   N5    S    
C23   C27   A    
C60   H70   S    
C5    C13   A    
C44   H26   S    
C24   O7    S    
C10   O18   A    
C28   C34   A    
C58   H61   S    
C1    C7    S    
C44   O7    S    
C49   O9    S    
C38   O4    S    
C53   H47   S    
C14   C45   S    
C38   H9    S    
C4    O4    S    
C14   N2    T    
C53   O11   S    
C19   N4    S    
C51   C52   S    
C43   H24   S    
C23   C30   A    
C9    O19   A    
C55   O13   S    
C4    C6    A    
C6    C11   A    
C18   C29   A    
Cu1   N2    S    
C61   H73   S    
C22   O8    S    
Cu2   N1    S    
C41   H18   S    
C7    O15   A    
Cu1   O18   S    
C32   H34   S    
C39   H13   S    
C9    O16   A    
C21   N6    S    
C57   H57   S    
C11   C16   S    
C47   C48   S    
C46   H28   S    
C52   H44   S    
C8    C12   S    
C54   H49   S    
C56   C63   A    
C61   H74   S    
C42   H19   S    
C39   H10   S    
C60   H69   S    
C44   H25   S    
C35   H75   S    
C57   H54   S    
C15   N1    T    
C40   C41   S    
C36   H4    S    
C21   C28   A    
C58   H60   S    
C55   C57   S    
C32   H23   S    
C9    C34   S    
C40   O5    S    
C37   H6    S    
C42   C43   S    
C8    O12   A    
C60   H68   S    
C49   H36   S    
C53   H48   S    
C31   H12   S    
C38   H8    S    
C48   H33   S    
C37   H7    S    
C59   H63   S    
C51   O10   S    
Cu2   O17   S    
C25   O6    S    
C18   C22   A    
H66   N5    S    
C1    C17   T    
C40   H15   S    
C31   C32   S    
C3    C5    A    
C49   H37   S    
C36   O3    S    
C20   C27   A    
C10   C23   S    
C48   H32   S    
H58   N3    S    
C45   C64   A    
C3    O3    S    
C47   H31   S    
C13   C17   S    
C43   H21   S    
C15   C56   S    
C37   H5    S    
C19   C24   A    
C8    O14   A    
H62   N4    S    
C33   H56   S    
C46   H27   S    
C52   H43   S    
C10   O17   A    
C41   H16   S    
C29   C34   A    
Cu1   O16   S    
C28   C30   A    
C33   C35   S    
Cu2   O15   S    
Cu1   O1    S    
C3    C11   A    
C35   H76   S    
C57   H55   S    
C63   C64   A    
C6    O2    S    
C59   N4    S    
C33   H67   S    
C31   O20   S    
C58   H59   S    
C51   H41   S    
Cu1   Cu2   S    
C47   O8    S    
C54   H51   S    
C64   O10   S    
C50   H40   S    
C52   H46   S    
C26   O5    S    
C2    C56   A    
C19   C30   A    
C2    C62   A    
C55   H52   S    
