data_mof_unit_54489.cif
_audit_creation_date              2012-10-26T21:32:56-0400
_audit_creation_method            fapswitch 2.2
_symmetry_space_group_name_H-M    P1
_symmetry_Int_Tables_number       1
_space_group_crystal_system       triclinic
_cell_length_a                    28.172811
_cell_length_b                    18.47101
_cell_length_c                    17.087795
_cell_angle_alpha                 89.79033
_cell_angle_beta                  61.030597
_cell_angle_gamma                 89.781535
_cell_volume                      7779.47868274

loop_
_atom_site_label
_atom_site_type_symbol
_atom_type_description
_atom_site_fract_x
_atom_site_fract_y
_atom_site_fract_z
_atom_type_partial_charge
C1    C     C_R   0.703043 0.270964 0.675021 0.936897
C2    C     C_R   0.975275 0.629594 0.425302 0.492084
C3    C     C_R   0.075274 0.902349 0.932922 0.935870
C4    C     C_R   0.573476 0.600346 0.934439 0.916795
C5    C     C_R   0.424588 0.402585 0.067291 0.935822
C6    C     C_R   0.426164 0.599967 0.065714 0.915083
C7    C     C_R   0.575274 0.402349 0.932922 0.935870
C8    C     C_R   0.559047 0.997167 0.472944 -0.111720
C9    C     C_R   0.470868 0.998581 0.438652 -0.110767
C10   C     C_R   0.059047 0.497167 0.472943 -0.111713
C11   C     C_R   0.970868 0.498581 0.438653 -0.110759
C12   C     C_R   0.548619 0.059694 0.435331 -0.056633
C13   C     C_R   0.973257 0.367892 0.430561 0.509113
C14   C     C_R   0.490568 0.932363 0.453299 -0.065051
C15   C     C_R   0.499078 0.063620 0.431741 -0.046394
C16   C     C_R   0.528228 0.933767 0.486076 -0.063211
C17   C     C_R   0.048619 0.559694 0.435331 -0.056651
C18   C     C_R   0.990568 0.432363 0.453299 -0.065050
C19   C     C_R   0.999078 0.563620 0.431742 -0.046410
C20   C     C_R   0.028228 0.433767 0.486076 -0.063210
C21   C     C_R   0.612541 0.935800 0.532239 0.025130
C22   C     C_R   0.397671 0.065389 0.430683 0.021145
C23   C     C_R   0.396746 0.933369 0.433267 0.013617
C24   C     C_R   0.089372 0.613778 0.400504 0.508195
C25   C     C_R   0.633561 0.059581 0.479278 0.010363
C26   C     C_R   0.112541 0.435800 0.532238 0.025130
C27   C     C_R   0.897671 0.565388 0.430683 0.021135
C28   C     C_R   0.896746 0.433369 0.433267 0.013617
C29   C     C_R   0.133561 0.559581 0.479277 0.010359
C30   C     C_R   0.659496 0.935759 0.543787 -0.101920
C31   C     C_R   0.343722 0.064930 0.442316 -0.091180
C32   C     C_R   0.343304 0.934799 0.443255 -0.095539
C33   C     C_R   0.670690 0.061971 0.513369 -0.085716
C34   C     C_R   0.159497 0.435760 0.543787 -0.101920
C35   C     C_R   0.534434 0.875845 0.535311 0.498897
C36   C     C_R   0.843722 0.564930 0.442317 -0.091180
C37   C     C_R   0.843304 0.434799 0.443255 -0.095539
C38   C     C_R   0.170690 0.561971 0.513368 -0.085717
C39   C     C_R   0.683571 0.000059 0.544088 -0.313860
C40   C     C_R   0.318872 0.000029 0.444876 -0.314397
C41   C     C_R   0.183571 0.500059 0.544087 -0.313859
C42   C     C_R   0.818871 0.500029 0.444877 -0.314395
C43   C     C_R   0.601241 0.997718 0.495691 0.055017
C44   C     C_R   0.421930 0.999223 0.433511 0.059407
C45   C     C_R   0.101242 0.497718 0.495690 0.055016
C46   C     C_R   0.475275 0.129593 0.425301 0.492090
C47   C     C_R   0.921930 0.499223 0.433512 0.059406
C48   C     C_R   0.076824 0.376750 0.555898 -0.298977
C49   C     C_R   0.927903 0.629146 0.418331 -0.318938
C50   C     C_R   0.926998 0.369082 0.420415 -0.299913
C51   C     C_R   0.129946 0.614530 0.425063 -0.314126
C52   C     C_R   0.576824 0.876750 0.555898 -0.298977
C53   C     C_R   0.427903 0.129146 0.418330 -0.318962
C54   C     C_R   0.426998 0.869082 0.420415 -0.299913
C55   C     C_R   0.629946 0.114530 0.425063 -0.314138
C56   C     C_3   0.952506 0.340617 0.647967 0.092649
C57   C     C_R   0.473257 0.867892 0.430561 0.509114
C58   C     C_3   0.912358 0.278315 0.684065 -0.788333
C59   C     C_3   0.972041 0.714233 0.523770 0.106646
C60   C     C_3   0.997767 0.783771 0.532554 -0.779427
C61   C     C_3   0.051090 0.309446 0.333166 0.100427
C62   C     C_3   0.080265 0.236807 0.311262 -0.800195
C63   C     C_3   0.116749 0.631055 0.253002 0.086046
C64   C     C_3   0.116077 0.684292 0.185500 -0.762745
C65   C     C_3   0.452506 0.840617 0.647967 0.092649
C66   C     C_3   0.412358 0.778315 0.684065 -0.788332
C67   C     C_3   0.472031 0.214242 0.523766 0.106623
C68   C     C_R   0.589372 0.113778 0.400504 0.508213
C69   C     C_3   0.497774 0.283763 0.532554 -0.779416
C70   C     C_3   0.551090 0.809446 0.333166 0.100427
C71   C     C_3   0.580264 0.736807 0.311263 -0.800193
C72   C     C_3   0.616751 0.131052 0.253001 0.086038
C73   C     C_3   0.616078 0.184287 0.185498 -0.762740
C74   C     C_3   0.670663 0.448428 0.723666 0.109426
C75   C     C_3   0.658972 0.499249 0.664825 -0.709070
C76   C     C_3   0.443837 0.732718 0.184543 0.121678
C77   C     C_3   0.487104 0.717115 0.211118 -0.808118
C78   C     C_3   0.328036 0.449230 0.276175 0.107586
C79   C     C_R   0.715419 0.257002 0.958843 0.136705
C80   C     C_3   0.339070 0.500085 0.335269 -0.703973
C81   C     C_3   0.559104 0.734537 0.804654 0.120073
C82   C     C_3   0.520085 0.722163 0.768256 -0.796632
C83   C     C_3   0.170663 0.948428 0.723666 0.109425
C84   C     C_3   0.158972 0.999249 0.664825 -0.709071
C85   C     C_3   0.943838 0.232717 0.184543 0.121680
C86   C     C_3   0.987104 0.217115 0.211118 -0.808118
C87   C     C_3   0.828036 0.949230 0.276175 0.107587
C88   C     C_3   0.839069 0.000085 0.335269 -0.703972
C89   C     C_3   0.059104 0.234537 0.804654 0.120073
C90   C     C_R   0.272910 0.723898 0.052956 0.139830
C91   C     C_3   0.020085 0.222163 0.768256 -0.796629
C92   C     C_R   0.283333 0.259551 0.042079 0.136687
C93   C     C_R   0.298112 0.731140 0.324123 0.893129
C94   C     C_R   0.724693 0.727165 0.949577 0.135129
C95   C     C_R   0.215419 0.757002 0.958843 0.136704
C96   C     C_R   0.772910 0.223898 0.052956 0.139830
C97   C     C_R   0.783333 0.759551 0.042079 0.136687
C98   C     C_R   0.224693 0.227165 0.949577 0.135129
C99   C     C_R   0.739113 0.188424 0.950885 -0.201359
C100  C     C_R   0.249012 0.792239 0.061017 -0.197086
C101  C     C_R   0.258434 0.191743 0.052246 -0.190898
C102  C     C_R   0.749832 0.794733 0.939232 -0.194115
C103  C     C_R   0.239113 0.688424 0.950885 -0.201359
C104  C     C_R   0.296779 0.271342 0.325158 0.920425
C105  C     C_R   0.749012 0.292239 0.061018 -0.197085
C106  C     C_R   0.758434 0.691743 0.052246 -0.190898
C107  C     C_R   0.249831 0.294733 0.939232 -0.194116
C108  C     C_R   0.767276 0.171965 0.997681 -0.194316
C109  C     C_R   0.220820 0.808571 0.014607 -0.195647
C110  C     C_R   0.229683 0.175690 0.006429 -0.188586
C111  C     C_R   0.778566 0.810693 0.984795 -0.189718
C112  C     C_R   0.267275 0.671965 0.997681 -0.194316
C113  C     C_R   0.720820 0.308570 0.014608 -0.195648
C114  C     C_R   0.729683 0.675690 0.006429 -0.188586
C115  C     C_R   0.701718 0.731424 0.675886 0.910137
C116  C     C_R   0.278566 0.310693 0.984795 -0.189718
C117  C     C_R   0.640674 0.321745 0.947333 -0.292085
C118  C     C_R   0.352679 0.667050 0.057864 -0.288240
C119  C     C_R   0.358478 0.323590 0.053201 -0.289536
C120  C     C_R   0.645381 0.669664 0.943838 -0.289103
C121  C     C_R   0.140674 0.821745 0.947333 -0.292085
C122  C     C_R   0.852679 0.167050 0.057864 -0.288239
C123  C     C_R   0.858478 0.823590 0.053201 -0.289536
C124  C     C_R   0.145381 0.169664 0.943838 -0.289103
C125  C     C_R   0.620244 0.353534 0.894666 -0.179773
C126  C     C_R   0.203043 0.770964 0.675021 0.936897
C127  C     C_R   0.383372 0.653105 0.101451 -0.186840
C128  C     C_R   0.379275 0.354457 0.105692 -0.181480
C129  C     C_R   0.615600 0.654303 0.899077 -0.181043
C130  C     C_R   0.120244 0.853534 0.894666 -0.179773
C131  C     C_R   0.883372 0.153105 0.101451 -0.186840
C132  C     C_R   0.879275 0.854457 0.105692 -0.181480
C133  C     C_R   0.115600 0.154303 0.899077 -0.181043
C134  C     C_R   0.645817 0.343498 0.803528 0.401525
C135  C     C_R   0.370253 0.685385 0.182449 0.394028
C136  C     C_R   0.353614 0.344399 0.196795 0.401495
C137  C     C_R   0.798112 0.231140 0.324123 0.893129
C138  C     C_R   0.629098 0.685896 0.817405 0.389442
C139  C     C_R   0.145817 0.843498 0.803528 0.401525
C140  C     C_R   0.870253 0.185385 0.182449 0.394027
C141  C     C_R   0.853614 0.844399 0.196795 0.401496
C142  C     C_R   0.129098 0.185896 0.817405 0.389442
C143  C     C_R   0.683133 0.288314 0.767898 -0.175565
C144  C     C_R   0.320028 0.717966 0.229212 -0.162312
C145  C     C_R   0.316381 0.289342 0.232457 -0.170721
C146  C     C_R   0.679020 0.719268 0.771316 -0.171327
C147  C     C_R   0.183133 0.788314 0.767898 -0.175565
C148  C     C_R   0.796779 0.771342 0.325158 0.920424
C149  C     C_R   0.820028 0.217967 0.229212 -0.162312
C150  C     C_R   0.816381 0.789342 0.232457 -0.170721
C151  C     C_R   0.179020 0.219268 0.771316 -0.171327
C152  C     C_R   0.705380 0.256191 0.818720 -0.279341
C153  C     C_R   0.288255 0.732153 0.186899 -0.291729
C154  C     C_R   0.293887 0.257985 0.181889 -0.280239
C155  C     C_R   0.709865 0.734819 0.814767 -0.281458
C156  C     C_R   0.205380 0.756191 0.818720 -0.279342
C157  C     C_R   0.788255 0.232153 0.186899 -0.291729
C158  C     C_R   0.793887 0.757985 0.181889 -0.280239
C159  C     C_R   0.201718 0.231424 0.675886 0.910138
C160  C     C_R   0.209865 0.234819 0.814767 -0.281459
C161  C     C_R   0.686341 0.276801 0.908146 0.086654
C162  C     C_R   0.305194 0.708241 0.099458 0.080808
C163  C     C_R   0.312654 0.279047 0.092534 0.084586
C164  C     C_R   0.692562 0.711392 0.902720 0.083382
C165  C     C_R   0.186341 0.776801 0.908146 0.086653
C166  C     C_R   0.805194 0.208241 0.099458 0.080808
C167  C     C_R   0.812654 0.779047 0.092534 0.084587
C168  C     C_R   0.192562 0.211392 0.902720 0.083382
C169  C     C_R   0.696908 0.127798 0.516859 0.888622
C170  C     C_R   0.034434 0.375845 0.535311 0.498896
C171  C     C_R   0.308647 0.870699 0.465358 0.876050
C172  C     C_R   0.308837 0.129358 0.464986 0.881675
C173  C     C_R   0.691375 0.870715 0.533875 0.871938
C174  C     C_R   0.196908 0.627798 0.516858 0.888622
C175  C     C_R   0.808647 0.370699 0.465358 0.876050
C176  C     C_R   0.808837 0.629358 0.464986 0.881673
C177  C     C_R   0.191375 0.370715 0.533874 0.871939
C178  C     C_R   0.073476 0.100346 0.934439 0.916795
C179  C     C_R   0.924588 0.902585 0.067291 0.935822
C180  C     C_R   0.926164 0.099967 0.065714 0.915082
H1    H     H_    0.715597 0.000781 0.562077 0.190211
H2    H     H_    0.415919 0.180620 0.403617 0.208487
H3    H     H_    0.580600 0.786737 0.777322 0.117601
H4    H     H_    0.534804 0.738160 0.878980 0.109990
H5    H     H_    0.497526 0.670835 0.795452 0.253090
H6    H     H_    0.490577 0.767560 0.788415 0.192723
H7    H     H_    0.542806 0.719049 0.694095 0.261598
H8    H     H_    0.213715 0.930311 0.684840 0.122386
H9    H     H_    0.165087 0.979380 0.783431 0.121548
H10   H     H_    0.116487 0.019188 0.702044 0.270257
H11   H     H_    0.186885 0.046308 0.644824 0.212913
H12   H     H_    0.165085 0.970467 0.603664 0.239938
H13   H     H_    0.416816 0.819271 0.399327 0.198152
H14   H     H_    0.925360 0.286540 0.211716 0.123942
H15   H     H_    0.964278 0.234502 0.109971 0.105498
H16   H     H_    0.005286 0.162883 0.186390 0.260697
H17   H     H_    0.019599 0.258425 0.181013 0.191890
H18   H     H_    0.968998 0.218507 0.285055 0.261934
H19   H     H_    0.785067 0.930920 0.314668 0.125081
H20   H     H_    0.833670 0.980246 0.216193 0.118239
H21   H     H_    0.881445 0.020231 0.298434 0.269499
H22   H     H_    0.810874 0.047006 0.354808 0.204989
H23   H     H_    0.832827 0.971273 0.396689 0.243141
H24   H     H_    0.660268 0.156546 0.396470 0.191489
H25   H     H_    0.080600 0.286737 0.777322 0.117600
H26   H     H_    0.034804 0.238160 0.878980 0.109990
H27   H     H_    0.997525 0.170835 0.795452 0.253089
H28   H     H_    0.990577 0.267560 0.788415 0.192722
H29   H     H_    0.042806 0.219049 0.694095 0.261598
H30   H     H_    0.704213 0.362531 0.020932 0.137192
H31   H     H_    0.284353 0.618282 0.990960 0.128978
H32   H     H_    0.295984 0.364155 0.976740 0.131384
H33   H     H_    0.711811 0.622507 0.014968 0.130771
H34   H     H_    0.204213 0.862532 0.020931 0.137193
H35   H     H_    0.784353 0.118282 0.990959 0.128978
H36   H     H_    0.795984 0.864155 0.976740 0.131385
H37   H     H_    0.277892 0.000252 0.454549 0.194355
H38   H     H_    0.211811 0.122507 0.014968 0.130771
H39   H     H_    0.735347 0.147206 0.909364 0.131161
H40   H     H_    0.253235 0.833900 0.101630 0.136127
H41   H     H_    0.261610 0.150730 0.094897 0.130562
H42   H     H_    0.746193 0.836165 0.897445 0.130112
H43   H     H_    0.235346 0.647206 0.909365 0.131161
H44   H     H_    0.753234 0.333900 0.101631 0.136127
H45   H     H_    0.761610 0.650730 0.094897 0.130562
H46   H     H_    0.246193 0.336165 0.897445 0.130112
H47   H     H_    0.622278 0.334024 0.018043 0.174560
H48   H     H_    0.215597 0.500781 0.562077 0.190211
H49   H     H_    0.365451 0.645007 0.991975 0.171297
H50   H     H_    0.376828 0.336129 0.982513 0.172184
H51   H     H_    0.632229 0.648062 0.010175 0.170009
H52   H     H_    0.122278 0.834024 0.018043 0.174560
H53   H     H_    0.865451 0.145007 0.991975 0.171297
H54   H     H_    0.876828 0.836129 0.982513 0.172184
H55   H     H_    0.132229 0.148062 0.010175 0.170009
H56   H     H_    0.739047 0.218655 0.787551 0.171790
H57   H     H_    0.249363 0.759172 0.222963 0.180306
H58   H     H_    0.260221 0.220663 0.213282 0.171309
H59   H     H_    0.777892 0.500252 0.454549 0.194354
H60   H     H_    0.748504 0.762252 0.779003 0.173406
H61   H     H_    0.239047 0.718654 0.787551 0.171790
H62   H     H_    0.749363 0.259172 0.222963 0.180306
H63   H     H_    0.760221 0.720663 0.213282 0.171309
H64   H     H_    0.248504 0.262253 0.779003 0.173405
H65   H     H_    0.931669 0.387727 0.636813 0.137618
H66   H     H_    0.964481 0.355100 0.699237 0.121254
H67   H     H_    0.931632 0.230508 0.696944 0.252188
H68   H     H_    0.876308 0.294613 0.747644 0.202775
H69   H     H_    0.899004 0.263489 0.634807 0.266704
H70   H     H_    0.079615 0.332120 0.594628 0.185525
H71   H     H_    0.979602 0.671131 0.562299 0.129747
H72   H     H_    0.927517 0.723200 0.553354 0.135385
H73   H     H_    0.990427 0.828359 0.495907 0.251241
H74   H     H_    0.979825 0.798827 0.604184 0.195886
H75   H     H_    0.042185 0.775961 0.504456 0.266963
H76   H     H_    0.078447 0.350110 0.338351 0.140213
H77   H     H_    0.043573 0.325029 0.277091 0.117171
H78   H     H_    0.054316 0.194452 0.305392 0.252271
H79   H     H_    0.118698 0.240646 0.246873 0.203667
H80   H     H_    0.089827 0.221198 0.364941 0.264511
H81   H     H_    0.915919 0.680620 0.403616 0.208491
H82   H     H_    0.094131 0.581750 0.252736 0.127065
H83   H     H_    0.159702 0.616300 0.231580 0.131310
H84   H     H_    0.138713 0.733990 0.183337 0.260806
H85   H     H_    0.135356 0.659277 0.118066 0.205220
H86   H     H_    0.073595 0.699171 0.204661 0.259719
H87   H     H_    0.431669 0.887727 0.636813 0.137619
H88   H     H_    0.464481 0.855100 0.699237 0.121254
H89   H     H_    0.431632 0.730507 0.696944 0.252187
H90   H     H_    0.376308 0.794613 0.747644 0.202775
H91   H     H_    0.399004 0.763489 0.634807 0.266704
H92   H     H_    0.916816 0.319271 0.399327 0.198153
H93   H     H_    0.479568 0.171133 0.562318 0.129734
H94   H     H_    0.427513 0.223236 0.553324 0.135402
H95   H     H_    0.490468 0.328354 0.495871 0.251261
H96   H     H_    0.479817 0.298834 0.604183 0.195881
H97   H     H_    0.542187 0.275921 0.504497 0.266948
H98   H     H_    0.578447 0.850110 0.338352 0.140213
H99   H     H_    0.543573 0.825029 0.277091 0.117171
H100  H     H_    0.554316 0.694452 0.305392 0.252271
H101  H     H_    0.618698 0.740645 0.246874 0.203667
H102  H     H_    0.589827 0.721197 0.364942 0.264511
H103  H     H_    0.160268 0.656546 0.396470 0.191489
H104  H     H_    0.594135 0.081746 0.252736 0.127061
H105  H     H_    0.659705 0.116301 0.231580 0.131313
H106  H     H_    0.638713 0.233988 0.183334 0.260807
H107  H     H_    0.635359 0.159271 0.118064 0.205220
H108  H     H_    0.573595 0.199162 0.204657 0.259717
H109  H     H_    0.713715 0.430310 0.684840 0.122386
H110  H     H_    0.665087 0.479380 0.783431 0.121548
H111  H     H_    0.616487 0.519188 0.702044 0.270257
H112  H     H_    0.686885 0.546308 0.644824 0.212912
H113  H     H_    0.665085 0.470467 0.603664 0.239938
H114  H     H_    0.579615 0.832120 0.594628 0.185525
H115  H     H_    0.425360 0.786540 0.211716 0.123943
H116  H     H_    0.464278 0.734503 0.109971 0.105499
H117  H     H_    0.505286 0.662883 0.186389 0.260698
H118  H     H_    0.519599 0.758425 0.181013 0.191890
H119  H     H_    0.468998 0.718507 0.285055 0.261934
H120  H     H_    0.285067 0.430920 0.314668 0.125081
H121  H     H_    0.333670 0.480246 0.216193 0.118239
H122  H     H_    0.381445 0.520231 0.298434 0.269499
H123  H     H_    0.310874 0.547006 0.354808 0.204990
H124  H     H_    0.332828 0.471273 0.396688 0.243141
O1    O     O_R   0.746490 0.236330 0.638080 -0.646085
O2    O     O_R   0.325830 0.813840 0.483730 -0.635996
O3    O     O_R   0.325830 0.186160 0.483730 -0.643534
O4    O     O_R   0.674170 0.813840 0.516270 -0.631953
O5    O     O_R   0.174170 0.686160 0.516270 -0.631471
O6    O     O_R   0.825830 0.313840 0.483730 -0.635996
O7    O     O_R   0.825830 0.686160 0.483730 -0.643529
O8    O     O_R   0.174170 0.313840 0.516270 -0.631953
O9    O     O_R   0.739960 0.127620 0.525000 -0.640192
O10   O     O_R   0.260040 0.872380 0.475000 -0.636600
O11   O     O_R   0.260040 0.127620 0.475000 -0.635394
O12   O     O_R   0.253510 0.763670 0.361920 -0.657416
O13   O     O_R   0.739960 0.872380 0.525000 -0.633150
O14   O     O_R   0.239960 0.627620 0.525000 -0.640192
O15   O     O_R   0.760040 0.372380 0.475000 -0.636600
O16   O     O_R   0.760040 0.627620 0.475000 -0.635395
O17   O     O_R   0.239960 0.372380 0.525000 -0.633149
O18   O     O_R   0.680700 0.294870 0.629350 -0.562546
O19   O     O_R   0.319300 0.705130 0.370650 -0.580991
O20   O     O_R   0.319300 0.294870 0.370650 -0.569734
O21   O     O_R   0.680700 0.705130 0.629350 -0.575737
O22   O     O_R   0.180700 0.794870 0.629350 -0.562545
O23   O     O_R   0.253510 0.236330 0.361920 -0.647769
O24   O     O_R   0.819300 0.205130 0.370650 -0.580991
O25   O     O_R   0.819300 0.794870 0.370650 -0.569734
O26   O     O_R   0.180700 0.205130 0.629350 -0.575737
O27   O     O_R   0.062020 0.072840 0.007170 -0.648662
O28   O     O_R   0.937980 0.927160 0.992830 -0.645065
O29   O     O_R   0.937980 0.072840 0.992830 -0.646879
O30   O     O_R   0.062020 0.927160 0.007170 -0.642516
O31   O     O_R   0.562020 0.572840 0.007170 -0.648662
O32   O     O_R   0.437980 0.427160 0.992830 -0.645065
O33   O     O_R   0.437980 0.572840 0.992830 -0.646879
O34   O     O_R   0.746490 0.763670 0.638080 -0.648774
O35   O     O_R   0.562020 0.427160 0.007170 -0.642517
O36   O     O_R   0.947860 0.073950 0.109290 -0.574684
O37   O     O_R   0.052140 0.926050 0.890710 -0.566557
O38   O     O_R   0.052140 0.073950 0.890710 -0.572504
O39   O     O_R   0.947860 0.926050 0.109290 -0.565563
O40   O     O_R   0.447860 0.573950 0.109290 -0.574685
O41   O     O_R   0.552140 0.426050 0.890710 -0.566557
O42   O     O_R   0.552140 0.573950 0.890710 -0.572504
O43   O     O_R   0.447860 0.426050 0.109290 -0.565563
O44   O     O_3   0.998174 0.318923 0.567454 -0.561979
O45   O     O_R   0.246490 0.736330 0.638080 -0.646085
O46   O     O_3   0.995081 0.696135 0.432334 -0.558074
O47   O     O_3   0.001805 0.303479 0.414362 -0.563129
O48   O     O_3   0.092545 0.664044 0.338061 -0.557693
O49   O     O_3   0.498174 0.818923 0.567454 -0.561979
O50   O     O_3   0.495083 0.196134 0.432332 -0.558074
O51   O     O_3   0.501805 0.803479 0.414362 -0.563129
O52   O     O_3   0.592546 0.164043 0.338059 -0.557688
O53   O     O_3   0.634918 0.388669 0.748950 -0.579787
O54   O     O_3   0.403850 0.678188 0.220180 -0.584392
O55   O     O_3   0.364152 0.389640 0.251316 -0.578192
O56   O     O_R   0.753510 0.263670 0.361920 -0.657415
O57   O     O_3   0.596499 0.676618 0.778198 -0.584091
O58   O     O_3   0.134918 0.888669 0.748950 -0.579787
O59   O     O_3   0.903850 0.178188 0.220180 -0.584392
O60   O     O_3   0.864151 0.889640 0.251316 -0.578192
O61   O     O_3   0.096499 0.176618 0.778198 -0.584091
O62   O     O_R   0.753510 0.736330 0.361920 -0.647769
O63   O     O_R   0.246490 0.263670 0.638080 -0.648775
O64   O     O_R   0.674170 0.186160 0.516270 -0.631473
Zn1   Zn    Zn3+2 0.792340 0.208750 0.507670 0.960969
Zn2   Zn    Zn3+2 0.494040 0.500000 0.919480 0.962977
Zn3   Zn    Zn3+2 0.005960 1.000000 0.080520 0.965063
Zn4   Zn    Zn3+2 0.994040 1.000000 0.919480 0.962977
Zn5   Zn    Zn3+2 0.207660 0.791250 0.492330 0.964130
Zn6   Zn    Zn3+2 0.207660 0.208750 0.492330 0.960174
Zn7   Zn    Zn3+2 0.792340 0.791250 0.507670 0.954924
Zn8   Zn    Zn3+2 0.292340 0.708750 0.507670 0.960969
Zn9   Zn    Zn3+2 0.707660 0.291250 0.492330 0.964130
Zn10  Zn    Zn3+2 0.707660 0.708750 0.492330 0.960174
Zn11  Zn    Zn3+2 0.292340 0.291250 0.507670 0.954914
Zn12  Zn    Zn3+2 0.505960 0.500000 0.080520 0.965062

loop_
_geom_bond_atom_site_label_1
_geom_bond_atom_site_label_2
_ccdc_geom_bond_type
C20   C170  A    
C28   C47   A    
C177  O8    A    
C36   C42   A    
C96   C105  A    
C137  C149  S    
C91   H28   S    
C5    O43   A    
C124  C133  A    
C174  O5    A    
C79   C99   A    
C58   H67   S    
C148  O25   A    
C64   H85   S    
C16   C35   A    
C31   C172  S    
C178  O38   A    
O6    Zn1   S    
C120  H51   S    
C37   C42   A    
C131  C140  A    
C103  H43   S    
C134  C143  A    
C124  C168  A    
C89   H25   S    
C10   C20   A    
C142  O61   S    
C61   O47   S    
C72   H104  S    
C61   H77   S    
C62   H78   S    
O23   Zn6   S    
C91   H29   S    
C119  C128  A    
C24   C51   A    
C96   C108  A    
C126  O45   A    
C59   C60   S    
C8    C16   A    
C121  H52   S    
C102  C111  A    
C87   H20   S    
C79   C161  S    
O15   Zn9   S    
C158  C167  A    
C172  O11   A    
O63   Zn11  S    
C95   C109  A    
C85   H15   S    
O56   Zn9   S    
C171  O10   A    
C101  C110  A    
C3    O30   A    
C29   C45   A    
C103  C112  A    
C169  O64   A    
C142  C151  A    
C66   H90   S    
C37   C175  S    
C22   C31   A    
C60   H74   S    
C92   C116  A    
C76   H115  S    
C141  O60   S    
C13   C18   A    
O32   Zn2   S    
C155  H60   S    
O43   Zn12  S    
C102  H42   S    
C77   H117  S    
O31   Zn12  S    
C14   C57   A    
C118  C162  A    
C173  O4    A    
C2    C19   A    
C71   H102  S    
C72   H105  S    
C25   C55   A    
C72   C73   S    
C113  H30   S    
C126  C147  S    
C152  H56   S    
C105  H44   S    
C70   H98   S    
C9    C15   A    
C35   O49   S    
O62   Zn10  S    
O16   Zn10  S    
C46   C53   A    
C4    O42   A    
C160  C168  A    
C108  H35   S    
C94   C102  A    
C116  H32   S    
C34   C177  S    
C118  H49   S    
C88   H22   S    
C65   H88   S    
C98   C168  S    
C80   H123  S    
O1    Zn1   S    
C93   O12   A    
C11   C18   A    
O25   Zn7   S    
C123  C132  A    
O13   Zn7   S    
C121  C130  A    
C25   C43   A    
C1    O18   A    
O7    Zn7   S    
C85   C86   S    
C99   C108  A    
C12   C68   A    
C115  C146  S    
C133  C142  A    
C90   C162  S    
C79   C113  A    
C105  C113  A    
C148  C150  S    
C170  O44   S    
C78   C80   S    
C133  C178  S    
C38   C174  S    
C5    C128  S    
O38   Zn4   S    
C26   C45   A    
C86   H16   S    
C78   O55   S    
C73   H106  S    
C29   C38   A    
C89   C91   S    
O29   Zn4   S    
C60   H75   S    
O39   Zn3   S    
C152  C161  A    
C137  O24   A    
C77   H119  S    
C78   H120  S    
C41   H48   S    
C95   C103  A    
C141  C150  A    
C69   H95   S    
C120  C129  A    
C112  H31   S    
C38   C41   A    
C109  H34   S    
C85   O59   S    
C1    O1    A    
O24   Zn1   S    
C151  C159  S    
C74   H109  S    
C157  H62   S    
C3    O37   A    
C123  H54   S    
C83   C84   S    
C8    C12   A    
C10   C45   A    
C106  H45   S    
C160  H64   S    
C93   O19   A    
C93   C144  S    
C13   O47   S    
C145  C154  A    
C92   C163  S    
O36   Zn3   S    
C24   O48   S    
C59   H71   S    
C83   H8    S    
C118  C127  A    
C7    O41   A    
C63   H82   S    
C89   O61   S    
C122  C131  A    
C179  O28   A    
C29   C51   A    
C27   C47   A    
C132  C141  A    
C159  O26   A    
C87   O60   S    
C50   H92   S    
C75   H112  S    
C91   H27   S    
C131  C180  S    
C61   H76   S    
C121  C165  A    
C56   H65   S    
C154  H58   S    
C139  O58   S    
C58   H68   S    
C104  O20   A    
C64   H86   S    
C53   H2    S    
C73   H108  S    
C28   C37   A    
C138  C146  A    
O28   Zn4   S    
C56   C58   S    
C30   C39   A    
C14   C16   A    
O42   Zn2   S    
C6    C127  S    
C107  C116  A    
C120  C164  A    
C13   C50   A    
C100  C109  A    
C100  H40   S    
C4    O31   A    
C81   H3    S    
C58   H69   S    
C15   C46   A    
C117  C125  A    
C140  C149  A    
C27   C49   A    
C25   C33   A    
C54   C57   A    
C125  C134  A    
C140  O59   S    
C87   C88   S    
C171  O2    A    
C98   C110  A    
C40   H37   S    
O3    Zn11  S    
C11   C47   A    
O30   Zn3   S    
C8    C43   A    
C87   H19   S    
O40   Zn12  S    
C33   C169  S    
C55   C68   A    
C80   H122  S    
C5    O32   A    
C11   C19   A    
C82   H6    S    
C173  O13   A    
C127  C135  A    
C128  C136  A    
C97   C111  A    
C85   H14   S    
O22   Zn5   S    
C31   C40   A    
C84   H11   S    
C72   O52   S    
C159  O63   A    
C66   H91   S    
O4    Zn10  S    
C146  C155  A    
O33   Zn2   S    
C176  O7    A    
C70   C71   S    
O45   Zn8   S    
O35   Zn12  S    
O19   Zn8   S    
C26   C48   A    
C107  H46   S    
C65   O49   S    
C34   C41   A    
C130  C139  A    
C95   C165  S    
C175  O15   A    
O26   Zn6   S    
C176  O16   A    
C71   H101  S    
C56   O44   S    
C111  H36   S    
C49   H81   S    
O9    Zn1   S    
C82   H5    S    
C115  O34   A    
C70   H99   S    
C9    C14   A    
C89   H26   S    
C12   C15   A    
O12   Zn5   S    
C7    C125  S    
C147  C156  A    
C92   C101  A    
C48   C170  A    
C97   C106  A    
C143  C152  A    
C32   C171  S    
C99   H39   S    
C36   C176  S    
C137  O56   A    
O27   Zn3   S    
C65   H87   S    
C94   C164  S    
C80   H124  S    
C101  H41   S    
C150  C158  A    
C67   O50   S    
C83   H9    S    
O37   Zn4   S    
C63   H83   S    
C42   H59   S    
C64   H84   S    
C4    C129  S    
C27   C36   A    
C21   C30   A    
C153  C162  A    
C23   C32   A    
C46   O50   S    
O64   Zn9   S    
C75   H113  S    
C66   H89   S    
C156  C165  A    
C67   H94   S    
C175  O6    A    
C55   H24   S    
C172  O3    A    
C60   H73   S    
O5    Zn5   S    
C158  H63   S    
C76   O54   S    
C104  O23   A    
C156  H61   S    
C23   C44   A    
C86   H17   S    
C2    O46   S    
C122  H53   S    
C35   C52   A    
C149  C157  A    
C63   O48   S    
C135  O54   S    
C77   H118  S    
C78   H121  S    
C68   O52   S    
C122  C166  A    
C3    C130  S    
C90   C112  A    
C81   C82   S    
C94   C114  A    
C169  O9    A    
C178  O27   A    
C139  C147  A    
C33   C39   A    
C106  C114  A    
C74   O53   S    
O2    Zn8   S    
C76   H116  S    
C136  O55   S    
C10   C17   A    
C70   O51   S    
C144  C153  A    
C74   H110  S    
C138  O57   S    
C119  H50   S    
C21   C43   A    
C124  H55   S    
C28   C50   A    
C26   C34   A    
C22   C44   A    
C129  C138  A    
C84   H10   S    
C88   H21   S    
C30   C173  S    
O14   Zn8   S    
C136  C145  A    
C123  C167  A    
C32   C40   A    
C54   H13   S    
C114  H33   S    
C51   H103  S    
C61   C62   S    
C177  O17   A    
O34   Zn7   S    
C174  O14   A    
O20   Zn11  S    
C90   C100  A    
C22   C53   A    
C17   C24   A    
C74   C75   S    
C154  C163  A    
C76   C77   S    
C75   H111  S    
C134  O53   S    
C119  C163  A    
C180  O36   A    
C117  C161  A    
C97   C167  S    
C56   H66   S    
O10   Zn5   S    
C63   C64   S    
C67   C69   S    
C67   H93   S    
C7    O35   A    
C1    C143  S    
C2    C49   A    
C73   H107  S    
C69   H97   S    
C126  O22   A    
O18   Zn9   S    
C39   H1    S    
C135  C144  A    
C86   H18   S    
O11   Zn6   S    
C96   C166  S    
C148  O62   A    
C57   O51   S    
C62   H80   S    
C6    O40   A    
C23   C54   A    
C179  O39   A    
C69   H96   S    
O41   Zn2   S    
C117  H47   S    
C9    C44   A    
O8    Zn6   S    
C104  C145  S    
C157  C166  A    
C83   O58   S    
C59   O46   S    
C155  C164  A    
C71   H100  S    
C81   H4    S    
C153  H57   S    
C82   H7    S    
C151  C160  A    
C6    O33   A    
C115  O21   A    
O21   Zn10  S    
C62   H79   S    
C17   C19   A    
C84   H12   S    
C18   C20   A    
O17   Zn11  S    
C88   H23   S    
C48   H70   S    
C110  H38   S    
C81   O57   S    
C132  C179  S    
C180  O29   A    
C65   C66   S    
C59   H72   S    
C52   H114  S    
C21   C52   A    
C98   C107  A    
