data_mof_unit_13653.cif
_audit_creation_date              2012-12-10T17:14:46-0500
_audit_creation_method            fapswitch 2.2
_symmetry_space_group_name_H-M    P1
_symmetry_Int_Tables_number       1
_space_group_crystal_system       triclinic
_cell_length_a                    10.630587
_cell_length_b                    13.006915
_cell_length_c                    11.668238
_cell_angle_alpha                 100.130516
_cell_angle_beta                  93.83713
_cell_angle_gamma                 90.368552
_cell_volume                      1584.39492323

loop_
_atom_site_label
_atom_site_type_symbol
_atom_type_description
_atom_site_fract_x
_atom_site_fract_y
_atom_site_fract_z
_atom_type_partial_charge
C1    C     C_R   0.498127 0.299035 0.478337 0.812689
C2    C     C_R   0.501871 0.700965 0.521663 0.812695
C3    C     C_R   0.499525 0.139942 0.565070 -0.275046
C4    C     C_R   0.500454 0.860063 0.434937 -0.274924
C5    C     C_R   0.501950 0.031732 0.556352 0.107283
C6    C     C_R   0.498098 0.968276 0.443670 0.107318
C7    C     C_R   0.381548 0.401605 0.020990 -0.335494
C8    C     C_R   0.618462 0.598385 0.979008 -0.335540
C9    C     C_R   0.392831 0.411033 0.143323 0.061938
C10   C     C_R   0.607173 0.588962 0.856677 0.061868
C11   C     C_R   0.550908 0.542719 0.157502 0.030814
C12   C     C_R   0.449096 0.457277 0.842497 0.030801
C13   C     C_R   0.542945 0.535800 0.034540 0.068500
C14   C     C_R   0.457064 0.464192 0.965459 0.068455
C15   C     C_R   0.259113 0.499910 0.500117 0.785922
C16   C     C_R   0.740887 0.500090 0.499883 0.785927
C17   C     C_3   0.044388 0.418360 0.545707 -0.173453
C18   C     C_3   0.955612 0.581640 0.454293 -0.173444
C19   C     C_3   0.952775 0.410460 0.435659 -0.170198
C20   C     C_3   0.047225 0.589540 0.564341 -0.170187
C21   C     C_3   0.877713 0.500071 0.500084 0.025774
C22   C     C_3   0.122287 0.499929 0.499916 0.025778
C23   C     C_3   0.967060 0.507984 0.610292 -0.136015
C24   C     C_3   0.032940 0.492016 0.389707 -0.136010
C25   C     C_R   0.502472 0.814405 0.534571 -0.075746
C26   C     C_R   0.497537 0.185597 0.465433 -0.075706
C27   C     C_R   0.493435 0.014664 0.342369 0.001038
C28   C     C_R   0.506647 0.985343 0.657656 0.001087
C29   C     C_R   0.494748 0.123145 0.354675 -0.245638
C30   C     C_R   0.505322 0.876855 0.645335 -0.245653
Cu1   Cu    Cu3+1 0.509400 0.507730 0.615930 0.928012
Cu2   Cu    Cu3+1 0.490600 0.492270 0.384070 0.928031
H1    H     H_    0.910935 0.337322 0.383010 0.125380
H2    H     H_    0.089065 0.662678 0.616990 0.125372
H3    H     H_    0.083928 0.351702 0.583150 0.123518
H4    H     H_    0.916072 0.648298 0.416850 0.123517
H5    H     H_    0.937496 0.514564 0.700738 0.134616
H6    H     H_    0.062504 0.485436 0.299262 0.134623
H7    H     H_    0.501261 0.810411 0.350259 0.173257
H8    H     H_    0.498627 0.189596 0.649732 0.173220
H9    H     H_    0.508524 0.841329 0.722751 0.152735
H10   H     H_    0.491580 0.158663 0.277253 0.152716
H11   H     H_    0.383301 0.402345 0.788573 0.118604
H12   H     H_    0.616703 0.597651 0.211426 0.118610
H13   H     H_    0.665467 0.637857 0.814923 0.120896
H14   H     H_    0.334536 0.362139 0.185077 0.120901
H15   H     H_    0.314622 0.345494 0.970338 0.139286
H16   H     H_    0.685388 0.654493 0.029660 0.139266
N1    N     N_R   0.523540 0.519360 0.790140 -0.179056
N2    N     N_R   0.476460 0.480640 0.209860 -0.179070
O1    O     O_R   0.506670 0.354460 0.582000 -0.588963
O2    O     O_R   0.493330 0.645540 0.418000 -0.588949
O3    O     O_R   0.490800 0.341410 0.386200 -0.595269
O4    O     O_R   0.509200 0.658590 0.613800 -0.595269
O5    O     O_R   0.324790 0.506500 0.597880 -0.587304
O6    O     O_R   0.675210 0.493500 0.402120 -0.587306
O7    O     O_R   0.308910 0.493440 0.402080 -0.589594
O8    O     O_R   0.691090 0.506560 0.597920 -0.589598
C31   C     C_R   0.484898 0.952538 0.222679 0.090957
C32   C     C_R   0.375321 0.893439 0.179707 -0.169446
C33   C     C_R   0.367570 0.834441 0.067004 -0.136197
C34   C     C_R   0.468616 0.834565 0.996378 -0.101689
C35   C     C_R   0.577629 0.893745 0.038227 -0.120871
C36   C     C_R   0.585739 0.952984 0.150913 -0.148723
H17   H     H_    0.296402 0.892859 0.233705 0.129119
H18   H     H_    0.283219 0.788632 0.034387 0.126376
H19   H     H_    0.462254 0.788882 0.909210 0.124774
H20   H     H_    0.655525 0.894106 0.983113 0.124252
H21   H     H_    0.670519 0.998729 0.182419 0.122681
C37   C     C_R   0.515217 0.047460 0.777366 0.090981
C38   C     C_R   0.414632 0.046634 0.849342 -0.148698
C39   C     C_R   0.422762 0.105830 0.962050 -0.120760
C40   C     C_R   0.531549 0.165348 0.003717 -0.101862
C41   C     C_R   0.632346 0.165854 0.932890 -0.135984
C42   C     C_R   0.624583 0.106890 0.820170 -0.169410
H22   H     H_    0.330032 0.000616 0.817990 0.122690
H23   H     H_    0.345061 0.105160 0.017325 0.124444
H24   H     H_    0.537923 0.211001 0.090899 0.124770
H25   H     H_    0.716517 0.211934 0.965364 0.126441
H26   H     H_    0.703324 0.107765 0.766023 0.129140

loop_
_geom_bond_atom_site_label_1
_geom_bond_atom_site_label_2
_ccdc_geom_bond_type
C16   C21   S    
C29   H10   S    
C27   C29   A    
C18   C21   S    
C40   C41   A    
C8    H16   S    
C12   N1    A    
C31   C36   A    
C34   C35   A    
C34   H19   S    
C18   C24   S    
Cu1   O8    S    
C19   C21   S    
C12   H11   S    
C5    C6    A    
C1    O3    A    
Cu2   O2    S    
C33   H18   S    
C15   C22   S    
C6    C27   A    
C24   H6    S    
C40   H24   S    
C20   C23   S    
C30   H9    S    
C37   C38   A    
C42   H26   S    
C20   H2    S    
C31   C32   A    
C13   C14   A    
C15   O7    A    
Cu2   O7    S    
Cu1   N1    S    
C4    C25   A    
C7    C14   A    
C41   C42   A    
C4    C6    A    
C2    O4    A    
Cu1   O1    S    
C16   O8    A    
C23   H5    S    
C32   C33   A    
C7    H15   S    
C16   O6    A    
C39   H23   S    
C5    C28   A    
Cu1   Cu2   S    
C4    H7    S    
C10   H13   S    
C11   H12   S    
C17   C23   S    
C36   H21   S    
C1    O1    A    
Cu2   N2    S    
C2    O2    A    
C12   C14   A    
C32   H17   S    
C41   H25   S    
C21   C23   S    
C19   H1    S    
C1    C26   S    
C22   C24   S    
Cu2   O3    S    
C25   C30   A    
C7    C9    A    
C35   H20   S    
C3    C26   A    
C28   C37   S    
C9    N2    A    
C20   C22   S    
C39   C40   A    
C3    C5    A    
C3    H8    S    
C17   C22   S    
C28   C30   A    
C19   C24   S    
C38   C39   A    
C11   N2    A    
C27   C31   S    
C11   C13   A    
C38   H22   S    
C17   C19   S    
C2    C25   S    
C18   C20   S    
Cu1   O4    S    
C33   C34   A    
C35   C36   A    
C8    C13   A    
C9    H14   S    
C26   C29   A    
C8    C10   A    
C37   C42   A    
C17   H3    S    
Cu1   O5    S    
C10   N1    A    
C18   H4    S    
Cu2   O6    S    
C15   O5    A    
