data_mof_unit_12134.cif
_audit_creation_date              2013-03-05T15:42:21-0500
_audit_creation_method            fapswitch 2.2
_symmetry_space_group_name_H-M    P1
_symmetry_Int_Tables_number       1
_space_group_crystal_system       triclinic
_cell_length_a                    16.91569
_cell_length_b                    16.719352
_cell_length_c                    19.417033
_cell_angle_alpha                 117.817736
_cell_angle_beta                  62.291949
_cell_angle_gamma                 100.800671
_cell_volume                      4296.87548195

loop_
_atom_site_label
_atom_site_type_symbol
_atom_site_description
_atom_site_fract_x
_atom_site_fract_y
_atom_site_fract_z
_atom_type_partial_charge
C1    C     C_R   0.045287 0.758252 0.006157 -0.143179
H1    H     H_    0.088851 0.805917 0.031197 0.100266
N1    N     N_R   0.036080 0.671900 0.995420 -0.043952
C2    C     C_R   0.763766 0.419399 0.164522 -0.137964
H2    H     H_    0.722421 0.371049 0.136745 0.085789
N2    N     N_R   0.834710 0.454650 0.119760 -0.040540
C3    C     C_R   0.805703 0.558753 0.958622 -0.126925
H3    H     H_    0.818415 0.599962 0.925964 0.092466
N3    N     N_R   0.867430 0.509300 0.948100 -0.041471
C4    C     C_R   0.950739 0.673039 0.248429 -0.062840
H4    H     H_    0.912884 0.651678 0.298848 0.162950
N4    N     N_R   0.003360 0.617250 0.167070 -0.054351
C5    C     C_R   0.738032 0.482716 0.038364 -0.117039
H5    H     H_    0.689441 0.455210 0.081387 0.097884
N5    N     N_R   0.825450 0.461270 0.995400 -0.042678
C6    C     C_R   0.018320 0.752191 0.172562 -0.131955
H6    H     H_    0.042131 0.806414 0.154159 0.092077
N6    N     N_R   0.045340 0.665280 0.119770 -0.043831
C7    C     C_R   0.842297 0.487928 0.240412 -0.072587
H7    H     H_    0.873116 0.502504 0.282611 0.094331
N7    N     N_R   0.883740 0.497640 0.167070 -0.046059
C8    C     C_R   0.965625 0.689589 0.931618 -0.082728
H8    H     H_    0.934413 0.674326 0.889721 0.122526
N8    N     N_R   0.987050 0.628910 0.948110 -0.049850
C9    C     C_R   0.997379 0.772936 0.971118 0.138468
C10   C     C_R   0.766740 0.438359 0.240722 0.094460
C11   C     C_R   0.723867 0.546594 0.018078 0.059347
C12   C     C_R   0.954258 0.758991 0.253193 0.111563
C13   C     C_R   0.246857 0.573684 0.016983 -0.151843
H9    H     H_    0.281952 0.626824 0.998958 0.096223
N9    N     N_R   0.174550 0.538730 0.004600 -0.044385
C14   C     C_R   0.922967 0.260499 0.833722 -0.126522
H10   H     H_    0.876532 0.217017 0.860074 0.086001
N10   N     N_R   0.954660 0.334720 0.880230 -0.041546
C15   C     C_R   0.172610 0.451066 0.751209 -0.095106
H11   H     H_    0.152540 0.408792 0.700338 0.095840
N11   N     N_R   0.116260 0.502360 0.832930 -0.040194
C16   C     C_R   0.050045 0.307575 0.052814 -0.133852
H12   H     H_    0.089820 0.321205 0.087152 0.116581
N12   N     N_R   0.012950 0.371090 0.051890 -0.047871
C17   C     C_R   0.972217 0.238623 0.976022 -0.121671
H13   H     H_    0.940021 0.188116 0.938344 0.099886
N13   N     N_R   0.963920 0.328100 0.004580 -0.046183
C18   C     C_R   0.251510 0.520559 0.828038 -0.115470
H14   H     H_    0.304097 0.542577 0.848838 0.096601
N14   N     N_R   0.165290 0.545350 0.880240 -0.041509
C19   C     C_R   0.181624 0.492272 0.090194 -0.106742
H15   H     H_    0.158569 0.465136 0.136423 0.168454
N15   N     N_R   0.132570 0.490700 0.051900 -0.052209
C20   C     C_R   0.990137 0.340125 0.758383 -0.151294
H16   H     H_    0.004211 0.371997 0.716866 0.100166
N16   N     N_R   0.996640 0.382750 0.832930 -0.042350
Ni1   Ni    Ni4+2 0.104370 0.604370 0.000010 0.223155
Ni2   Ni    Ni4+2 0.895630 0.395630 0.999990 0.209153
Ni3   Ni    Ni4+2 0.991920 0.505780 0.891500 0.237622
Ni4   Ni    Ni4+2 0.008080 0.494220 0.108500 0.229969
C21   C     C_R   0.253081 0.547482 0.072501 0.116104
C22   C     C_R   0.943578 0.262427 0.756456 0.086246
C23   C     C_R   0.258436 0.459454 0.746235 0.066154
C24   C     C_R   0.026596 0.222366 0.004861 0.089046
C25   C     C_R   0.940816 0.214537 0.615896 -0.254516
C26   C     C_R   0.910394 0.203609 0.691652 0.109529
C27   C     C_R   0.852980 0.133358 0.702079 -0.247540
C28   C     C_R   0.835092 0.068280 0.633432 0.142610
C29   C     C_R   0.874424 0.074445 0.554327 0.062423
C30   C     C_R   0.923775 0.150277 0.547080 0.134445
C31   C     C_R   0.784212 0.993678 0.640345 -0.223145
C32   C     C_R   0.779610 0.921474 0.567189 -0.098220
C33   C     C_R   0.827660 0.922145 0.485623 0.000220
C34   C     C_R   0.871538 0.001227 0.480439 -0.019401
C35   C     C_R   0.918578 0.004671 0.400103 0.147950
C36   C     C_R   0.959172 0.084228 0.395335 -0.185622
C37   C     C_R   0.961837 0.156902 0.468719 -0.197998
C38   C     C_R   0.839796 0.843799 0.408576 0.388599
C39   C     C_R   0.905195 0.842888 0.328949 0.002198
C40   C     C_R   0.933862 0.925684 0.324961 -0.303564
H17   H     H_    0.983541 0.269038 0.606891 0.123132
H18   H     H_    0.826319 0.125781 0.761207 0.121298
H19   H     H_    0.751892 0.988977 0.701294 0.140250
H20   H     H_    0.743897 0.862894 0.574288 0.189596
H21   H     H_    0.976162 0.928629 0.264096 0.132197
H22   H     H_    0.994182 0.087909 0.333906 0.127596
H23   H     H_    0.998467 0.215760 0.462935 0.138335
C41   C     C_R   0.424114 0.436167 0.672219 -0.241661
C42   C     C_R   0.341313 0.415241 0.668526 0.113721
C43   C     C_R   0.339064 0.360788 0.588320 -0.237085
C44   C     C_R   0.417226 0.341372 0.511906 0.135626
C45   C     C_R   0.498681 0.374183 0.516239 0.031064
C46   C     C_R   0.502858 0.417525 0.596473 0.137336
C47   C     C_R   0.413719 0.298105 0.431813 -0.185799
C48   C     C_R   0.488269 0.295868 0.357658 -0.191426
C49   C     C_R   0.566699 0.336935 0.363212 0.139890
C50   C     C_R   0.573578 0.372061 0.441721 0.031192
C51   C     C_R   0.652180 0.413495 0.447866 0.130299
C52   C     C_R   0.658538 0.448049 0.526156 -0.180811
C53   C     C_R   0.584105 0.449960 0.600246 -0.193460
C54   C     C_R   0.634660 0.351410 0.294251 -0.249554
C55   C     C_R   0.707924 0.402855 0.303851 0.101027
C56   C     C_R   0.719434 0.427655 0.378366 -0.236949
H24   H     H_    0.427571 0.474099 0.733522 0.119010
H25   H     H_    0.276240 0.340094 0.584313 0.120342
H26   H     H_    0.351846 0.271344 0.427450 0.136160
H27   H     H_    0.482699 0.267320 0.297290 0.134923
H28   H     H_    0.626069 0.328722 0.236201 0.118795
H29   H     H_    0.776825 0.464588 0.385923 0.132999
H30   H     H_    0.719128 0.478732 0.531334 0.143064
H31   H     H_    0.588477 0.482176 0.661374 0.135345
C57   C     C_R   0.638406 0.589886 0.049888 0.121288
C58   C     C_R   0.320159 0.579018 0.107769 -0.009899
C59   C     C_R   0.400716 0.561948 0.176482 -0.282249
C60   C     C_R   0.321208 0.556663 0.169528 0.472452
C61   C     C_R   0.392848 0.624594 0.069422 -0.319655
C62   C     C_R   0.471980 0.628233 0.075139 0.192315
C63   C     C_R   0.477731 0.590634 0.124166 0.104066
C64   C     C_R   0.561293 0.574301 0.113394 -0.216313
C65   C     C_R   0.631417 0.638786 0.010410 -0.166914
C66   C     C_R   0.548179 0.658722 0.023758 -0.192910
H32   H     H_    0.565639 0.541451 0.148188 0.124219
H33   H     H_    0.689432 0.655948 0.964220 0.125024
H34   H     H_    0.403522 0.538618 0.218894 0.179146
H35   H     H_    0.544173 0.690135 0.987592 0.128188
H36   H     H_    0.393237 0.648404 0.026331 0.137091
C67   C     C_R   0.814653 0.168697 0.142577 0.095879
C68   C     C_R   0.972167 0.861795 0.985718 -0.043538
C69   C     C_R   0.913556 0.951620 0.949189 -0.330067
C70   C     C_R   0.957413 0.872249 0.924140 0.346915
C71   C     C_R   0.949567 0.934187 0.068544 -0.304954
C72   C     C_R   0.906964 0.013578 0.092768 0.194855
C73   C     C_R   0.886783 0.021387 0.033235 0.132577
C74   C     C_R   0.839785 0.098909 0.059045 -0.235978
C75   C     C_R   0.835770 0.161687 0.201067 -0.149767
C76   C     C_R   0.881479 0.084313 0.176589 -0.201340
H37   H     H_    0.822356 0.105637 0.014892 0.116354
H38   H     H_    0.815994 0.216107 0.265630 0.131192
H39   H     H_    0.900813 0.959242 0.902734 0.178018
H40   H     H_    0.896346 0.079500 0.223165 0.127950
H41   H     H_    0.960517 0.926762 0.116087 0.139142
Cl1   Cl    Cl    0.770148 0.751155 0.412377 -0.695935
Cl2   Cl    Cl    0.227097 0.524778 0.241888 -0.683845
N17   N     N_R   0.988307 0.804437 0.835942 0.227976
O1    O     O_R   0.947091 0.794866 0.790385 -0.397194
O2    O     O_R   0.063930 0.760120 0.797531 -0.391143

loop_
_geom_bond_atom_site_label_1
_geom_bond_atom_site_label_2
_geom_bond_distance
_ccdc_geom_bond_type
C32   H20   1.081676 S    
C44   C45   1.409949 A    
C22   C26   1.469871 S    
C50   C51   1.409669 A    
N1    Ni1   1.815383 S    
C17   H13   1.080036 S    
C52   C53   1.394143 A    
C14   C22   1.388498 A    
C75   H38   1.082053 S    
C72   C73   1.412207 A    
C23   C42   1.472680 S    
C54   C55   1.405749 A    
C60   Cl2   1.758853 S    
C3    H3    1.071685 S    
C19   N15   1.337701 A    
C42   C43   1.405174 A    
N8    Ni3   1.822212 S    
C38   Cl1   1.770491 S    
C70   N17   1.438397 S    
C13   H9    1.078720 S    
C51   C56   1.393182 A    
C57   C64   1.402377 A    
C15   N11   1.338539 A    
N17   O2    1.301496 A    
C73   C74   1.404483 A    
C58   C60   1.420791 A    
C16   H12   1.080321 S    
C6    H6    1.069325 S    
C18   C23   1.391987 A    
C29   C34   1.401015 A    
C55   C56   1.405367 A    
C3    C11   1.384856 A    
C65   C66   1.384462 A    
C15   C23   1.393816 A    
C1    H1    1.079804 S    
C7    C10   1.385978 A    
C66   H35   1.084146 S    
C59   C60   1.395739 A    
C47   H26   1.083691 S    
N6    Ni1   1.858276 S    
C25   C30   1.387467 A    
N12   N13   1.384623 A    
C21   C58   1.481823 S    
C15   H11   1.077408 S    
C25   H17   1.080561 S    
C32   C33   1.408959 A    
N12   Ni4   1.822212 S    
C8    C9    1.386969 A    
C20   N16   1.330832 A    
C34   C35   1.407877 A    
N3    Ni3   1.865404 S    
C59   C63   1.396068 A    
C6    C12   1.393097 A    
N16   Ni3   1.823371 S    
C69   H39   1.083850 S    
C5    H5    1.078569 S    
C1    C9    1.386758 A    
C17   N13   1.340630 A    
N1    N8    1.384623 A    
C25   C26   1.404850 A    
N9    N15   1.364097 A    
C72   C76   1.405548 A    
C61   C62   1.381711 A    
C18   N14   1.336428 A    
C49   C54   1.392787 A    
C63   C64   1.390231 A    
C56   H29   1.080990 S    
C38   C39   1.417140 A    
C31   C32   1.395816 A    
C41   H24   1.081089 S    
N5    Ni2   1.816490 S    
C31   H19   1.083814 S    
N17   O1    1.301438 A    
C2    N2    1.336409 A    
C58   C61   1.404980 A    
C59   H34   1.084293 S    
C48   C49   1.402033 A    
C43   C44   1.393548 A    
C2    H2    1.079585 S    
C30   C37   1.400513 A    
N9    Ni1   1.816487 S    
C1    N1    1.348007 A    
C14   N10   1.340810 A    
C39   C40   1.403913 A    
C28   C31   1.400354 A    
C61   H36   1.078584 S    
C26   C27   1.405472 A    
C52   H30   1.083687 S    
C19   C21   1.386653 A    
N13   Ni2   1.815382 S    
C19   H15   1.073264 S    
C76   H40   1.083784 S    
C64   H32   1.082191 S    
C20   H16   1.079522 S    
C43   H25   1.081245 S    
C20   C22   1.381244 A    
C33   C38   1.407936 A    
C41   C42   1.405588 A    
N4    Ni4   1.823371 S    
C4    N4    1.336488 A    
C10   C55   1.472551 S    
C68   C71   1.407999 A    
C62   C66   1.396125 A    
C53   H31   1.083708 S    
C13   C21   1.388759 A    
N2    Ni2   1.858677 S    
C51   C52   1.401899 A    
C5    N5    1.335483 A    
C67   C74   1.396884 A    
C69   C70   1.406759 A    
C16   C24   1.395541 A    
C74   H37   1.082595 S    
C41   C46   1.393010 A    
C71   C72   1.401099 A    
C18   H14   1.078218 S    
C68   C70   1.418214 A    
C62   C63   1.406571 A    
C4    C12   1.387898 A    
C3    N3    1.335349 A    
C45   C50   1.401487 A    
C67   C75   1.395830 A    
C17   C24   1.395826 A    
C48   H27   1.083686 S    
C36   C37   1.389984 A    
C40   H21   1.079735 S    
N7    Ni4   1.865603 S    
C2    C10   1.384791 A    
N10   Ni2   1.858276 S    
N15   Ni4   1.865405 S    
N10   N16   1.364099 A    
C65   H33   1.079806 S    
C28   C29   1.408642 A    
C57   C65   1.405487 A    
C7    H7    1.079730 S    
N3    N5    1.364100 A    
C35   C36   1.401022 A    
C13   N9    1.330348 A    
C14   H10   1.080159 S    
C16   N12   1.341538 A    
N2    N7    1.384623 A    
C47   C48   1.394198 A    
C35   C40   1.385082 A    
C11   C57   1.462822 S    
C46   C53   1.401961 A    
N14   Ni1   1.858677 S    
C49   C50   1.409269 A    
C8    N8    1.346138 A    
C33   C34   1.412866 A    
C9    C68   1.483729 S    
C54   H28   1.080795 S    
C4    H4    1.074092 S    
C27   C28   1.396502 A    
N11   Ni3   1.865601 S    
C69   C73   1.401052 A    
C45   C46   1.409510 A    
C6    N6    1.339468 A    
C29   C30   1.408806 A    
C44   C47   1.401817 A    
N4    N6    1.364099 A    
C8    H8    1.077413 S    
C5    C11   1.389065 A    
C71   H41   1.084664 S    
N11   N14   1.384623 A    
C12   C39   1.481689 S    
C37   H23   1.083914 S    
C36   H22   1.084065 S    
C75   C76   1.398761 A    
C7    N7    1.338131 A    
C27   H18   1.081840 S    
