data_mof_unit_15758.cif
_audit_creation_date              2012-12-11T14:08:06-0500
_audit_creation_method            fapswitch 2.2
_symmetry_space_group_name_H-M    P1
_symmetry_Int_Tables_number       1
_space_group_crystal_system       triclinic
_cell_length_a                    10.940273
_cell_length_b                    11.077737
_cell_length_c                    18.579611
_cell_angle_alpha                 90.469272
_cell_angle_beta                  89.622155
_cell_angle_gamma                 60.120295
_cell_volume                      1952.19923624

loop_
_atom_site_label
_atom_site_type_symbol
_atom_type_description
_atom_site_fract_x
_atom_site_fract_y
_atom_site_fract_z
_atom_type_partial_charge
C1    C     C_R   0.224950 0.651044 0.604557 0.513238
C2    C     C_3   0.700907 0.516062 0.813719 -0.209873
C3    C     C_3   0.687767 0.661030 0.818891 0.052791
C4    C     C_3   0.647128 0.612553 0.686272 0.053700
C5    C     C_3   0.770641 0.644364 0.690562 -0.273052
C6    C     C_3   0.697241 0.479110 0.734225 0.008545
C7    C     C_2   0.699846 0.108437 0.650704 0.112712
C8    C     C_2   0.730038 0.068960 0.811060 -0.116164
C9    C     C_2   0.839079 0.049895 0.766945 0.099864
C10   C     C_2   0.806307 0.099793 0.690831 -0.082408
C11   C     C_2   0.147503 0.679614 0.672692 -0.126282
C12   C     C_R   0.627033 0.586898 0.609798 0.576111
C13   C     C_2   0.163473 0.676981 0.830705 -0.089987
C14   C     C_2   0.145400 0.584335 0.791723 -0.190598
C15   C     C_2   0.159097 0.574267 0.712839 -0.191715
C16   C     C_2   0.651617 0.644197 0.316884 -0.081497
C17   C     C_2   0.630697 0.666667 0.159170 -0.107311
C18   C     C_2   0.701345 0.546674 0.193987 -0.161440
C19   C     C_2   0.682669 0.537817 0.270974 -0.153418
C20   C     C_2   0.678449 0.133905 0.334591 -0.084461
C21   C     C_2   0.652903 0.141803 0.180261 -0.118707
C22   C     C_2   0.627173 0.058944 0.222859 -0.120776
C23   C     C_R   0.631817 0.220785 0.598245 0.569837
C24   C     C_2   0.608013 0.081310 0.300099 0.132574
C25   C     C_2   0.120403 0.681440 0.345960 -0.106276
C26   C     C_2   0.111984 0.692819 0.191122 -0.086152
C27   C     C_2   0.039873 0.804399 0.235126 -0.147102
C28   C     C_2   0.071808 0.799997 0.310805 -0.160734
C29   C     C_R   0.731485 0.039188 0.889283 0.542896
C30   C     C_R   0.719995 0.685167 0.891111 0.575872
C31   C     C_R   0.112205 0.709897 0.904973 0.584624
C32   C     C_R   0.675159 0.105678 0.105121 0.553890
C33   C     C_R   0.691574 0.689222 0.094565 0.557970
C34   C     C_R   0.215736 0.651171 0.404849 0.554208
C35   C     C_R   0.085388 0.714370 0.115368 0.558525
C36   C     C_R   0.642125 0.620463 0.392689 0.572889
C37   C     C_R   0.622338 0.221296 0.398039 0.561970
C38   C     C_3   0.539160 0.774996 0.795072 0.011532
C39   C     C_3   0.511875 0.741688 0.718572 -0.210670
C40   C     C_3   0.798836 0.664960 0.768548 -0.276157
Cr1   Cr    Cr6+3 0.393010 0.398050 0.501480 1.041122
Cr2   Cr    Cr6+3 0.398820 0.707980 0.501630 1.035503
Cr3   Cr    Cr6+3 0.708140 0.393940 0.496850 1.017650
Cr4   Cr    Cr6+3 0.937950 0.938450 0.008940 1.040679
Cr5   Cr    Cr6+3 0.626180 0.937030 0.994750 1.064298
Cr6   Cr    Cr6+3 0.937790 0.625760 0.001410 1.025843
H1    H     H_    0.535523 0.877348 0.794175 0.149216
H2    H     H_    0.808513 0.404819 0.717874 0.136357
H3    H     H_    0.904628 0.578711 0.782371 0.139713
H4    H     H_    0.869884 0.558917 0.666307 0.143658
H5    H     H_    0.851343 0.162832 0.673800 0.128654
H6    H     H_    0.626594 0.110576 0.787382 0.096601
H7    H     H_    0.123785 0.510052 0.818364 0.153971
H8    H     H_    0.195722 0.471916 0.688955 0.153298
H9    H     H_    0.193916 0.744798 0.804505 0.167380
H10   H     H_    0.103670 0.783245 0.695531 0.144564
H11   H     H_    0.786042 0.454818 0.167587 0.161697
H12   H     H_    0.708132 0.436068 0.291091 0.151150
H13   H     H_    0.540378 0.755854 0.184149 0.125750
H14   H     H_    0.626286 0.746639 0.298597 0.136224
H15   H     H_    0.612045 0.976707 0.199910 0.162341
H16   H     H_    0.668719 0.224953 0.200872 0.080259
H17   H     H_    0.767826 0.133746 0.308477 0.062891
H18   H     H_    0.967021 0.906289 0.213712 0.155493
H19   H     H_    0.418569 0.728078 0.717789 0.147960
H20   H     H_    0.074804 0.888933 0.333886 0.165510
H21   H     H_    0.186403 0.589679 0.210238 0.103124
H22   H     H_    0.108313 0.596512 0.324280 0.124130
H23   H     H_    0.482531 0.834987 0.685315 0.116459
H24   H     H_    0.799395 0.764841 0.774850 0.138161
H25   H     H_    0.747762 0.737124 0.661080 0.161720
H26   H     H_    0.801802 0.434030 0.836770 0.119379
H27   H     H_    0.615384 0.515180 0.845873 0.174192
O1    O     O_R   0.507110 0.256280 0.580300 -0.523963
O2    O     O_R   0.524640 0.695370 0.425100 -0.460307
O3    O     O_R   0.735890 0.504390 0.415980 -0.510219
O4    O     O_R   0.690560 0.277820 0.422350 -0.520929
O5    O     O_3   0.499990 0.499990 0.499980 -0.276217
O6    O     O_R   0.089190 0.825870 0.932320 -0.486600
O7    O     O_R   0.819070 0.053960 0.931440 -0.506271
O8    O     O_R   0.607070 0.076440 0.916460 -0.503402
O9    O     O_R   0.647110 0.806550 0.917690 -0.480190
O10   O     O_R   0.837080 0.593860 0.915300 -0.539481
O11   O     O_R   0.064770 0.636080 0.932550 -0.506923
O12   O     O_R   0.280830 0.527190 0.577940 -0.503891
O13   O     O_R   0.068250 0.829200 0.092940 -0.501695
O14   O     O_R   0.799650 0.057040 0.080330 -0.500084
O15   O     O_R   0.586130 0.079760 0.077080 -0.495157
O16   O     O_R   0.627700 0.809630 0.066580 -0.489805
O17   O     O_R   0.816140 0.597180 0.075920 -0.507191
O18   O     O_R   0.045360 0.639170 0.081440 -0.489641
O19   O     O_3   0.833980 0.833750 0.001700 -0.291355
O20   O     O_R   0.261360 0.738990 0.584270 -0.534097
O21   O     O_R   0.532590 0.694780 0.574370 -0.523605
O22   O     O_R   0.744470 0.503750 0.577000 -0.524282
O23   O     O_R   0.698520 0.277230 0.571620 -0.515941
O24   O     O_R   0.498530 0.256920 0.419280 -0.451336
O25   O     O_R   0.272880 0.527780 0.428680 -0.490118
O26   O     O_R   0.252780 0.739630 0.423250 -0.500154
N1    N     N_2   0.977039 0.008743 0.794320 -0.520123
H28   H     H_    0.983887 0.021963 0.848340 0.310829
C41   C     C_3   0.067753 0.045501 0.754109 -0.329024
H29   H     H_    0.170899 0.003003 0.780814 0.193274
H30   H     H_    0.019889 0.160522 0.752501 0.127701
H31   H     H_    0.087809 0.001091 0.698697 0.154031
N2    N     N_2   0.651553 0.010761 0.655951 -0.547849
H32   H     H_    0.553830 0.053514 0.680649 0.243667
C42   C     C_3   0.653756 0.945551 0.586987 -0.291039
H33   H     H_    0.602704 0.021041 0.543213 0.186468
H34   H     H_    0.593186 0.890344 0.591055 0.154557
H35   H     H_    0.764341 0.871753 0.570202 0.152114
Br1   Br    Br    0.392050 0.798395 0.863165 -0.611098
Br2   Br    Br    0.472492 0.042046 0.345050 -0.528106
N3    N     N_2   0.625658 0.399550 0.727128 -0.549636
H36   H     H_    0.663011 0.321175 0.764140 0.251746
C43   C     C_3   0.475428 0.469516 0.727149 -0.286846
H37   H     H_    0.440875 0.390787 0.725907 0.149176
H38   H     H_    0.439688 0.530438 0.678047 0.177540
H39   H     H_    0.431514 0.535308 0.776094 0.171559

loop_
_geom_bond_atom_site_label_1
_geom_bond_atom_site_label_2
_ccdc_geom_bond_type
C7    C10   D    
Cr2   O20   S    
Cr5   O9    S    
C1    C11   S    
C37   O24   A    
N3    H36   S    
C43   H37   S    
C25   C28   D    
Cr2   O2    S    
C6    H2    S    
C26   H21   S    
C38   C39   S    
C35   O13   A    
C2    H26   S    
Cr6   O19   S    
N2    H32   S    
C40   H3    S    
C32   O15   A    
C42   H33   S    
C41   H31   S    
C17   C18   D    
C18   C19   S    
C16   H14   S    
C30   O10   A    
Cr5   O19   S    
C6    N3    S    
C36   O3    A    
Cr1   O1    S    
C11   C15   D    
C20   C24   D    
C3    C38   S    
C42   H34   S    
C8    C9    D    
Cr3   O22   S    
C12   O22   A    
C4    C12   S    
Cr4   O14   S    
Cr5   O16   S    
C9    C10   S    
C8    H6    S    
Cr4   O19   S    
C25   C34   S    
C24   Br2   S    
C13   C14   D    
C39   H19   S    
C12   O21   A    
C2    C6    S    
C25   H22   S    
C17   C33   S    
Cr4   O13   S    
C10   H5    S    
C23   O23   A    
Cr3   O23   S    
C19   H12   S    
C1    O12   A    
C21   C32   S    
C15   H8    S    
Cr4   O7    S    
Cr5   O15   S    
C4    C6    S    
Cr1   O5    S    
Cr6   O18   S    
C32   O14   A    
C37   O4    A    
C31   O11   A    
Cr3   O5    S    
C30   O9    A    
C3    C30   S    
C28   H20   S    
C29   O8    A    
C36   O2    A    
C33   O16   A    
C18   H11   S    
C14   C15   S    
C4    C39   S    
N1    C41   S    
C34   O26   A    
C39   H23   S    
C7    N2    S    
C41   H30   S    
C38   H1    S    
C2    H27   S    
C40   H24   S    
C17   H13   S    
Cr6   O11   S    
C3    C40   S    
Cr2   O5    S    
C9    N1    S    
C26   C27   D    
Cr1   O24   S    
C5    H4    S    
C8    C29   S    
C23   O1    A    
C38   Br1   S    
Cr3   O3    S    
Cr2   O21   S    
C33   O17   A    
C13   C31   S    
Cr4   O6    S    
Cr5   O8    S    
C4    C5    S    
N3    C43   S    
C42   H35   S    
C31   O6    A    
Cr6   O17   S    
Cr3   O4    S    
Cr1   O12   S    
C43   H39   S    
C20   H17   S    
C2    C3    S    
C5    H25   S    
Cr2   O26   S    
C16   C36   S    
C22   H15   S    
C20   C37   S    
C29   O7    A    
N2    C42   S    
C16   C19   D    
C7    C23   S    
N1    H28   S    
C34   O25   A    
C43   H38   S    
C22   C24   S    
C41   H29   S    
C27   H18   S    
Cr6   O10   S    
C26   C35   S    
C14   H7    S    
C1    O20   A    
C5    C40   S    
C27   C28   S    
Cr1   O25   S    
C21   H16   S    
C21   C22   D    
C11   H10   S    
C13   H9    S    
C35   O18   A    
