data_mof_unit_18644.cif
_audit_creation_date              2013-03-05T15:40:55-0500
_audit_creation_method            fapswitch 2.2
_symmetry_space_group_name_H-M    P1
_symmetry_Int_Tables_number       1
_space_group_crystal_system       triclinic
_cell_length_a                    27.973344
_cell_length_b                    18.703991
_cell_length_c                    16.840658
_cell_angle_alpha                 90.169474
_cell_angle_beta                  62.637836
_cell_angle_gamma                 90.164296
_cell_volume                      7825.39749023

loop_
_atom_site_label
_atom_site_type_symbol
_atom_site_description
_atom_site_fract_x
_atom_site_fract_y
_atom_site_fract_z
_atom_type_partial_charge
O1    O     O_R   0.255040 0.869590 0.478480 -0.579475
O2    O     O_R   0.744960 0.130410 0.521520 -0.571416
O3    O     O_R   0.744960 0.869590 0.521520 -0.572626
O4    O     O_R   0.255040 0.130410 0.478480 -0.570579
O5    O     O_R   0.755040 0.369590 0.478480 -0.577434
O6    O     O_R   0.244960 0.630410 0.521520 -0.583514
O7    O     O_R   0.244960 0.369590 0.521520 -0.587591
O8    O     O_R   0.755040 0.630410 0.478480 -0.583951
O9    O     O_R   0.182050 0.796550 0.624440 -0.569392
O10   O     O_R   0.817950 0.203450 0.375560 -0.571637
O11   O     O_R   0.817950 0.796550 0.375560 -0.572653
O12   O     O_R   0.182050 0.203450 0.624440 -0.574172
O13   O     O_R   0.682050 0.296550 0.624440 -0.568771
O14   O     O_R   0.317950 0.703450 0.375560 -0.567386
O15   O     O_R   0.317950 0.296550 0.375560 -0.575592
O16   O     O_R   0.682050 0.703450 0.624440 -0.577577
Cu1   Cu    Cu3+1 0.209920 0.785290 0.495070 1.056223
Cu2   Cu    Cu3+1 0.790080 0.214710 0.504930 1.055208
Cu3   Cu    Cu3+1 0.790080 0.785290 0.504930 1.052713
Cu4   Cu    Cu3+1 0.209920 0.214710 0.495070 1.052611
Cu5   Cu    Cu3+1 0.709920 0.285290 0.495070 1.030629
Cu6   Cu    Cu3+1 0.290080 0.714710 0.504930 1.048056
Cu7   Cu    Cu3+1 0.290080 0.285290 0.504930 1.016939
Cu8   Cu    Cu3+1 0.709920 0.714710 0.495070 1.051393
C1    C     C_R   0.296026 0.730961 0.328465 0.786835
C2    C     C_R   0.708058 0.277828 0.668387 0.793127
C3    C     C_R   0.707323 0.723873 0.669327 0.792993
C4    C     C_R   0.291507 0.278346 0.331935 0.806896
C5    C     C_R   0.791989 0.222237 0.331556 0.793168
C6    C     C_R   0.203932 0.768966 0.671543 0.785311
C7    C     C_R   0.203740 0.231368 0.671686 0.774841
C8    C     C_R   0.795924 0.769173 0.328670 0.787714
O17   O     O_R   0.250530 0.763330 0.367210 -0.582592
O18   O     O_R   0.749470 0.236670 0.632790 -0.578938
O19   O     O_R   0.749470 0.763330 0.632790 -0.587025
O20   O     O_R   0.250530 0.236670 0.367210 -0.576179
O21   O     O_R   0.750530 0.263330 0.367210 -0.589771
O22   O     O_R   0.249470 0.736670 0.632790 -0.587086
O23   O     O_R   0.249470 0.263330 0.632790 -0.590110
O24   O     O_R   0.750530 0.736670 0.367210 -0.575109
O25   O     O_R   0.177260 0.690030 0.513710 -0.565073
O26   O     O_R   0.822740 0.309970 0.486290 -0.578133
O27   O     O_R   0.822740 0.690030 0.486290 -0.578552
O28   O     O_R   0.177260 0.309970 0.513710 -0.581952
O29   O     O_R   0.677260 0.190030 0.513710 -0.585747
O30   O     O_R   0.322740 0.809970 0.486290 -0.563944
O31   O     O_R   0.322740 0.190030 0.486290 -0.585731
O32   O     O_R   0.677260 0.809970 0.513710 -0.566932
C9    C     C_R   0.196563 0.631702 0.527444 0.780556
C10   C     C_R   0.803443 0.368290 0.472528 0.778986
C11   C     C_R   0.803362 0.631637 0.472838 0.767676
C12   C     C_R   0.196639 0.368362 0.527152 0.765771
C13   C     C_R   0.696264 0.131806 0.528683 0.778336
C14   C     C_R   0.303094 0.868514 0.473913 0.779787
C15   C     C_R   0.299328 0.131045 0.486273 0.806565
C16   C     C_R   0.696903 0.868374 0.526448 0.799763
C17   C     C_R   0.041345 0.629983 0.526784 -0.082495
C18   C     C_R   0.958724 0.370004 0.472936 -0.087483
C19   C     C_R   0.957670 0.630228 0.477720 -0.085797
C20   C     C_R   0.042459 0.369756 0.521833 -0.087845
C21   C     C_R   0.527246 0.126541 0.574531 -0.083445
C22   C     C_R   0.458583 0.873039 0.475123 -0.081640
C23   C     C_R   0.428963 0.123790 0.564190 -0.081404
C24   C     C_R   0.543785 0.870402 0.519811 -0.086859
C25   C     C_R   0.019664 0.695604 0.516856 0.245173
C26   C     C_R   0.980441 0.304389 0.482762 0.236395
C27   C     C_R   0.978582 0.695750 0.490536 0.241674
C28   C     C_R   0.021578 0.304238 0.508941 0.234941
C29   C     C_R   0.494595 0.188368 0.596262 0.248547
C30   C     C_R   0.484997 0.807828 0.471357 0.248474
C31   C     C_R   0.444927 0.186349 0.593454 0.259031
C32   C     C_R   0.526499 0.806121 0.496580 0.245417
C33   C     C_R   0.978133 0.565156 0.490516 -0.014719
C34   C     C_R   0.021974 0.434829 0.509108 -0.014302
C35   C     C_R   0.021402 0.565061 0.511624 -0.015754
C36   C     C_R   0.978688 0.434925 0.488046 -0.015050
C37   C     C_R   0.461542 0.062564 0.542084 -0.014938
C38   C     C_R   0.519270 0.935466 0.519354 -0.014793
C39   C     C_R   0.509550 0.063259 0.550463 -0.017049
C40   C     C_R   0.474396 0.936087 0.502755 -0.016282
C41   C     C_R   0.445339 0.999763 0.513969 0.036981
C42   C     C_R   0.538580 0.999571 0.538771 0.036711
C43   C     C_R   0.956235 0.500090 0.479674 0.035060
C44   C     C_R   0.043849 0.499894 0.520015 0.034891
C45   C     C_R   0.383135 0.936827 0.471874 0.028978
C46   C     C_R   0.609625 0.064683 0.555784 0.023707
C47   C     C_R   0.612370 0.934078 0.544768 0.026496
C48   C     C_R   0.368596 0.062907 0.515129 0.022359
C49   C     C_R   0.887658 0.434809 0.456219 0.023123
C50   C     C_R   0.112359 0.565173 0.543667 0.026054
C51   C     C_R   0.112673 0.434456 0.542036 0.024877
C52   C     C_R   0.887378 0.565525 0.457745 0.025711
C53   C     C_R   0.333245 0.935690 0.467784 -0.118198
C54   C     C_R   0.663423 0.065212 0.545367 -0.115092
C55   C     C_R   0.664431 0.934429 0.541327 -0.117049
C56   C     C_R   0.325759 0.064217 0.491134 -0.114876
C57   C     C_R   0.836056 0.434664 0.457778 -0.114247
C58   C     C_R   0.163937 0.565325 0.542212 -0.115871
C59   C     C_R   0.164069 0.434566 0.541497 -0.110474
C60   C     C_R   0.835938 0.565425 0.458446 -0.112844
C61   C     C_R   0.307654 0.000252 0.471359 -0.257522
C62   C     C_R   0.688976 0.999932 0.540557 -0.255487
C63   C     C_R   0.811701 0.499978 0.457919 -0.261919
C64   C     C_R   0.188275 0.500012 0.542139 -0.264873
H1    H     H_    0.272060 0.000381 0.461352 0.193337
H2    H     H_    0.729666 0.000136 0.532603 0.195754
H3    H     H_    0.771998 0.499878 0.461641 0.193811
H4    H     H_    0.227948 0.500116 0.538541 0.192103
C65   C     C_R   0.399156 0.999970 0.499814 0.076067
C66   C     C_R   0.587190 0.999579 0.545819 0.072787
C67   C     C_R   0.910222 0.500147 0.464769 0.071405
C68   C     C_R   0.089831 0.499836 0.535013 0.071675
C69   C     C_R   0.584202 0.870683 0.546306 -0.145203
C70   C     C_R   0.381427 0.121631 0.555276 -0.158516
C71   C     C_R   0.416737 0.876453 0.451553 -0.148128
C72   C     C_R   0.576659 0.126175 0.578172 -0.158063
C73   C     C_R   0.083185 0.371399 0.548148 -0.161417
C74   C     C_R   0.916904 0.628573 0.451484 -0.155659
C75   C     C_R   0.917564 0.371942 0.447630 -0.158887
C76   C     C_R   0.082453 0.628037 0.552221 -0.148662
H5    H     H_    0.590893 0.821006 0.571283 0.204878
H6    H     H_    0.353858 0.165364 0.582864 0.217064
H7    H     H_    0.411597 0.832127 0.415189 0.200295
H8    H     H_    0.587709 0.172895 0.603504 0.209007
H9    H     H_    0.089676 0.323297 0.576538 0.208631
H10   H     H_    0.910364 0.676662 0.423124 0.207039
H11   H     H_    0.910731 0.324276 0.418439 0.207978
H12   H     H_    0.089259 0.675697 0.581455 0.203786
C77   C     C_R   0.217641 0.761167 0.956429 0.026381
C78   C     C_R   0.778060 0.228768 0.047925 0.022197
C79   C     C_R   0.775192 0.771305 0.051624 0.028235
C80   C     C_R   0.205889 0.260532 0.965857 0.023855
C81   C     C_R   0.722226 0.271515 0.951740 0.022312
C82   C     C_R   0.281674 0.737643 0.044053 0.025856
C83   C     C_R   0.265834 0.293645 0.058315 0.028498
C84   C     C_R   0.719637 0.731425 0.955582 0.030578
C85   C     C_R   0.265620 0.721063 0.913856 0.040494
C86   C     C_R   0.722367 0.245742 0.094601 0.042686
C87   C     C_R   0.730790 0.724524 0.090319 0.032747
C88   C     C_R   0.255601 0.296666 0.922047 0.029878
C89   C     C_R   0.777922 0.254513 0.905038 0.036827
C90   C     C_R   0.233642 0.777647 0.086676 0.037025
C91   C     C_R   0.211766 0.269777 0.106462 0.035256
C92   C     C_R   0.768457 0.769249 0.913313 0.033781
C93   C     C_R   0.299075 0.712583 0.955843 0.042189
C94   C     C_R   0.694478 0.268221 0.046394 0.043883
C95   C     C_R   0.698579 0.713562 0.046788 0.034497
C96   C     C_R   0.288105 0.305655 0.965421 0.026520
C97   C     C_R   0.805821 0.232059 0.953263 0.040788
C98   C     C_R   0.200191 0.786128 0.044682 0.040357
C99   C     C_R   0.183067 0.248016 0.058893 0.043279
C100  C     C_R   0.790916 0.798489 0.965387 0.042826
C101  C     C_R   0.139040 0.816793 0.952778 0.056417
C102  C     C_R   0.859819 0.182893 0.051364 0.059181
C103  C     C_R   0.843534 0.845381 0.064484 0.056640
C104  C     C_R   0.132429 0.194107 0.956681 0.059877
C105  C     C_R   0.640409 0.317336 0.948411 0.064077
C106  C     C_R   0.360530 0.682551 0.047440 0.058956
C107  C     C_R   0.351631 0.330099 0.055061 0.052326
C108  C     C_R   0.640552 0.679973 0.950886 0.054287
C109  C     C_R   0.114496 0.844201 0.900969 -0.125578
C110  C     C_R   0.884350 0.153489 0.101735 -0.122662
C111  C     C_R   0.875415 0.860653 0.108496 -0.119048
C112  C     C_R   0.112333 0.159119 0.902228 -0.123196
C113  C     C_R   0.615801 0.346673 0.898126 -0.127754
C114  C     C_R   0.385313 0.655551 0.099097 -0.122918
C115  C     C_R   0.380588 0.351016 0.102733 -0.121190
C116  C     C_R   0.615857 0.652982 0.899403 -0.121729
C117  C     C_R   0.135473 0.824484 0.810944 -0.262566
C118  C     C_R   0.861854 0.168678 0.192842 -0.263392
C119  C     C_R   0.861109 0.830608 0.192309 -0.267633
C120  C     C_R   0.135482 0.175323 0.810885 -0.264035
C121  C     C_R   0.638275 0.331480 0.807034 -0.254026
C122  C     C_R   0.364455 0.675458 0.189034 -0.264048
C123  C     C_R   0.360128 0.331971 0.192393 -0.263137
C124  C     C_R   0.638228 0.669526 0.808458 -0.266648
H13   H     H_    0.118036 0.846988 0.770953 0.200538
H14   H     H_    0.883040 0.153231 0.230154 0.200541
H15   H     H_    0.882755 0.846373 0.228888 0.198924
H16   H     H_    0.120874 0.148150 0.769370 0.198911
H17   H     H_    0.617041 0.346852 0.769773 0.206241
H18   H     H_    0.382085 0.653269 0.228904 0.200513
H19   H     H_    0.383853 0.342446 0.227053 0.192682
H20   H     H_    0.617673 0.652630 0.770531 0.197109
C125  C     C_R   0.179859 0.778926 0.770198 -0.123218
C126  C     C_R   0.811329 0.200533 0.237382 -0.123398
C127  C     C_R   0.817970 0.783002 0.231657 -0.123259
C128  C     C_R   0.178504 0.223297 0.770802 -0.116257
C129  C     C_R   0.688810 0.299648 0.762462 -0.125385
C130  C     C_R   0.319959 0.720819 0.229851 -0.123560
C131  C     C_R   0.308844 0.302252 0.239148 -0.120822
C132  C     C_R   0.687743 0.704531 0.764472 -0.119341
C133  C     C_R   0.204379 0.751624 0.822088 0.056823
C134  C     C_R   0.780374 0.210453 0.190810 0.053790
C135  C     C_R   0.792128 0.757776 0.180965 0.052554
C136  C     C_R   0.199953 0.256088 0.824528 0.047148
C137  C     C_R   0.719838 0.289786 0.808925 0.046829
C138  C     C_R   0.295192 0.747713 0.178124 0.053186
C139  C     C_R   0.274976 0.296909 0.196684 0.044876
C140  C     C_R   0.717327 0.720368 0.812449 0.048194
C141  C     C_R   0.187049 0.776776 0.910215 0.074871
C142  C     C_R   0.806193 0.207810 0.096575 0.076864
C143  C     C_R   0.803931 0.791186 0.098946 0.072038
C144  C     C_R   0.179335 0.236737 0.915611 0.073303
C145  C     C_R   0.694059 0.292463 0.903143 0.078612
C146  C     C_R   0.312419 0.722352 0.090107 0.074165
C147  C     C_R   0.297585 0.306546 0.103327 0.078436
C148  C     C_R   0.692211 0.711058 0.906278 0.075440
C149  C     C_R   0.117313 0.826348 0.046138 -0.167483
C150  C     C_R   0.886927 0.188318 0.957984 -0.176769
C151  C     C_R   0.848675 0.882851 0.988019 -0.165320
C152  C     C_R   0.107297 0.189341 0.050860 -0.175401
C153  C     C_R   0.613336 0.311897 0.041773 -0.173750
C154  C     C_R   0.382122 0.672826 0.954121 -0.169766
C155  C     C_R   0.374514 0.331840 0.961083 -0.159969
C156  C     C_R   0.616085 0.676281 0.045356 -0.163472
C157  C     C_R   0.147910 0.814000 0.090346 -0.198862
C158  C     C_R   0.860754 0.212212 0.910118 -0.193362
C159  C     C_R   0.826179 0.856546 0.935857 -0.203252
C160  C     C_R   0.132271 0.214576 0.100558 -0.193931
C161  C     C_R   0.639549 0.288072 0.089579 -0.195461
C162  C     C_R   0.351377 0.684812 0.910098 -0.203200
C163  C     C_R   0.343169 0.322111 0.917495 -0.174338
C164  C     C_R   0.645625 0.688310 0.091723 -0.194782
C165  C     C_R   0.245092 0.699026 0.790608 -0.163243
C166  C     C_R   0.724407 0.220341 0.235029 -0.169795
C167  C     C_R   0.754342 0.701002 0.209241 -0.145697
C168  C     C_R   0.240771 0.308801 0.791983 -0.136095
C169  C     C_R   0.775815 0.279830 0.764628 -0.159718
C170  C     C_R   0.254340 0.800126 0.209643 -0.155863
C171  C     C_R   0.219018 0.284505 0.244248 -0.159203
C172  C     C_R   0.771560 0.743853 0.770757 -0.160236
C173  C     C_R   0.276366 0.686187 0.833490 -0.197840
C174  C     C_R   0.696136 0.237601 0.188368 -0.195393
C175  C     C_R   0.721878 0.687897 0.168255 -0.179238
C176  C     C_R   0.269993 0.325490 0.837451 -0.132557
C177  C     C_R   0.804123 0.262562 0.811246 -0.186255
C178  C     C_R   0.222909 0.812616 0.166972 -0.188534
C179  C     C_R   0.188506 0.269253 0.200331 -0.187207
C180  C     C_R   0.795049 0.772753 0.820165 -0.201175
H21   H     H_    0.075970 0.840879 0.087993 0.184239
H22   H     H_    0.929432 0.176975 0.920544 0.172804
H23   H     H_    0.868227 0.933957 0.967667 0.185344
H24   H     H_    0.067246 0.168257 0.088860 0.180893
H25   H     H_    0.570825 0.323171 0.079261 0.167357
H26   H     H_    0.423491 0.658528 0.912095 0.181302
H27   H     H_    0.417239 0.337951 0.919145 0.195144
H28   H     H_    0.573781 0.665403 0.085515 0.182314
H29   H     H_    0.128947 0.823918 0.161540 0.165974
H30   H     H_    0.885041 0.213359 0.838708 0.158561
H31   H     H_    0.833648 0.885028 0.875337 0.161896
H32   H     H_    0.111280 0.205232 0.171631 0.165748
H33   H     H_    0.615285 0.286989 0.160987 0.147299
H34   H     H_    0.370276 0.674803 0.838928 0.160366
H35   H     H_    0.363355 0.324276 0.845236 0.207950
H36   H     H_    0.625640 0.681632 0.163595 0.178662
H37   H     H_    0.252700 0.664712 0.734601 0.178627
H38   H     H_    0.700910 0.211525 0.305989 0.178622
H39   H     H_    0.749765 0.664500 0.261696 0.176509
H40   H     H_    0.250850 0.339301 0.732308 0.179876
H41   H     H_    0.799288 0.288549 0.693634 0.188454
H42   H     H_    0.246763 0.834650 0.265453 0.181774
H43   H     H_    0.197118 0.288647 0.316076 0.196694
H44   H     H_    0.798131 0.738430 0.700432 0.206407
H45   H     H_    0.307557 0.646251 0.804409 0.154671
H46   H     H_    0.653350 0.243346 0.228497 0.148894
H47   H     H_    0.692112 0.645735 0.194886 0.161728
H48   H     H_    0.302722 0.363391 0.806943 0.166338
H49   H     H_    0.846901 0.256692 0.771069 0.160107
H50   H     H_    0.191648 0.852456 0.196092 0.160010
H51   H     H_    0.146185 0.259383 0.241925 0.167178
H52   H     H_    0.835796 0.793069 0.784759 0.177083
O33   O     O_R   0.051640 0.926880 0.885090 -0.568203
O34   O     O_R   0.948360 0.073120 0.114910 -0.580955
O35   O     O_R   0.948360 0.926880 0.114910 -0.580228
O36   O     O_R   0.051640 0.073120 0.885090 -0.577598
O37   O     O_R   0.551640 0.426880 0.885090 -0.570052
O38   O     O_R   0.448360 0.573120 0.114910 -0.577260
O39   O     O_R   0.448360 0.426880 0.114910 -0.580667
O40   O     O_R   0.551640 0.573120 0.885090 -0.580004
Cu9   Cu    Cu3+1 0.495240 0.500000 0.924150 0.994570
Cu10  Cu    Cu3+1 0.504760 0.500000 0.075850 0.982341
Cu11  Cu    Cu3+1 0.995240 1.000000 0.924150 0.989261
Cu12  Cu    Cu3+1 0.004760 0.000000 0.075850 0.986417
C181  C     C_R   0.923492 0.907322 0.068833 0.806924
C182  C     C_R   0.071594 0.100309 0.935605 0.793473
C183  C     C_R   0.072212 0.900597 0.935036 0.813953
C184  C     C_R   0.928231 0.099806 0.064836 0.780283
C185  C     C_R   0.426967 0.401482 0.065470 0.794385
C186  C     C_R   0.572051 0.599343 0.935150 0.799601
C187  C     C_R   0.571826 0.400252 0.935112 0.799509
C188  C     C_R   0.427725 0.599332 0.065003 0.797353
O41   O     O_R   0.940620 0.926560 0.986760 -0.594329
O42   O     O_R   0.059380 0.073440 0.013240 -0.589230
O43   O     O_R   0.059380 0.926560 0.013240 -0.591496
O44   O     O_R   0.940620 0.073440 0.986760 -0.598044
O45   O     O_R   0.440620 0.426560 0.986760 -0.588759
O46   O     O_R   0.559380 0.573440 0.013240 -0.590635
O47   O     O_R   0.559380 0.426560 0.013240 -0.588361
O48   O     O_R   0.440620 0.573440 0.986760 -0.594950
N1    N     N_R   0.552134 0.739364 0.495353 0.134114
O49   O     O_R   0.523466 0.684615 0.539249 -0.305532
O50   O     O_R   0.603754 0.731888 0.445867 -0.346467
N2    N     N_R   0.412107 0.249309 0.616508 0.134876
O51   O     O_R   0.430998 0.308477 0.572625 -0.308630
O52   O     O_R   0.365519 0.249463 0.687221 -0.390755
N3    N     N_R   0.468973 0.742811 0.444525 0.137240
O53   O     O_R   0.504346 0.704486 0.379607 -0.321348
O54   O     O_R   0.420087 0.718773 0.489730 -0.345683
N4    N     N_R   0.511093 0.253263 0.622492 0.140614
O55   O     O_R   0.480136 0.283026 0.699010 -0.336286
O56   O     O_R   0.554594 0.286170 0.566495 -0.348137
N5    N     N_R   0.042855 0.237310 0.520008 0.136691
O57   O     O_R   0.010898 0.189142 0.574129 -0.304359
O58   O     O_R   0.093531 0.222371 0.471149 -0.361196
N6    N     N_R   0.957389 0.762683 0.479262 0.136764
O59   O     O_R   0.989421 0.810776 0.425109 -0.303485
O60   O     O_R   0.906724 0.777735 0.528028 -0.360838
N7    N     N_R   0.960091 0.237603 0.468427 0.137094
O61   O     O_R   0.992663 0.191387 0.411514 -0.311531
O62   O     O_R   0.909769 0.220604 0.517178 -0.353706
N8    N     N_R   0.039983 0.762400 0.531253 0.136573
O63   O     O_R   0.007355 0.808709 0.587910 -0.303997
O64   O     O_R   0.090338 0.779345 0.482723 -0.344302

loop_
_geom_bond_atom_site_label_1
_geom_bond_atom_site_label_2
_geom_bond_distance
_ccdc_geom_bond_type
N8    O64   1.301265 A    
C77   C141  1.427692 A    
C136  C168  1.413404 A    
C116  C186  1.479515 S    
C138  C146  1.412397 A    
Cu2   Cu5   2.675623 S    
C29   N4    1.436115 S    
C170  H42   1.076720 S    
N1    O49   1.301164 A    
C155  H27   1.078916 S    
C106  C114  1.432298 A    
C44   C68   1.420174 A    
C118  H14   1.083450 S    
C46   C66   1.412814 A    
C1    C130  1.489645 S    
C135  C143  1.411427 A    
Cu6   O22   1.960768 S    
C133  C141  1.412360 A    
C5    C126  1.476982 S    
C22   C30   1.413962 A    
C178  H50   1.080662 S    
C139  C171  1.411461 A    
C154  C162  1.388417 A    
O39   C185  1.315685 A    
O3    Cu3   1.960073 S    
C136  C144  1.416102 A    
C19   C33   1.405127 A    
C78   C142  1.428503 A    
C55   C62   1.399892 A    
O15   Cu7   1.959394 S    
C91   C99   1.428040 A    
C140  C148  1.414644 A    
C158  H30   1.075770 S    
C36   C43   1.409532 A    
O25   C9    1.286443 A    
C101  C141  1.412560 A    
C37   C39   1.413394 A    
N4    O56   1.301231 A    
C114  C122  1.399514 A    
C71   H7    1.077165 S    
C91   C179  1.406047 A    
C105  C145  1.414246 A    
C31   N2    1.433950 S    
C150  H22   1.080646 S    
C53   C61   1.392555 A    
C94   C161  1.414984 A    
C152  C160  1.394460 A    
Cu12  O43   1.963582 S    
C3    O19   1.282243 A    
C101  C109  1.432051 A    
N6    O59   1.301081 A    
C156  C164  1.390751 A    
C38   C42   1.411623 A    
O12   Cu4   1.959394 S    
O13   Cu5   1.958489 S    
C20   C73   1.399662 A    
C184  O44   1.292446 A    
C57   C63   1.399939 A    
C48   C65   1.408660 A    
C23   C31   1.416814 A    
C160  H32   1.078216 S    
C87   C175  1.399174 A    
O33   C183  1.315045 A    
C115  C185  1.488647 S    
C105  C113  1.425776 A    
C78   C86   1.421794 A    
C102  C110  1.425809 A    
C8    O24   1.282044 A    
C164  H36   1.082409 S    
C123  H19   1.083603 S    
C129  C137  1.423278 A    
C124  H20   1.083413 S    
O2    C13   1.311459 A    
C52   C67   1.411558 A    
C107  C147  1.417455 A    
C156  H28   1.078391 S    
C135  C167  1.416149 A    
Cu11  O41   1.961813 S    
C185  O45   1.288493 A    
C149  C157  1.388538 A    
C102  C150  1.400949 A    
Cu3   O19   1.962072 S    
C90   C98   1.417998 A    
O10   Cu2   1.958489 S    
C18   C75   1.400000 A    
C183  O43   1.289125 A    
C108  C116  1.424689 A    
C47   C69   1.415479 A    
C133  C165  1.412184 A    
O4    Cu4   1.960075 S    
C77   C85   1.412808 A    
C27   N6    1.436629 S    
C54   C62   1.399840 A    
C63   H3    1.083263 S    
C140  C172  1.416449 A    
C33   C43   1.409571 A    
C95   C164  1.399172 A    
O6    Cu6   1.955575 S    
C16   C55   1.486509 S    
N7    O62   1.301273 A    
O27   C11   1.282971 A    
C122  H18   1.083277 S    
O15   C4    1.303624 A    
C18   C36   1.405717 A    
C47   C66   1.410920 A    
C6    O22   1.285055 A    
C34   C36   1.409522 A    
C22   C40   1.409172 A    
O7    C12   1.310961 A    
Cu2   O26   1.959123 S    
C38   C40   1.405939 A    
C35   C44   1.409573 A    
N5    O58   1.301290 A    
C92   C180  1.395017 A    
C52   C74   1.413873 A    
C19   C27   1.414592 A    
C45   C53   1.428638 A    
C107  C115  1.431017 A    
C47   C55   1.430608 A    
C109  C117  1.399650 A    
C26   N7    1.436374 S    
O28   C12   1.282912 A    
O16   C3    1.305810 A    
C132  C140  1.427312 A    
O29   C13   1.288541 A    
C119  H15   1.083450 S    
C157  H29   1.080703 S    
C103  C143  1.413390 A    
Cu9   O48   1.963579 S    
C117  H13   1.083261 S    
Cu4   O28   1.962197 S    
C2    C129  1.476382 S    
Cu10  O47   1.963582 S    
Cu5   O29   1.959123 S    
C175  H47   1.082313 S    
C161  H33   1.075652 S    
C107  C155  1.408722 A    
Cu8   O32   1.962197 S    
C6    C125  1.489618 S    
O40   Cu9   1.957351 S    
C149  H21   1.076825 S    
C52   C60   1.433565 A    
C103  C111  1.425205 A    
C50   C76   1.413155 A    
C51   C68   1.411545 A    
C108  C148  1.410861 A    
Cu4   Cu7   2.668785 S    
Cu12  O42   1.961814 S    
O5    Cu5   1.955577 S    
C153  H25   1.080602 S    
C20   C28   1.414531 A    
O9    C6    1.311753 A    
O26   C10   1.286411 A    
C17   C76   1.400120 A    
O11   C8    1.307053 A    
C19   C74   1.399810 A    
O12   C7    1.308957 A    
O13   C2    1.302927 A    
C112  C120  1.401230 A    
C3    C132  1.481151 S    
C4    C131  1.477551 S    
C79   C143  1.416024 A    
C83   C147  1.427683 A    
C11   C60   1.491481 S    
C116  C124  1.397771 A    
C171  H43   1.078448 S    
C172  H44   1.075130 S    
C8    C127  1.480487 S    
C13   C54   1.494173 S    
C24   C38   1.400367 A    
C126  C134  1.423189 A    
C34   C44   1.409590 A    
C15   C56   1.475560 S    
C39   C42   1.405130 A    
C168  H40   1.075592 S    
O37   C187  1.310702 A    
C169  H41   1.079849 S    
C106  C154  1.412127 A    
C151  C159  1.383323 A    
O1    Cu1   1.955577 S    
C166  C174  1.386122 A    
C112  C182  1.494077 S    
C17   C35   1.405744 A    
Cu7   O31   1.962197 S    
C22   C71   1.399837 A    
C92   C100  1.401609 A    
C21   C39   1.410167 A    
O7    Cu7   1.960073 S    
O8    Cu8   1.960075 S    
C98   C157  1.403632 A    
C28   N5    1.436541 S    
N8    O63   1.301082 A    
C115  C123  1.393554 A    
C30   N3    1.436587 S    
C79   C87   1.409284 A    
C173  H45   1.080676 S    
C69   H5    1.072823 S    
Cu11  Cu12  2.687554 S    
C51   C59   1.433574 A    
C73   H9    1.074403 S    
C1    O17   1.284809 A    
C75   H11   1.075097 S    
C48   C56   1.430104 A    
C33   C35   1.409570 A    
C137  C145  1.410002 A    
C186  O46   1.290002 A    
C166  H38   1.079716 S    
O36   C182  1.313854 A    
O11   Cu3   1.959394 S    
C85   C93   1.418011 A    
C96   C163  1.405264 A    
C45   C65   1.415838 A    
C82   C146  1.427921 A    
C104  C152  1.411816 A    
C108  C156  1.415533 A    
C100  C159  1.394866 A    
N6    O60   1.301299 A    
C14   C53   1.488421 S    
C153  C161  1.389633 A    
C49   C75   1.413098 A    
C25   C27   1.409038 A    
C51   C73   1.413903 A    
C111  C119  1.397263 A    
C120  H16   1.083232 S    
C162  H34   1.080677 S    
C59   C64   1.399616 A    
C121  H17   1.083469 S    
C159  H31   1.083066 S    
C56   C61   1.395699 A    
C79   C100  1.406066 A    
Cu1   O17   1.960767 S    
C102  C142  1.413940 A    
Cu3   O27   1.962197 S    
N1    O50   1.301304 A    
C80   C144  1.428109 A    
N3    O53   1.301230 A    
C106  C146  1.412568 A    
C151  H23   1.075616 S    
C45   C71   1.408542 A    
C25   N8    1.436506 S    
Cu9   O45   1.961813 S    
C84   C148  1.416026 A    
C93   C162  1.403474 A    
C60   C63   1.399595 A    
O40   C186  1.309854 A    
C82   C90   1.412949 A    
C110  C118  1.393462 A    
C37   C41   1.414312 A    
C118  C126  1.393878 A    
C21   C72   1.411519 A    
C122  C130  1.399192 A    
Cu6   O30   1.959123 S    
C41   C65   1.417371 A    
C137  C169  1.403634 A    
O4    C15   1.304434 A    
C43   C67   1.420113 A    
O5    C10   1.311243 A    
C86   C174  1.410974 A    
C64   H4    1.083272 S    
O38   C188  1.315276 A    
C130  C138  1.432203 A    
C90   C178  1.403266 A    
C82   C93   1.412748 A    
O37   Cu9   1.960952 S    
N4    O55   1.301181 A    
C72   H8    1.076378 S    
C17   C25   1.414540 A    
C76   H12   1.075120 S    
C179  H51   1.078663 S    
C80   C88   1.410448 A    
C81   C89   1.421991 A    
Cu1   Cu6   2.675623 S    
C165  C173  1.388343 A    
C134  C166  1.403204 A    
Cu3   Cu8   2.668785 S    
C84   C92   1.405726 A    
C101  C149  1.412036 A    
O10   C5    1.302977 A    
O14   Cu6   1.958489 S    
N5    O57   1.301078 A    
C97   C158  1.415058 A    
O14   C1    1.311977 A    
C48   C70   1.417304 A    
C124  C132  1.396580 A    
C165  H37   1.076804 S    
N7    O61   1.301118 A    
Cu4   O20   1.962070 S    
Cu5   O21   1.960767 S    
C4    O20   1.283014 A    
C5    O21   1.287840 A    
C88   C176  1.399448 A    
C80   C99   1.413877 A    
C99   C160  1.408412 A    
C177  H49   1.076032 S    
C81   C94   1.417810 A    
C113  C121  1.393281 A    
C26   C28   1.408890 A    
C111  C181  1.479107 S    
O2    Cu2   1.955575 S    
C50   C68   1.410950 A    
C88   C96   1.413299 A    
C89   C97   1.425323 A    
C87   C95   1.413009 A    
C42   C66   1.418268 A    
C46   C72   1.413962 A    
C131  C139  1.428527 A    
C123  C131  1.395251 A    
C58   C64   1.399941 A    
C174  H46   1.075866 S    
C81   C145  1.428488 A    
C171  C179  1.390851 A    
O39   Cu10  1.957351 S    
C20   C34   1.405039 A    
C29   C31   1.412138 A    
C46   C54   1.432798 A    
C9    C58   1.490900 S    
C23   C70   1.405534 A    
C2    O18   1.287633 A    
C7    C128  1.491646 S    
C187  O47   1.292493 A    
C167  H39   1.077968 S    
C113  C187  1.484759 S    
C114  C188  1.490069 S    
O16   Cu8   1.959394 S    
O30   C14   1.286316 A    
C18   C26   1.414389 A    
C176  H48   1.082029 S    
C61   H1    1.083543 S    
O33   Cu11  1.960952 S    
O34   Cu12  1.960949 S    
Cu9   Cu10  2.687554 S    
C49   C57   1.431592 A    
N2    O52   1.299963 A    
N3    O54   1.301262 A    
O1    C14   1.310868 A    
O3    C16   1.308398 A    
Cu11  O44   1.963579 S    
C78   C97   1.417931 A    
C139  C147  1.411120 A    
C154  H26   1.076756 S    
O35   Cu12  1.957351 S    
Cu2   O18   1.960768 S    
O8    C11   1.310924 A    
C128  C136  1.431249 A    
O9    Cu1   1.958489 S    
N2    O51   1.301004 A    
C170  C178  1.388173 A    
C85   C173  1.403415 A    
C104  C144  1.413820 A    
Cu10  O46   1.961814 S    
O31   C15   1.281447 A    
C23   C37   1.404320 A    
C21   C29   1.414817 A    
O32   C16   1.282487 A    
C10   C57   1.490723 S    
C89   C177  1.411149 A    
C24   C69   1.393219 A    
C127  C135  1.427199 A    
C125  C133  1.431940 A    
C40   C41   1.406404 A    
C155  C163  1.389501 A    
C138  C170  1.412265 A    
O36   Cu11  1.957351 S    
C167  C175  1.391063 A    
C49   C67   1.410903 A    
C12   C59   1.491358 S    
C105  C153  1.400684 A    
C150  C158  1.389997 A    
C119  C127  1.396593 A    
C86   C94   1.424989 A    
C180  H52   1.083168 S    
C103  C151  1.415832 A    
C117  C125  1.399305 A    
C77   C98   1.412605 A    
C152  H24   1.077120 S    
C32   N1    1.437034 S    
C120  C128  1.399919 A    
Cu7   O23   1.962072 S    
C121  C129  1.393939 A    
C83   C91   1.419592 A    
Cu8   O24   1.962070 S    
C182  O42   1.292648 A    
C7    O23   1.284739 A    
C62   H2    1.083229 S    
C24   C32   1.414287 A    
O6    C9    1.311274 A    
Cu1   O25   1.959123 S    
C168  C176  1.387226 A    
C84   C95   1.409971 A    
C188  O48   1.288878 A    
C70   H6    1.073190 S    
C163  H35   1.081593 S    
O34   C184  1.310685 A    
C104  C112  1.432955 A    
C134  C142  1.410207 A    
C83   C96   1.411128 A    
O38   Cu10  1.960949 S    
C181  O41   1.289438 A    
C172  C180  1.383510 A    
C30   C32   1.408156 A    
C74   H10   1.074423 S    
C169  C177  1.386416 A    
C50   C58   1.431705 A    
C109  C183  1.490172 S    
C110  C184  1.484342 S    
O35   C181  1.308776 A    
