data_mof_unit_14845.cif
_audit_creation_date              2012-12-10T17:20:21-0500
_audit_creation_method            fapswitch 2.2
_symmetry_space_group_name_H-M    P1
_symmetry_Int_Tables_number       1
_space_group_crystal_system       triclinic
_cell_length_a                    11.684986
_cell_length_b                    10.800568
_cell_length_c                    9.683585
_cell_angle_alpha                 90.781845
_cell_angle_beta                  89.957794
_cell_angle_gamma                 93.110672
_cell_volume                      1220.197569

loop_
_atom_site_label
_atom_site_type_symbol
_atom_type_description
_atom_site_fract_x
_atom_site_fract_y
_atom_site_fract_z
_atom_type_partial_charge
C1    C     C_R   0.496245 0.262957 0.499275 0.887989
C2    C     C_R   0.197221 0.051423 0.651646 -0.278861
C3    C     C_R   0.199212 0.923736 0.659537 -0.229878
C4    C     C_R   0.293931 0.862862 0.612317 0.609235
C5    C     C_R   0.390960 0.929869 0.556726 -0.171099
C6    C     C_R   0.389693 0.061305 0.551670 -0.077547
C7    C     C_R   0.486833 0.128969 0.498071 -0.139481
C8    C     C_R   0.580722 0.068761 0.447506 -0.282837
C9    C     C_R   0.582047 0.941303 0.451035 0.626583
C10   C     C_R   0.488419 0.870988 0.503971 -0.217966
C11   C     C_R   0.687468 0.618113 0.140845 0.494484
C12   C     C_R   0.284321 0.498875 0.499870 0.972479
C13   C     C_R   0.791996 0.627988 0.071930 0.443214
C14   C     C_R   0.793037 0.618115 0.929305 0.427549
C15   C     C_R   0.687561 0.620540 0.861418 0.011352
C16   C     C_R   0.590063 0.560633 0.926489 0.023373
C17   C     C_R   0.590024 0.560096 0.075006 -0.078003
C18   C     C_R   0.415293 0.438857 0.070531 0.245112
C19   C     C_R   0.415974 0.440654 0.923569 0.013055
C20   C     C_R   0.495662 0.736983 0.501055 0.963721
C21   C     C_R   0.715607 0.500053 0.499980 0.832691
C22   C     C_1   0.162462 0.498969 0.499773 -0.057763
C23   C     C_1   0.059886 0.499388 0.499798 0.055276
C24   C     C_1   0.939999 0.499909 0.499868 0.087331
C25   C     C_1   0.837414 0.500115 0.499920 -0.084814
C26   C     C_R   0.290458 0.120211 0.597801 0.584494
Cu1   Cu    Cu3+1 0.499990 0.499990 0.640660 1.030680
Cu2   Cu    Cu3+1 0.500010 0.500010 0.359340 1.029107
H1    H     H_    0.655107 0.121440 0.408138 0.168605
H2    H     H_    0.347584 0.392288 0.865787 0.163337
H3    H     H_    0.122282 0.097590 0.686620 0.198849
H4    H     H_    0.126033 0.871046 0.701457 0.223047
N1    N     N_R   0.501070 0.501210 0.147910 -0.160557
N2    N     N_R   0.501110 0.501290 0.852040 -0.171314
O1    O     O_R   0.499990 0.319640 0.618810 -0.555956
O2    O     O_R   0.500000 0.319660 0.381240 -0.607627
O3    O     O_R   0.337190 0.500000 0.618790 -0.502005
O4    O     O_R   0.337200 0.500030 0.381210 -0.613008
O5    O     O_R   0.500000 0.680340 0.618760 -0.569809
O6    O     O_R   0.500010 0.680360 0.381190 -0.493389
O7    O     O_R   0.662800 0.499970 0.618790 -0.586183
O8    O     O_R   0.662810 0.500000 0.381210 -0.537995
F1    F     F_    0.891483 0.650510 0.860927 -0.599988
C27   C     C_3   0.676211 0.741035 0.786699 -0.607799
H5    H     H_    0.696044 0.730062 0.675481 0.254428
H6    H     H_    0.591232 0.778823 0.806652 0.218596
H7    H     H_    0.738143 0.815085 0.826261 0.219537
F2    F     F_    0.280084 0.243809 0.588057 -0.711977
F3    F     F_    0.288021 0.738452 0.622460 -0.684909
F4    F     F_    0.677690 0.886653 0.407500 -0.601887
C28   C     C_3   0.316605 0.366113 0.135964 -0.750415
H8    H     H_    0.276081 0.297564 0.061885 0.190790
H9    H     H_    0.344463 0.311690 0.224083 0.263785
H10   H     H_    0.249311 0.429488 0.166983 0.246798
F5    F     F_    0.680407 0.686647 0.257140 -0.546474
F6    F     F_    0.888464 0.668479 0.140412 -0.565959

loop_
_geom_bond_atom_site_label_1
_geom_bond_atom_site_label_2
_ccdc_geom_bond_type
C15   C27   S    
C23   C24   S    
C6    C7    A    
C28   H8    S    
Cu2   O4    S    
C9    C10   A    
Cu1   O7    S    
C27   H7    S    
C26   F2    S    
C4    F3    S    
C28   H10   S    
Cu1   O1    S    
C13   F6    S    
C2    C3    A    
C7    C8    A    
C2    C26   A    
C8    H1    S    
C13   C14   A    
C24   C25   T    
C11   C13   A    
Cu2   O2    S    
C6    C26   A    
C17   N1    A    
Cu1   O3    S    
C21   O7    A    
C5    C6    A    
Cu2   O8    S    
C27   H6    S    
C18   C28   S    
C2    H3    S    
Cu1   N2    S    
C12   O4    A    
C3    H4    S    
C20   O6    A    
C18   N1    A    
C16   C17   A    
Cu2   N1    S    
Cu2   O6    S    
C5    C10   A    
C3    C4    A    
C12   C22   S    
C4    C5    A    
C11   F5    S    
C27   H5    S    
C1    O1    A    
C18   C19   A    
C12   O3    A    
Cu1   O5    S    
Cu1   Cu2   S    
C20   O5    A    
C21   C25   S    
C14   C15   A    
C8    C9    A    
C21   O8    A    
C16   N2    A    
C1    C7    S    
C19   H2    S    
C22   C23   T    
C11   C17   A    
C9    F4    S    
C15   C16   A    
C1    O2    A    
C10   C20   S    
C14   F1    S    
C28   H9    S    
C19   N2    A    
