data_mof_unit_53254.cif
_audit_creation_date              2012-12-11T15:49:12-0500
_audit_creation_method            fapswitch 2.2
_symmetry_space_group_name_H-M    P1
_symmetry_Int_Tables_number       1
_space_group_crystal_system       triclinic
_cell_length_a                    21.717841
_cell_length_b                    7.214978
_cell_length_c                    14.923975
_cell_angle_alpha                 90.736552
_cell_angle_beta                  106.741507
_cell_angle_gamma                 90.059403
_cell_volume                      2239.16184373

loop_
_atom_site_label
_atom_site_type_symbol
_atom_type_description
_atom_site_fract_x
_atom_site_fract_y
_atom_site_fract_z
_atom_type_partial_charge
O1    O     O_R   0.335860 0.638190 0.002110 -0.529421
O2    O     O_R   0.664140 0.361810 0.997890 -0.523825
O3    O     O_R   0.164140 0.138190 0.997890 -0.526747
O4    O     O_R   0.835860 0.861810 0.002110 -0.533876
O5    O     O_R   0.217530 0.305920 0.861960 -0.525004
O6    O     O_R   0.782470 0.694080 0.138040 -0.531020
O7    O     O_R   0.282470 0.805920 0.138040 -0.540307
O8    O     O_R   0.717530 0.194080 0.861960 -0.542490
C1    C     C_R   0.205966 0.475310 0.825738 0.705052
C2    C     C_R   0.794167 0.524507 0.174190 0.694090
C3    C     C_R   0.294094 0.977925 0.173826 0.693381
C4    C     C_R   0.706022 0.022054 0.826133 0.664136
O9    O     O_R   0.338690 0.308320 0.993240 -0.546381
O10   O     O_R   0.661310 0.691680 0.006760 -0.537363
O11   O     O_R   0.161310 0.808320 0.006760 -0.542656
O12   O     O_R   0.838690 0.191680 0.993240 -0.540647
O13   O     O_R   0.286170 0.140430 0.130100 -0.535189
O14   O     O_R   0.713830 0.859570 0.869900 -0.542921
O15   O     O_R   0.213830 0.640430 0.869900 -0.539439
O16   O     O_R   0.786170 0.359570 0.130100 -0.530668
C5    C     C_R   0.364417 0.478365 0.995489 0.687027
C6    C     C_R   0.635383 0.521347 0.003467 0.680356
C7    C     C_R   0.134592 0.977015 0.999416 0.709059
C8    C     C_R   0.865289 0.023257 0.000313 0.718948
O17   O     O_3   0.232630 0.472410 0.044750 -0.380324
O18   O     O_3   0.767370 0.527590 0.955250 -0.385394
O19   O     O_3   0.267370 0.972410 0.955250 -0.380371
O20   O     O_3   0.732630 0.027590 0.044750 -0.348160
V1    V     V_3+5 0.253220 0.196620 0.991700 1.494400
V2    V     V_3+5 0.746780 0.803380 0.008300 1.508432
V3    V     V_3+5 0.246780 0.696620 0.008300 1.480612
V4    V     V_3+5 0.753220 0.303380 0.991700 1.503045
C9    C     C_R   0.040894 0.865910 0.050882 -0.176587
C10   C     C_R   0.958835 0.135896 0.949405 -0.189833
C11   C     C_R   0.465793 0.333948 0.980219 -0.176643
C12   C     C_R   0.533671 0.664964 0.017382 -0.229096
H1    H     H_    0.073173 0.765616 0.093494 0.151043
H2    H     H_    0.926766 0.238059 0.907919 0.147102
H3    H     H_    0.440156 0.206227 0.964449 0.164834
H4    H     H_    0.558955 0.794115 0.032054 0.186396
C13   C     C_R   0.977629 0.881095 0.057913 0.020401
C14   C     C_R   0.022713 0.126054 0.945120 0.012839
C15   C     C_R   0.531105 0.336247 0.985510 0.025153
C16   C     C_R   0.467658 0.662471 0.007822 0.024013
C17   C     C_R   0.934924 0.013384 0.003634 -0.120809
C18   C     C_R   0.064876 0.988037 0.996171 -0.133771
C19   C     C_R   0.566560 0.505360 0.004024 -0.132925
C20   C     C_R   0.433119 0.492978 0.993847 -0.129413
C21   C     C_R   0.677954 0.009601 0.724974 -0.022784
C22   C     C_R   0.322366 0.990173 0.274904 -0.029548
C23   C     C_R   0.821643 0.523192 0.276022 -0.040791
C24   C     C_R   0.178580 0.475082 0.723782 -0.026729
C25   C     C_R   0.688912 0.955619 0.570613 -0.156347
C26   C     C_R   0.311386 0.038707 0.429598 -0.153609
C27   C     C_R   0.816123 0.624089 0.428301 -0.156704
C28   C     C_R   0.183930 0.369520 0.572000 -0.155011
C29   C     C_R   0.716700 0.974663 0.666720 -0.171020
C30   C     C_R   0.283550 0.020528 0.333493 -0.175049
C31   C     C_R   0.786894 0.598644 0.332996 -0.154711
C32   C     C_R   0.213268 0.397615 0.667165 -0.166113
C33   C     C_R   0.611418 0.025029 0.687496 -0.218501
C34   C     C_R   0.389043 0.978001 0.312014 -0.204957
C35   C     C_R   0.885808 0.471199 0.314869 -0.228104
C36   C     C_R   0.114331 0.525401 0.684659 -0.154216
C37   C     C_R   0.581621 0.002589 0.590328 0.083091
C38   C     C_R   0.418799 0.997134 0.409392 0.077844
C39   C     C_R   0.917979 0.506080 0.410720 0.077287
C40   C     C_R   0.082038 0.487816 0.589131 0.078911
C41   C     C_R   0.621962 0.968369 0.532106 0.138245
C42   C     C_R   0.378399 0.028199 0.467864 0.137119
C43   C     C_R   0.881406 0.582313 0.467151 0.140054
C44   C     C_R   0.118576 0.410457 0.532979 0.130879
C45   C     C_R   0.513460 0.011450 0.549390 0.053408
C46   C     C_R   0.486953 0.987789 0.450357 0.055997
C47   C     C_R   0.985312 0.474100 0.451565 0.050814
C48   C     C_R   0.014665 0.519023 0.548333 0.058572
C49   C     C_R   0.529443 0.955149 0.395707 -0.177955
C50   C     C_R   0.470922 0.041763 0.604193 -0.180651
C51   C     C_R   0.975509 0.591148 0.601345 -0.163540
C52   C     C_R   0.024395 0.400683 0.398741 -0.163799
C53   C     C_R   0.595390 0.945691 0.435976 -0.193458
C54   C     C_R   0.404949 0.049551 0.564058 -0.189651
C55   C     C_R   0.910383 0.621270 0.561472 -0.194487
C56   C     C_R   0.089517 0.370080 0.438784 -0.190212
H5    H     H_    0.625965 0.919493 0.391182 0.130585
H6    H     H_    0.374326 0.073194 0.609033 0.132817
H7    H     H_    0.882533 0.678716 0.604870 0.125498
H8    H     H_    0.117326 0.311572 0.395592 0.128345
H9    H     H_    0.415908 0.956084 0.262417 0.129084
H10   H     H_    0.584670 0.052592 0.736613 0.123365
H11   H     H_    0.090543 0.585438 0.731838 0.093737
H12   H     H_    0.909968 0.415595 0.266863 0.138261
H13   H     H_    0.231847 0.030950 0.304746 0.105231
H14   H     H_    0.768308 0.961716 0.695703 0.103918
H15   H     H_    0.262794 0.355929 0.697098 0.111339
H16   H     H_    0.737411 0.640898 0.303244 0.113599
H17   H     H_    0.719753 0.929190 0.526303 0.111060
H18   H     H_    0.280504 0.062236 0.474135 0.111123
H19   H     H_    0.788234 0.683062 0.471192 0.109862
H20   H     H_    0.211813 0.309398 0.529393 0.111565
H21   H     H_    0.513529 0.934879 0.321024 0.144501
H22   H     H_    0.486751 0.059699 0.679003 0.158249
H23   H     H_    0.993540 0.627205 0.674383 0.126408
H24   H     H_    0.006239 0.363437 0.325818 0.155453
C57   C     C_2   0.960315 0.772964 0.130866 0.737379
O21   O     O_2   0.980246 0.614993 0.147920 -0.570408
O22   O     O_R   0.924025 0.856410 0.183772 -0.664789
H25   H     H_    0.919185 0.775102 0.236023 0.292118
C58   C     C_2   0.042268 0.261975 0.884961 0.746625
O23   O     O_2   0.074295 0.213534 0.833580 -0.565349
O24   O     O_R   0.021949 0.445766 0.885368 -0.662755
H26   H     H_    0.038662 0.527756 0.842998 0.276027
C59   C     C_2   0.559650 0.156486 0.973403 0.745690
O25   O     O_2   0.601741 0.092250 0.038388 -0.548406
O26   O     O_R   0.537084 0.058375 0.888875 -0.683833
H27   H     H_    0.561611 0.939388 0.887704 0.276411
C60   C     C_2   0.434527 0.840582 0.997725 0.765720
O27   O     O_2   0.440793 0.943348 0.065537 -0.581348
O28   O     O_R   0.393356 0.884497 0.909733 -0.657386
H28   H     H_    0.367277 0.000205 0.909767 0.296995

loop_
_geom_bond_atom_site_label_1
_geom_bond_atom_site_label_2
_ccdc_geom_bond_type
O17   V3    S    
C55   H7    S    
O1    C5    A    
C27   C31   A    
O19   V1    S    
O13   V1    S    
C45   C46   A    
O3    C7    A    
O24   H26   S    
C10   C14   A    
C48   C51   A    
C52   C56   A    
O4    V2    S    
O15   V3    S    
C4    C21   S    
C21   C29   A    
O7    C3    A    
C57   O22   S    
C13   C57   S    
C52   H24   S    
C8    C17   S    
C36   C40   A    
O9    V1    S    
C14   C58   S    
C60   O28   S    
O16   V4    S    
O4    C8    A    
C50   H22   S    
C2    C23   S    
O26   H27   S    
C38   C46   A    
C34   H9    S    
O1    V3    S    
C37   C45   A    
C12   C19   A    
O2    V4    S    
C14   C18   A    
O3    V1    S    
C24   C32   A    
C49   H21   S    
C1    O15   A    
C2    O16   A    
C28   C44   A    
C46   C49   A    
C35   H12   S    
O2    C6    A    
O22   H25   S    
O14   V2    S    
C11   C15   A    
C47   C52   A    
C43   C55   A    
C23   C35   A    
C40   C44   A    
C5    C20   S    
O11   C7    A    
C6    C19   S    
C25   C41   A    
O12   C8    A    
C7    C18   S    
C9    C18   A    
C51   H23   S    
C1    C24   S    
O10   V2    S    
C11   C20   A    
O5    V1    S    
C35   C39   A    
C21   C33   A    
C34   C38   A    
C22   C30   A    
C12   H4    S    
O7    V3    S    
C24   C36   A    
C25   C29   A    
O18   V4    S    
C25   H17   S    
C54   H6    S    
C45   C50   A    
C9    H1    S    
C28   C32   A    
O8    V4    S    
C11   H3    S    
C47   C48   A    
O5    C1    A    
C50   C54   A    
C26   C42   A    
C49   C53   A    
O8    C4    A    
O9    C5    A    
C10   C17   A    
C40   C48   A    
C44   C56   A    
O6    V2    S    
C29   H14   S    
C22   C34   A    
C12   C16   A    
C23   C31   A    
C31   H16   S    
C28   H20   S    
C27   H19   S    
C33   H10   S    
C59   O25   D    
C26   C30   A    
C3    O13   A    
C10   H2    S    
C30   H13   S    
C56   H8    S    
O6    C2    A    
O28   H28   S    
O11   V3    S    
O12   V4    S    
C57   O21   D    
C9    C13   A    
O10   C6    A    
C58   O24   S    
C3    C22   S    
C60   O27   D    
C15   C59   S    
C51   C55   A    
C38   C42   A    
C16   C60   S    
C37   C41   A    
O20   V2    S    
C39   C43   A    
C42   C54   A    
C53   H5    S    
C41   C53   A    
C32   H15   S    
C33   C37   A    
C39   C47   A    
C4    O14   A    
C13   C17   A    
C26   H18   S    
C36   H11   S    
C58   O23   D    
C15   C19   A    
C27   C43   A    
C16   C20   A    
C59   O26   S    
