data_mof_unit_16505.cif
_audit_creation_date              2012-12-11T17:33:18-0500
_audit_creation_method            fapswitch 2.2
_symmetry_space_group_name_H-M    P1
_symmetry_Int_Tables_number       1
_space_group_crystal_system       triclinic
_cell_length_a                    6.93654
_cell_length_b                    21.788579
_cell_length_c                    22.179363
_cell_angle_alpha                 107.657018
_cell_angle_beta                  91.010995
_cell_angle_gamma                 90.738849
_cell_volume                      3193.1258945

loop_
_atom_site_label
_atom_site_type_symbol
_atom_type_description
_atom_site_fract_x
_atom_site_fract_y
_atom_site_fract_z
_atom_type_partial_charge
O1    O     O_R   0.505730 0.449200 0.552060 -0.532329
O2    O     O_R   0.171560 0.427840 0.423150 -0.542009
O3    O     O_R   0.005630 0.550800 0.447940 -0.544332
C1    C     C_R   0.338385 0.408389 0.399678 0.720051
O4    O     O_R   0.175730 0.441570 0.550050 -0.532278
O5    O     O_R   0.009820 0.564620 0.575740 -0.517835
C2    C     C_R   0.345335 0.428270 0.568533 0.774478
O6    O     O_R   0.501530 0.435380 0.424260 -0.529771
O7    O     O_3   0.340640 0.540360 0.508280 -0.375522
V1    V     V_3+5 0.064080 0.492510 0.498460 1.468128
O8    O     O_R   0.680360 0.572160 0.576850 -0.542952
C3    C     C_R   0.851484 0.589585 0.601611 0.762253
O9    O     O_R   0.676190 0.558430 0.449950 -0.547382
C4    C     C_R   0.844794 0.571850 0.431496 0.671335
V2    V     V_3+5 0.564610 0.507490 0.501540 1.462558
O10   O     O_3   0.837920 0.459640 0.491720 -0.356754
C5    C     C_R   0.095650 0.821982 0.170414 -0.125810
H1    H     H_    0.226715 0.803673 0.185305 0.106796
C6    C     C_R   0.107524 0.861063 0.130484 -0.160953
H2    H     H_    0.248209 0.872012 0.115561 0.119326
C7    C     C_R   0.939746 0.885802 0.110366 -0.053975
C8    C     C_R   0.760104 0.870102 0.131279 -0.159938
H3    H     H_    0.627680 0.888135 0.117042 0.120965
C9    C     C_R   0.748684 0.831078 0.171128 -0.129112
H4    H     H_    0.608768 0.819939 0.186542 0.105897
C10   C     C_R   0.916185 0.806842 0.191033 0.129580
C11   C     C_1   0.903365 0.766749 0.232643 -0.052462
C12   C     C_1   0.891934 0.733309 0.267437 -0.054448
C13   C     C_R   0.046704 0.669055 0.329009 -0.133647
H5    H     H_    0.186615 0.680249 0.313632 0.106253
C14   C     C_R   0.035340 0.630037 0.368864 -0.167195
H6    H     H_    0.167803 0.612062 0.383143 0.119889
C15   C     C_R   0.855709 0.614270 0.389731 -0.053707
C16   C     C_R   0.687879 0.638933 0.369557 -0.169196
H7    H     H_    0.547200 0.627923 0.384438 0.117731
C17   C     C_R   0.699698 0.678008 0.329621 -0.130763
H8    H     H_    0.568596 0.696258 0.314686 0.106149
C18   C     C_R   0.879156 0.693217 0.309050 0.130237
C19   C     C_R   0.869503 0.640755 0.663794 -0.156529
C20   C     C_R   0.926025 0.856630 0.838510 -0.089496
C21   C     C_R   0.848465 0.820018 0.725569 -0.143983
C22   C     C_R   0.872784 0.869940 0.782570 -0.154769
C23   C     C_R   0.951406 0.792261 0.836927 -0.172138
C24   C     C_R   0.922542 0.741110 0.779893 0.108832
C25   C     C_R   0.872708 0.755486 0.723609 0.094264
C26   C     C_R   0.848868 0.705481 0.666193 -0.252514
C27   C     C_R   0.910446 0.625625 0.720520 -0.105463
C28   C     C_R   0.942898 0.676247 0.778412 0.314136
H9    H     H_    0.814875 0.716890 0.622932 0.118289
H10   H     H_    0.809262 0.831898 0.682986 0.117790
H11   H     H_    0.850729 0.919208 0.783012 0.119788
H12   H     H_    0.989764 0.782392 0.880601 0.156794
C29   C     C_R   0.340405 0.351276 0.341583 -0.142654
C30   C     C_R   0.458969 0.144531 0.161262 -0.061894
C31   C     C_R   0.622306 0.203081 0.260687 -0.160079
C32   C     C_R   0.613210 0.151606 0.204761 -0.173313
C33   C     C_R   0.313013 0.190577 0.174744 -0.218665
C34   C     C_R   0.323870 0.243901 0.230221 0.136957
C35   C     C_R   0.479857 0.250750 0.274218 0.081605
C36   C     C_R   0.486545 0.304082 0.330838 -0.073580
C37   C     C_R   0.189475 0.343373 0.296634 -0.135302
C38   C     C_R   0.180351 0.290372 0.242143 -0.158189
H13   H     H_    0.076758 0.378669 0.303768 0.147892
H14   H     H_    0.742757 0.204914 0.292776 0.153672
H15   H     H_    0.060444 0.285885 0.208994 0.125444
H16   H     H_    0.727086 0.116608 0.195766 0.125153
H17   H     H_    0.193727 0.185829 0.141281 0.119745
C39   C     C_R   0.592033 0.188718 0.841155 -0.129956
H18   H     H_    0.718973 0.216371 0.836676 0.136309
C40   C     C_R   0.600226 0.149372 0.880784 -0.258541
H19   H     H_    0.733869 0.148039 0.906290 0.161734
C41   C     C_R   0.438040 0.112745 0.887975 -0.087687
C42   C     C_R   0.265702 0.116044 0.853578 0.354805
C43   C     C_R   0.259586 0.156212 0.814102 -0.225585
H20   H     H_    0.128124 0.158975 0.787958 0.109907
C44   C     C_R   0.421577 0.192471 0.807807 0.087513
C45   C     C_1   0.411503 0.233228 0.766844 -0.017417
C46   C     C_1   0.400764 0.267053 0.732438 0.034344
C47   C     C_R   0.549257 0.343904 0.683138 0.392977
C48   C     C_R   0.533690 0.382787 0.642635 -0.213111
H21   H     H_    0.658216 0.410730 0.636699 0.124826
C49   C     C_R   0.358847 0.386355 0.610584 -0.068280
C50   C     C_R   0.199121 0.349892 0.619494 -0.184817
H22   H     H_    0.062627 0.351317 0.595525 0.139392
C51   C     C_R   0.214044 0.310796 0.659231 -0.208531
H23   H     H_    0.089165 0.282930 0.665048 0.157606
C52   C     C_R   0.388152 0.307602 0.691218 0.088297
O11   O     O_R   0.294110 0.064720 0.075690 -0.540538
O12   O     O_R   0.619980 0.058360 0.949870 -0.543885
O13   O     O_R   0.785810 0.935300 0.924300 -0.533671
C53   C     C_R   0.450356 0.071163 0.930747 0.733763
O14   O     O_R   0.624080 0.072230 0.076800 -0.544173
O15   O     O_R   0.789930 0.949270 0.052130 -0.541859
C54   C     C_R   0.457835 0.090464 0.101149 0.686320
O16   O     O_R   0.289980 0.050750 0.947860 -0.502541
O17   O     O_3   0.454970 0.959660 0.991750 -0.370964
V3    V     V_3+5 0.731560 0.007480 0.001530 1.436683
O18   O     O_R   0.119360 0.941610 0.050140 -0.545001
C55   C     C_R   0.950729 0.928211 0.068591 0.678612
O19   O     O_R   0.115260 0.927740 0.923220 -0.531588
C56   C     C_R   0.943989 0.909754 0.898910 0.726140
V4    V     V_3+5 0.231020 0.992470 0.998490 1.459595
O20   O     O_3   0.957740 0.040330 0.008250 -0.359560
C57   C     C_2   0.905822 0.557371 0.720338 0.722505
O21   O     O_2   0.809359 0.541646 0.759075 -0.537038
O22   O     O_R   0.011221 0.511188 0.676286 -0.663329
H24   H     H_    0.995932 0.466729 0.681377 0.279815
O23   O     O_3   0.995652 0.664079 0.834102 -0.632957
H25   H     H_    0.055627 0.621314 0.824237 0.319384
C58   C     C_2   0.637742 0.308543 0.380254 0.744367
O24   O     O_2   0.591519 0.309288 0.433428 -0.563903
O25   O     O_R   0.832080 0.312664 0.366228 -0.671546
H26   H     H_    0.920971 0.315471 0.403789 0.298387
O26   O     O_3   0.106314 0.079095 0.858067 -0.646363
H27   H     H_    0.000537 0.086281 0.830448 0.274908
O27   O     O_3   0.719515 0.340859 0.715263 -0.644494
H28   H     H_    0.816935 0.369830 0.705290 0.288096

loop_
_geom_bond_atom_site_label_1
_geom_bond_atom_site_label_2
_ccdc_geom_bond_type
C46   C52   S    
C34   C38   A    
C31   C32   A    
O17   V4    S    
C1    C29   S    
C21   C22   A    
O14   C54   A    
C6    H2    S    
C1    O6    A    
C4    C15   S    
C57   O22   S    
O26   H27   S    
C45   C46   T    
O23   H25   S    
C26   H9    S    
C10   C11   S    
C43   C44   A    
C5    C10   A    
C7    C8    A    
C17   H8    S    
C6    C7    A    
C9    C10   A    
C31   C35   A    
O5    C3    A    
C7    C55   S    
C23   H12   S    
O22   H24   S    
V2    O10   S    
O27   H28   S    
C16   H7    S    
C42   C43   A    
C37   H13   S    
C58   O24   D    
C57   O21   D    
C20   C56   S    
O8    V2    S    
C20   C23   A    
C27   C28   A    
C39   H18   S    
C13   C18   A    
C14   C15   A    
C40   H19   S    
O1    V2    S    
O12   C53   A    
O7    V1    S    
O15   C55   A    
O13   V3    S    
O16   V4    S    
C22   H11   S    
C20   C22   A    
C35   C36   A    
O9    C4    A    
O17   V3    S    
V4    O20   S    
C29   C37   A    
C33   H17   S    
C47   C52   A    
O25   H26   S    
C29   C36   A    
O14   V3    S    
C15   C16   A    
O11   C54   A    
C51   C52   A    
C30   C32   A    
C43   H20   S    
C9    H4    S    
C48   C49   A    
O4    C2    A    
C41   C53   S    
C48   H21   S    
C34   C35   A    
O18   V4    S    
C42   O26   S    
O12   V3    S    
O2    C1    A    
C23   C24   A    
O13   C56   A    
C13   H5    S    
C50   H22   S    
C12   C18   S    
C31   H14   S    
O19   V4    S    
C5    H1    S    
C44   C45   S    
C51   H23   S    
V3    O20   S    
O3    C4    A    
C19   C26   A    
C50   C51   A    
C49   C50   A    
O6    V2    S    
O9    V2    S    
C8    C9    A    
O2    V1    S    
O15   V3    S    
C21   H10   S    
C24   C25   A    
C19   C27   A    
C27   C57   S    
C38   H15   S    
O1    C2    A    
C14   H6    S    
C41   C42   A    
O5    V1    S    
O11   V4    S    
O8    C3    A    
C39   C44   A    
C3    C19   S    
C17   C18   A    
O7    V2    S    
O4    V1    S    
C13   C14   A    
O3    V1    S    
V1    O10   S    
C33   C34   A    
C28   O23   S    
C32   H16   S    
O19   C56   A    
C5    C6    A    
C16   C17   A    
C37   C38   A    
C58   O25   S    
C30   C54   S    
C36   C58   S    
C53   O16   A    
C47   C48   A    
C25   C26   A    
C2    C49   S    
C39   C40   A    
O18   C55   A    
C11   C12   T    
C21   C25   A    
C8    H3    S    
C40   C41   A    
C47   O27   S    
C24   C28   A    
C30   C33   A    
