data_mof_unit_53954.cif
_audit_creation_date              2013-03-05T15:46:53-0500
_audit_creation_method            fapswitch 2.2
_symmetry_space_group_name_H-M    P1
_symmetry_Int_Tables_number       1
_space_group_crystal_system       triclinic
_cell_length_a                    14.83335
_cell_length_b                    14.785151
_cell_length_c                    14.782272
_cell_angle_alpha                 109.20769
_cell_angle_beta                  109.726332
_cell_angle_gamma                 109.502787
_cell_volume                      2494.90187614

loop_
_atom_site_label
_atom_site_type_symbol
_atom_site_description
_atom_site_fract_x
_atom_site_fract_y
_atom_site_fract_z
_atom_type_partial_charge
C1    C     C_R   0.252368 0.067554 0.974788 -0.104270
C2    C     C_R   0.805144 0.004479 0.096269 -0.132389
H1    H     H_    0.242346 0.120966 0.942174 0.098045
H2    H     H_    0.833086 0.980596 0.157352 0.104152
N1    N     N_R   0.293810 0.002730 0.945950 -0.046411
N2    N     N_R   0.706190 0.997270 0.054050 -0.043513
C3    C     C_R   0.746753 0.224117 0.315222 -0.123333
C4    C     C_R   0.193108 0.792769 0.701511 -0.067713
H3    H     H_    0.754644 0.202313 0.379155 0.116811
H4    H     H_    0.165560 0.827750 0.651646 0.101980
N3    N     N_R   0.706160 0.152130 0.208910 -0.047680
N4    N     N_R   0.293840 0.847870 0.791090 -0.052337
C5    C     C_R   0.409400 0.900734 0.207763 -0.103930
C6    C     C_R   0.591174 0.024758 0.775887 -0.103899
H5    H     H_    0.324005 0.842049 0.173600 0.187502
H6    H     H_    0.676952 0.058628 0.798711 0.177055
N5    N     N_R   0.443140 0.945920 0.152090 -0.062653
N6    N     N_R   0.556860 0.054080 0.847910 -0.067920
C7    C     C_R   0.589925 0.298306 0.990834 -0.054997
C8    C     C_R   0.408560 0.684856 0.931581 -0.086226
H7    H     H_    0.674208 0.348623 0.013004 0.092707
H8    H     H_    0.323016 0.621185 0.876430 0.100623
N7    N     N_R   0.556830 0.208940 0.002760 -0.046210
N8    N     N_R   0.443170 0.791060 0.997240 -0.044912
C9    C     C_R   0.591949 0.992949 0.299294 -0.129297
C10   C     C_R   0.406731 0.934065 0.684101 -0.085349
H9    H     H_    0.677690 0.021287 0.350681 0.173889
H10   H     H_    0.320468 0.884403 0.622298 0.179538
N9    N     N_R   0.556790 0.002750 0.208910 -0.057938
N10   N     N_R   0.443210 0.997250 0.791090 -0.065383
C11   C     C_R   0.407214 0.207830 0.903039 -0.135097
C12   C     C_R   0.593020 0.777355 0.026745 -0.074559
H11   H     H_    0.321280 0.174279 0.846962 0.112165
H12   H     H_    0.678989 0.800503 0.062698 0.117039
N11   N     N_R   0.443180 0.152110 0.945950 -0.043964
N12   N     N_R   0.556820 0.847890 0.054050 -0.044944
C13   C     C_R   0.750416 0.315879 0.222015 -0.073859
C14   C     C_R   0.194863 0.699756 0.791782 -0.110936
H13   H     H_    0.764163 0.378079 0.197746 0.147030
H14   H     H_    0.171320 0.646389 0.824422 0.154581
N13   N     N_R   0.706170 0.208950 0.152090 -0.058241
N14   N     N_R   0.293830 0.791050 0.847910 -0.055083
C15   C     C_R   0.252759 0.975581 0.067968 -0.104087
C16   C     C_R   0.804628 0.096315 0.004338 -0.109377
H15   H     H_    0.243633 0.944092 0.122447 0.094537
H16   H     H_    0.831785 0.157876 0.980975 0.098287
N15   N     N_R   0.293800 0.945910 0.002760 -0.038214
N16   N     N_R   0.706200 0.054090 0.997240 -0.044532
C17   C     C_R   0.227839 0.054330 0.053828 0.032888
C18   C     C_R   0.869634 0.067693 0.067459 0.047770
C19   C     C_R   0.772677 0.328375 0.325820 0.111497
C20   C     C_R   0.127199 0.700066 0.700779 0.114936
C21   C     C_R   0.501240 0.924666 0.299567 0.181956
C22   C     C_R   0.498093 0.944635 0.671393 0.179610
C23   C     C_R   0.497336 0.298696 0.925542 0.073713
C24   C     C_R   0.501418 0.673800 0.945608 0.043307
Ni1   Ni    Ni4+2 0.369690 0.999990 0.869700 0.223062
Ni2   Ni    Ni4+2 0.630310 0.000010 0.130300 0.242593
Ni3   Ni    Ni4+2 0.369670 0.869670 0.000000 0.253485
Ni4   Ni    Ni4+2 0.630330 0.130330 0.000000 0.220650
H17   H     H_    0.018661 0.985133 0.521203 0.170009
H18   H     H_    0.970972 0.855483 0.970048 0.140240
C25   C     C_R   0.194464 0.077055 0.581313 0.554905
C26   C     C_R   0.904889 0.756597 0.036704 0.610397
C27   C     C_R   0.292176 0.178610 0.658599 -0.195493
C28   C     C_R   0.807932 0.683890 0.026384 -0.185077
H19   H     H_    0.368522 0.189362 0.659648 0.147897
H20   H     H_    0.814587 0.651072 0.082446 0.175250
C29   C     C_R   0.292293 0.265533 0.735521 0.017499
C30   C     C_R   0.703339 0.652211 0.943493 -0.014731
C31   C     C_R   0.192463 0.250424 0.732583 -0.180086
C32   C     C_R   0.697445 0.697996 0.873400 -0.133880
H21   H     H_    0.190681 0.315955 0.791350 0.147810
H22   H     H_    0.618070 0.674581 0.808504 0.143649
C33   C     C_R   0.094657 0.149465 0.655348 -0.096462
C34   C     C_R   0.793930 0.772023 0.884521 -0.103655
H23   H     H_    0.018322 0.138096 0.654307 0.199443
H24   H     H_    0.788580 0.806276 0.829729 0.159859
C35   C     C_R   0.095262 0.062919 0.580109 -0.272515
C36   C     C_R   0.897245 0.800107 0.964539 -0.253391
C37   C     C_R   0.400344 0.469757 0.828950 -0.208850
C38   C     C_R   0.597074 0.469810 0.923986 -0.179936
H25   H     H_    0.323651 0.468272 0.788329 0.132457
H26   H     H_    0.673341 0.468399 0.956072 0.129759
C39   C     C_R   0.501315 0.569571 0.894232 0.046528
C40   C     C_R   0.496275 0.377408 0.884529 0.030334
C41   C     C_R   0.600247 0.565160 0.923592 0.087064
C42   C     C_R   0.397183 0.371407 0.818654 0.073646
C43   C     C_R   0.861281 0.535999 0.432270 0.362791
C44   C     C_R   0.948073 0.529236 0.628184 0.360113
C45   C     C_R   0.956838 0.628269 0.526850 -0.264208
C46   C     C_R   0.860732 0.433294 0.530213 -0.293783
H27   H     H_    0.992130 0.703680 0.524507 0.180541
H28   H     H_    0.822726 0.358563 0.532891 0.183796
C47   C     C_R   0.008062 0.621362 0.621361 -0.073376
C48   C     C_R   0.826067 0.433257 0.429477 -0.058152
C49   C     C_R   0.597689 0.917216 0.566394 0.387720
C50   C     C_R   0.400866 0.813691 0.366904 0.393829
C51   C     C_R   0.600710 0.916054 0.471712 0.148689
C52   C     C_R   0.397961 0.820096 0.463128 0.139290
C53   C     C_R   0.501445 0.881717 0.377967 -0.171610
C54   C     C_R   0.497366 0.890150 0.566508 -0.167861
C55   C     C_R   0.135831 0.067869 0.166108 -0.175063
C56   C     C_R   0.037288 0.161431 0.059360 -0.139546
H29   H     H_    0.171781 0.029930 0.206887 0.135507
H30   H     H_    0.000388 0.196832 0.015627 0.125873
C57   C     C_R   0.042659 0.068163 0.166825 -0.149348
C58   C     C_R   0.129933 0.160739 0.058460 -0.133789
H31   H     H_    0.009543 0.029853 0.207737 0.133210
H32   H     H_    0.160463 0.195653 0.014151 0.118726
C59   C     C_R   0.986311 0.104211 0.103021 0.119375
C60   C     C_R   0.170699 0.101513 0.099859 0.125613
O1    O     O_3   0.198706 0.993593 0.508840 -0.735983
H33   H     H_    0.123573 0.927459 0.460599 0.346157
O2    O     O_3   0.005231 0.781990 0.116683 -0.714439
H34   H     H_    0.064860 0.828978 0.109301 0.309934
N17   N     N_R   0.801116 0.548142 0.342162 0.224808
O3    O     O_R   0.852294 0.624369 0.323613 -0.385601
O4    O     O_R   0.693433 0.494085 0.288920 -0.391587
N18   N     N_R   0.971876 0.532683 0.732157 0.223353
O5    O     O_R   0.956002 0.443867 0.739371 -0.394570
O6    O     O_R   0.991282 0.619152 0.814607 -0.407938
O7    O     O_3   0.689041 0.941322 0.657638 -0.749615
H35   H     H_    0.743355 0.931881 0.636792 0.361271
O8    O     O_3   0.309268 0.740226 0.262382 -0.726228
H36   H     H_    0.257018 0.679088 0.264060 0.369767
N19   N     N_R   0.702458 0.946043 0.470458 0.224910
O9    O     O_R   0.790426 0.041211 0.547191 -0.432020
O10   O     O_R   0.707988 0.876812 0.393819 -0.385738
N20   N     N_R   0.296210 0.754234 0.454970 0.229323
O11   O     O_R   0.206990 0.755621 0.401936 -0.360632
O12   O     O_R   0.292799 0.693092 0.501465 -0.398331

loop_
_geom_bond_atom_site_label_1
_geom_bond_atom_site_label_2
_geom_bond_distance
_ccdc_geom_bond_type
C28   H20   1.083197 S    
C25   C27   1.400301 A    
N5    N9    1.373835 A    
C6    N6    1.337895 A    
N20   O12   1.301492 A    
C8    C24   1.395265 A    
C56   H30   1.080065 S    
O7    H35   0.988891 S    
C25   C35   1.408488 A    
C3    N3    1.340831 A    
N1    N15   1.369378 A    
N8    N12   1.373837 A    
N2    N16   1.369378 A    
C1    N1    1.334035 A    
C12   N12   1.334942 A    
H18   C36   1.082192 S    
C7    H7    1.079734 S    
C9    C21   1.388888 A    
C14   N14   1.335376 A    
N12   Ni2   1.839228 S    
N17   O4    1.301786 A    
C13   C19   1.388686 A    
C52   N20   1.435042 S    
C14   C20   1.383012 A    
C16   C18   1.379999 A    
O2    H34   0.990788 S    
N10   Ni1   1.842622 S    
C46   C48   1.401500 A    
C20   C47   1.477440 S    
C29   C31   1.404964 A    
N2    Ni2   1.842769 S    
N4    N14   1.369497 A    
C2    C18   1.382008 A    
C49   C51   1.410058 A    
C26   C36   1.408273 A    
C50   O8    1.380702 S    
C8    N8    1.339341 A    
N18   O6    1.301908 A    
C27   H19   1.083663 S    
C11   H11   1.073303 S    
N6    N10   1.373835 A    
C43   C45   1.393207 A    
N3    Ni2   1.839248 S    
C15   N15   1.337309 A    
C4    C20   1.386690 A    
C49   C54   1.406844 A    
C32   C34   1.396475 A    
C19   C48   1.475508 S    
C26   O2    1.378772 S    
C57   H31   1.080761 S    
C2    N2    1.337433 A    
C30   C41   1.488126 S    
C10   C22   1.395002 A    
C52   C54   1.414203 A    
C10   H10   1.073880 S    
C37   H25   1.081070 S    
C16   H16   1.079777 S    
N16   Ni4   1.840271 S    
C5    C21   1.391729 A    
C39   C41   1.413753 A    
C9    N9    1.336250 A    
N7    Ni4   1.840128 S    
C40   C42   1.416486 A    
C44   C47   1.413851 A    
C32   H22   1.083158 S    
C21   C53   1.493165 S    
C31   H21   1.082994 S    
C7    N7    1.340326 A    
C15   C17   1.389717 A    
C51   N19   1.432574 S    
C38   C40   1.401892 A    
N15   Ni3   1.840272 S    
C58   C60   1.401176 A    
C55   C60   1.401669 A    
C1    H1    1.076414 S    
C12   H12   1.075707 S    
C2    H2    1.080121 S    
N19   O10   1.301432 A    
C45   H27   1.079954 S    
C15   H15   1.077895 S    
C44   C46   1.393794 A    
H17   C35   1.082861 S    
C4    N4    1.338466 A    
C46   H28   1.080802 S    
C38   C41   1.396777 A    
C55   H29   1.080554 S    
C33   H23   1.081702 S    
C26   C28   1.399632 A    
C29   C42   1.482780 S    
N5    Ni3   1.836065 S    
C17   C60   1.462819 S    
N4    Ni1   1.839248 S    
N6    Ni4   1.836068 S    
C6    C22   1.399942 A    
C43   N17   1.436950 S    
C10   N10   1.333952 A    
C38   H26   1.079467 S    
C5    H5    1.076292 S    
O8    H36   0.989109 S    
C6    H6    1.075705 S    
C33   C35   1.397282 A    
C8    H8    1.077062 S    
N19   O9    1.301496 A    
C56   C58   1.382188 A    
N18   O5    1.301476 A    
O1    H33   0.991842 S    
C7    C23   1.389955 A    
C3    H3    1.077850 S    
C51   C53   1.416565 A    
C57   C59   1.402946 A    
C22   C54   1.487956 S    
C4    H4    1.080027 S    
C34   C36   1.395845 A    
N13   Ni4   1.836099 S    
C34   H24   1.082665 S    
N14   Ni3   1.836101 S    
C56   C59   1.402022 A    
C30   C32   1.406888 A    
N1    Ni1   1.842768 S    
C9    H9    1.073651 S    
C50   C53   1.410430 A    
N7    N11   1.373836 A    
C5    N5    1.338150 A    
N11   Ni1   1.839228 S    
C23   C40   1.480614 S    
N20   O11   1.301842 A    
C3    C19   1.397580 A    
C13   H13   1.075763 S    
N17   O3    1.301620 A    
C31   C33   1.396767 A    
C24   C39   1.476200 S    
C28   C30   1.407725 A    
C14   H14   1.075914 S    
C43   C48   1.412959 A    
N8    Ni3   1.840127 S    
C27   C29   1.407212 A    
C18   C59   1.462308 S    
C58   H32   1.080352 S    
N3    N13   1.369497 A    
C11   N11   1.332118 A    
C13   N13   1.331382 A    
C50   C52   1.410508 A    
C37   C42   1.394223 A    
C45   C47   1.403110 A    
C25   O1    1.379093 S    
N9    Ni2   1.842619 S    
C49   O7    1.381978 S    
C55   C57   1.387104 A    
C11   C23   1.381744 A    
C1    C17   1.387645 A    
C12   C24   1.389771 A    
C37   C39   1.401348 A    
C16   N16   1.333156 A    
C44   N18   1.435129 S    
