data_mof_unit_26814.cif
_audit_creation_date              2013-03-05T16:13:07-0500
_audit_creation_method            fapswitch 2.2
_symmetry_space_group_name_H-M    P1
_symmetry_Int_Tables_number       1
_space_group_crystal_system       triclinic
_cell_length_a                    24.967151
_cell_length_b                    7.095835
_cell_length_c                    22.600872
_cell_angle_alpha                 89.950948
_cell_angle_beta                  96.239121
_cell_angle_gamma                 89.926139
_cell_volume                      3980.31217187

loop_
_atom_site_label
_atom_site_type_symbol
_atom_site_description
_atom_site_fract_x
_atom_site_fract_y
_atom_site_fract_z
_atom_type_partial_charge
O1    O     O_R   0.551910 0.505710 0.449140 -0.571072
O2    O     O_R   0.448090 0.005710 0.550860 -0.571716
O3    O     O_R   0.442510 0.174130 0.436530 -0.567164
O4    O     O_R   0.557490 0.674130 0.563470 -0.564167
C1    C     C_R   0.423758 0.344679 0.421501 1.001101
C2    C     C_R   0.576250 0.844375 0.578489 0.995354
O5    O     O_R   0.551150 0.175880 0.442070 -0.586010
O6    O     O_R   0.448850 0.675880 0.557930 -0.587156
O7    O     O_R   0.557510 0.007410 0.556440 -0.587688
O8    O     O_R   0.442490 0.507410 0.443560 -0.591879
C3    C     C_R   0.569673 0.344528 0.429823 1.015632
C4    C     C_R   0.430344 0.844599 0.570203 1.007837
O9    O     O_3   0.501960 0.339800 0.537520 -0.275906
O10   O     O_3   0.498040 0.839800 0.462480 -0.277088
V1    V     V_3+5 0.499640 0.064240 0.493040 1.271639
V2    V     V_3+5 0.500360 0.564240 0.506960 1.271213
C5    C     C_R   0.158107 0.071144 0.806822 0.162638
C6    C     C_R   0.841978 0.571014 0.193308 0.162812
C7    C     C_R   0.117364 0.081137 0.845715 -0.112953
C8    C     C_R   0.882680 0.581023 0.154363 -0.116736
H1    H     H_    0.088990 0.196676 0.842937 0.127614
H2    H     H_    0.911033 0.696355 0.157126 0.127113
C9    C     C_R   0.111723 0.939894 0.888055 -0.200350
C10   C     C_R   0.888310 0.440038 0.111992 -0.200222
C11   C     C_R   0.148112 0.788539 0.892410 -0.255135
C12   C     C_R   0.851952 0.288941 0.107668 -0.262221
H3    H     H_    0.144863 0.681106 0.925913 0.184337
H4    H     H_    0.855193 0.181695 0.074153 0.182750
C13   C     C_R   0.190309 0.777581 0.856128 0.353059
C14   C     C_R   0.809795 0.278012 0.143999 0.353418
C15   C     C_R   0.194833 0.917287 0.812113 -0.084856
C16   C     C_R   0.805276 0.417443 0.188035 -0.086283
C17   C     C_1   0.235649 0.898989 0.770802 0.049181
C18   C     C_1   0.764480 0.399127 0.229369 0.048984
C19   C     C_1   0.269129 0.883563 0.735969 0.159704
C20   C     C_1   0.731001 0.383628 0.264200 0.160572
C21   C     C_R   0.313159 0.014392 0.653192 -0.206222
C22   C     C_R   0.686951 0.513963 0.347033 -0.205246
H5    H     H_    0.285837 0.133327 0.653154 0.189906
H6    H     H_    0.714283 0.632643 0.347149 0.189885
C23   C     C_R   0.350604 0.007618 0.611000 0.389207
C24   C     C_R   0.649481 0.507098 0.389193 0.388102
C25   C     C_R   0.387205 0.853978 0.611336 -0.341187
C26   C     C_R   0.612857 0.353820 0.388750 -0.340383
C27   C     C_R   0.382593 0.706429 0.652191 -0.218818
C28   C     C_R   0.617488 0.206629 0.347841 -0.208091
H7    H     H_    0.409544 0.586654 0.652385 0.201514
H8    H     H_    0.590528 0.087106 0.347577 0.201663
C29   C     C_R   0.343135 0.708655 0.692318 0.405537
C30   C     C_R   0.656970 0.208914 0.307741 0.405842
C31   C     C_R   0.308836 0.867050 0.693628 -0.096483
C32   C     C_R   0.691282 0.367010 0.306525 -0.095352
C33   C     C_3   0.750883 0.770786 0.811173 0.069365
C34   C     C_3   0.261526 0.400731 0.178807 0.045470
C35   C     C_3   0.764449 0.100306 0.778009 -0.289101
C36   C     C_3   0.211368 0.579096 0.251260 -0.364855
C37   C     C_3   0.711150 0.075614 0.735398 -0.338400
C38   C     C_3   0.263749 0.571496 0.295359 -0.390090
H9    H     H_    0.665075 0.774530 0.779465 0.111108
H10   H     H_    0.339208 0.487129 0.223550 0.136450
H11   H     H_    0.733537 0.844438 0.848315 0.105413
H12   H     H_    0.266334 0.544543 0.160152 0.127337
H13   H     H_    0.791536 0.201861 0.759121 0.295422
H14   H     H_    0.175938 0.586927 0.276820 0.271300
H15   H     H_    0.754501 0.160972 0.820791 0.220216
H16   H     H_    0.211159 0.711820 0.224927 0.187804
H17   H     H_    0.676008 0.098420 0.760948 0.204808
H18   H     H_    0.291253 0.686369 0.284115 0.194945
H19   H     H_    0.706860 0.178221 0.698733 0.290489
H20   H     H_    0.254622 0.602550 0.341328 0.252941
C39   C     C_1   0.621951 0.853678 0.623973 -0.168371
C40   C     C_1   0.378195 0.354776 0.375833 -0.176485
C41   C     C_3   0.794071 0.908559 0.789539 -0.117831
C42   C     C_3   0.207316 0.405269 0.208670 -0.041648
C43   C     C_3   0.703307 0.740969 0.760279 0.114926
C44   C     C_3   0.310925 0.367273 0.227502 0.053325
C45   C     C_3   0.708428 0.878791 0.707239 -0.140693
C46   C     C_3   0.292442 0.377636 0.291614 -0.066032
C47   C     C_3   0.762289 0.844322 0.678494 0.122713
C48   C     C_3   0.250899 0.216477 0.299593 0.116036
C49   C     C_3   0.811500 0.836024 0.728478 0.105156
C50   C     C_3   0.203908 0.220915 0.247124 0.102216
C51   C     C_1   0.660570 0.863830 0.661559 0.140827
C52   C     C_1   0.339797 0.364866 0.337937 0.114138
C53   C     C_1   0.840730 0.929719 0.836591 0.221171
C54   C     C_1   0.159960 0.427293 0.162520 0.187893
C55   C     C_1   0.878645 0.942735 0.874995 -0.191159
C56   C     C_1   0.121642 0.441460 0.124637 -0.202519
H21   H     H_    0.822692 0.685481 0.734772 0.165921
H22   H     H_    0.210716 0.099808 0.217811 0.124784
H23   H     H_    0.759609 0.705927 0.655713 0.173106
H24   H     H_    0.272169 0.079647 0.297015 0.113775
O11   O     O_R   0.057480 0.291690 0.056480 -0.573228
O12   O     O_R   0.942520 0.791690 0.943520 -0.572555
O13   O     O_R   0.948840 0.619880 0.057940 -0.593303
O14   O     O_R   0.051160 0.119880 0.942060 -0.591045
C57   C     C_R   0.931293 0.450946 0.071184 0.968276
C58   C     C_R   0.068714 0.950893 0.928825 0.970199
O15   O     O_R   0.057480 0.621520 0.063480 -0.587116
O16   O     O_R   0.942520 0.121520 0.936520 -0.576178
O17   O     O_R   0.051910 0.789880 0.949130 -0.595690
O18   O     O_R   0.948090 0.289880 0.050870 -0.595169
C59   C     C_R   0.076186 0.452568 0.078857 0.960780
C60   C     C_R   0.923828 0.952880 0.921116 0.951898
O19   O     O_3   0.998020 0.455790 0.962510 -0.272404
O20   O     O_3   0.001980 0.955790 0.037490 -0.278166
V3    V     V_3+5 0.000370 0.731410 0.006960 1.207547
V4    V     V_3+5 0.999630 0.231410 0.993040 1.216349
C61   C     C_3   0.163778 0.221123 0.759492 -0.370933
C62   C     C_3   0.122895 0.383997 0.756680 -0.294209
C63   C     C_3   0.133458 0.526136 0.708589 -0.788238
H25   H     H_    0.174990 0.582827 0.717040 0.264406
H26   H     H_    0.128303 0.458379 0.664053 0.276497
H27   H     H_    0.104536 0.645096 0.708808 0.249559
H28   H     H_    0.081373 0.327975 0.746363 0.219626
H29   H     H_    0.125859 0.458518 0.800103 0.218094
H30   H     H_    0.204929 0.281738 0.767747 0.258173
H31   H     H_    0.160217 0.150932 0.715260 0.184507
C64   C     C_3   0.836325 0.720674 0.240676 -0.370633
C65   C     C_3   0.877195 0.883203 0.243494 -0.295122
C66   C     C_3   0.866653 0.025040 0.291631 -0.783757
H32   H     H_    0.825117 0.082140 0.283222 0.264445
H33   H     H_    0.871836 0.956884 0.336150 0.276579
H34   H     H_    0.895567 0.143765 0.291422 0.249269
H35   H     H_    0.918725 0.826769 0.253765 0.217856
H36   H     H_    0.874200 0.958098 0.200089 0.219327
H37   H     H_    0.795168 0.781670 0.232462 0.258250
H38   H     H_    0.839917 0.650115 0.284894 0.184554
N1    N     N_R   0.859619 0.928842 0.709609 0.272060
O21   O     O_R   0.883675 0.853444 0.667149 -0.303082
O22   O     O_R   0.879222 0.083246 0.734288 -0.352013
N2    N     N_R   0.150922 0.186985 0.268154 0.273908
O23   O     O_R   0.140329 0.020848 0.288322 -0.343031
O24   O     O_R   0.113862 0.316655 0.266224 -0.359313
N3    N     N_R   0.772430 0.591238 0.836536 0.264860
O25   O     O_R   0.821315 0.535030 0.831206 -0.400149
O26   O     O_R   0.742828 0.491448 0.868683 -0.358121
N4    N     N_R   0.261878 0.270658 0.127995 0.281691
O27   O     O_R   0.223617 0.148746 0.114403 -0.381006
O28   O     O_R   0.300196 0.284771 0.093549 -0.255626
N5    N     N_R   0.699468 0.547223 0.739447 0.257773
O29   O     O_R   0.653908 0.457554 0.737760 -0.397185
O30   O     O_R   0.740362 0.469041 0.718437 -0.434234
N6    N     N_R   0.341143 0.193286 0.218115 0.271915
O31   O     O_R   0.392643 0.202788 0.213979 -0.310544
O32   O     O_R   0.317192 0.030876 0.210667 -0.389558
N7    N     N_R   0.769586 0.982680 0.631251 0.269741
O33   O     O_R   0.784359 0.155404 0.643447 -0.299715
O34   O     O_R   0.763802 0.929073 0.575871 -0.294842
N8    N     N_R   0.231472 0.221539 0.358857 0.279333
O35   O     O_R   0.198698 0.352211 0.373364 -0.309133
O36   O     O_R   0.245128 0.087266 0.396796 -0.310884
N9    N     N_R   0.228518 0.625211 0.865301 0.249848
O37   O     O_R   0.214142 0.465164 0.886865 -0.377780
O38   O     O_R   0.279374 0.654195 0.860873 -0.284120
N10   N     N_R   0.771615 0.125946 0.134854 0.247511
O39   O     O_R   0.786025 0.965867 0.113335 -0.391506
O40   O     O_R   0.720752 0.155291 0.139259 -0.292632
N11   N     N_R   0.348468 0.151934 0.566211 0.242271
O41   O     O_R   0.338806 0.325730 0.580032 -0.391840
O42   O     O_R   0.345426 0.105233 0.510283 -0.366453
N12   N     N_R   0.651613 0.650901 0.434065 0.243126
O43   O     O_R   0.661258 0.824782 0.420338 -0.383688
O44   O     O_R   0.654677 0.603541 0.489968 -0.370775
N13   N     N_R   0.338242 0.548548 0.730522 0.257527
O45   O     O_R   0.291112 0.493462 0.743090 -0.394809
O46   O     O_R   0.379844 0.441925 0.746154 -0.343466
N14   N     N_R   0.661873 0.049162 0.269466 0.257393
O47   O     O_R   0.709013 0.993702 0.256937 -0.395049
O48   O     O_R   0.620263 0.943140 0.253733 -0.334945

loop_
_geom_bond_atom_site_label_1
_geom_bond_atom_site_label_2
_geom_bond_distance
_ccdc_geom_bond_type
O17   V3    1.975424 S    
O15   C59   1.318610 A    
O4    V2    1.970370 S    
N13   O45   1.300668 A    
H9    C43   1.116006 S    
C35   C37   1.565667 S    
C7    C9    1.402854 A    
N7    O33   1.301466 A    
O1    C3    1.317961 A    
O2    C4    1.317927 A    
O11   C59   1.314569 A    
C2    O7    1.323835 A    
C61   H30   1.111315 S    
N3    O25   1.301536 A    
O5    C3    1.323353 A    
C24   N12   1.436212 S    
C35   H13   1.105587 S    
N10   O39   1.301606 A    
C7    H1    1.080142 S    
C44   C46   1.569514 S    
C22   C24   1.406893 A    
C1    C40   1.452238 S    
N5    O30   1.296181 A    
O11   V4    1.969112 S    
C21   C31   1.400011 A    
C46   C48   1.568246 S    
C22   C32   1.400011 A    
O20   V3    1.734566 S    
C45   C51   1.495750 S    
O16   C60   1.318250 A    
C27   H7    1.083051 S    
C62   C63   1.526202 S    
C66   H34   1.110489 S    
C43   N5    1.453460 S    
C17   C19   1.213865 T    
C34   C42   1.577004 S    
C33   H11   1.115595 S    
C4    C25   1.498735 S    
C8    C10   1.402887 A    
N2    O23   1.301354 A    
C29   C31   1.414404 A    
C33   N3    1.473482 S    
C30   C32   1.414454 A    
C36   H14   1.109186 S    
O18   V4    1.975197 S    
O10   V2    2.195666 S    
N9    O38   1.301057 A    
N12   O44   1.301282 A    
C57   O18   1.316968 A    
C20   C32   1.455556 S    
C49   H21   1.108943 S    
C64   H38   1.112203 S    
N14   O48   1.301486 A    
O14   V4    1.982482 S    
O12   C60   1.314794 A    
O6    V2    1.982288 S    
C22   H6    1.084426 S    
C23   N11   1.436172 S    
C13   C15   1.417072 A    
C23   C25   1.421131 A    
C33   C43   1.575713 S    
C30   N14   1.439660 S    
C24   C26   1.421175 A    
C37   H17   1.113267 S    
C41   C49   1.577947 S    
C35   H15   1.111110 S    
C26   C28   1.408424 A    
C61   H31   1.112201 S    
C39   C51   1.216034 T    
C45   C47   1.574656 S    
C11   C13   1.405722 A    
C2    C39   1.452028 S    
O19   V4    1.733387 S    
C28   H8    1.083058 S    
O12   V3    1.967771 S    
O16   V4    1.970171 S    
C36   C42   1.561841 S    
C54   C56   1.216539 T    
C10   C57   1.491152 S    
C37   C45   1.533811 S    
C48   C50   1.575153 S    
C47   C49   1.577099 S    
C65   H35   1.111661 S    
C38   H20   1.109773 S    
C47   N7    1.475824 S    
O5    V1    1.982827 S    
C34   H12   1.115391 S    
H10   C44   1.115825 S    
O14   C58   1.321807 A    
C16   C18   1.460819 S    
C48   H24   1.110670 S    
C48   N8    1.473732 S    
C29   N13   1.439705 S    
C43   C45   1.562506 S    
C49   N1    1.473752 S    
N11   O41   1.301111 A    
C27   C29   1.409780 A    
O6    C4    1.323154 A    
C15   C17   1.460717 S    
C3    C26   1.498713 S    
C63   H26   1.110714 S    
O1    V2    1.975300 S    
C42   C54   1.497161 S    
O2    V1    1.975525 S    
C25   C27   1.408475 A    
C41   C53   1.497319 S    
C66   H32   1.109823 S    
C40   C52   1.216159 T    
C65   H36   1.110593 S    
O13   V3    1.983016 S    
N2    O24   1.301388 A    
C34   C44   1.578752 S    
C44   N6    1.473510 S    
N6    O32   1.301635 A    
N14   O47   1.300655 A    
C8    H2    1.080144 S    
C12   C14   1.405713 A    
O9    V1    2.197332 S    
C19   C31   1.455463 S    
C5    C15   1.421395 A    
N8    O36   1.301335 A    
O4    C2    1.327237 A    
C6    C16   1.421425 A    
C50   N2    1.473531 S    
C62   H29   1.110601 S    
C56   C59   1.452299 S    
O3    V1    1.968050 S    
C65   C66   1.526203 S    
C13   N9    1.440848 S    
N12   O43   1.301128 A    
C42   C50   1.577412 S    
C38   H18   1.113360 S    
N3    O26   1.301040 A    
C63   H25   1.109821 S    
N7    O34   1.301463 A    
O10   V1    1.735231 S    
C47   H23   1.107923 S    
C33   C41   1.572882 S    
C10   C12   1.402317 A    
N6    O31   1.301138 A    
O3    C1    1.327547 A    
C5    C61   1.525861 S    
C64   C65   1.537653 S    
O13   C57   1.322013 A    
N4    O28   1.301274 A    
C11   H3    1.083311 S    
C58   O17   1.316878 A    
O15   V3    1.967849 S    
C28   C30   1.409809 A    
C12   H4    1.083308 S    
C50   H22   1.109659 S    
N10   O40   1.301059 A    
N11   O42   1.301253 A    
N1    O21   1.301225 A    
C1    O8    1.323754 A    
C21   H5    1.084424 S    
O8    V2    1.963638 S    
C61   C62   1.537650 S    
C14   C16   1.417020 A    
C34   N4    1.474716 S    
C36   H16   1.113348 S    
C6    C64   1.525829 S    
C14   N10   1.440808 S    
C5    C7    1.416601 A    
C18   C20   1.213924 T    
C36   C38   1.556614 S    
C63   H27   1.110489 S    
C6    C8    1.416692 A    
C9    C11   1.402292 A    
C21   C23   1.406894 A    
C66   H33   1.110718 S    
N4    O27   1.301551 A    
C38   C46   1.556754 S    
C55   C60   1.452256 S    
C35   C41   1.555954 S    
C46   C52   1.494201 S    
C53   C55   1.216474 T    
C9    C58   1.491035 S    
N13   O46   1.301485 A    
O9    V2    1.734052 S    
N8    O35   1.301416 A    
C37   H19   1.098966 S    
N9    O37   1.301616 A    
N5    O29   1.301023 A    
C62   H28   1.111668 S    
O7    V1    1.962371 S    
N1    O22   1.301577 A    
C64   H37   1.111289 S    
