data_mof_unit_11288.cif
_audit_creation_date              2012-12-10T17:33:01-0500
_audit_creation_method            fapswitch 2.2
_symmetry_space_group_name_H-M    P1
_symmetry_Int_Tables_number       1
_space_group_crystal_system       triclinic
_cell_length_a                    15.471152
_cell_length_b                    15.571926
_cell_length_c                    17.88244
_cell_angle_alpha                 90.558763
_cell_angle_beta                  109.704857
_cell_angle_gamma                 68.41727
_cell_volume                      3739.24289394

loop_
_atom_site_label
_atom_site_type_symbol
_atom_type_description
_atom_site_fract_x
_atom_site_fract_y
_atom_site_fract_z
_atom_type_partial_charge
C1    C     C_R   0.464754 0.740140 0.531542 0.835511
C2    C     C_R   0.307466 0.644480 0.149513 0.166551
C3    C     C_R   0.468433 0.528083 0.159632 -0.307901
C4    C     C_R   0.443383 0.543713 0.076171 0.047929
C5    C     C_R   0.345007 0.603750 0.028541 0.031687
C6    C     C_R   0.513545 0.498525 0.039103 0.040889
C7    C     C_R   0.482060 0.503831 0.954621 0.049529
C8    C     C_R   0.386368 0.569680 0.909242 -0.225771
C9    C     C_R   0.322329 0.625866 0.945595 0.142674
C10   C     C_R   0.615799 0.455555 0.084084 -0.233893
C11   C     C_R   0.685451 0.408891 0.049265 0.158282
C12   C     C_R   0.532706 0.260779 0.467490 0.774918
C13   C     C_R   0.651774 0.396876 0.966890 0.007969
C14   C     C_R   0.550490 0.450146 0.918345 0.054363
C15   C     C_R   0.716728 0.338626 0.929944 0.099044
C16   C     C_R   0.692478 0.360064 0.846739 0.159503
C17   C     C_R   0.521709 0.450634 0.834554 -0.311867
C18   C     C_R   0.463122 0.944973 0.636293 -0.186593
C19   C     C_R   0.457756 0.834488 0.541219 -0.008311
C20   C     C_R   0.501684 0.166611 0.359243 -0.179249
C21   C     C_R   0.460963 0.102136 0.325668 0.224706
C22   C     C_R   0.452537 0.040774 0.376649 -0.289837
C23   C     C_R   0.757985 0.448305 0.532244 0.806548
C24   C     C_R   0.494272 0.035094 0.460644 0.038485
C25   C     C_R   0.533080 0.102127 0.494164 0.035208
C26   C     C_R   0.489310 0.970023 0.512420 0.046813
C27   C     C_R   0.491463 0.993010 0.589763 0.094688
C28   C     C_R   0.531443 0.057458 0.622682 -0.227453
C29   C     C_R   0.567408 0.100122 0.578696 0.174798
C30   C     C_R   0.487094 0.881712 0.493128 0.095760
C31   C     C_R   0.442058 0.868493 0.610186 -0.252840
C32   C     C_R   0.530793 0.171327 0.442016 -0.119770
C33   C     C_R   0.027587 0.387308 0.653753 0.136898
C34   C     C_R   0.240949 0.551987 0.467429 0.780384
C35   C     C_R   0.863750 0.427629 0.549871 -0.040602
C36   C     C_R   0.070095 0.593880 0.361061 0.128866
C37   C     C_R   0.991968 0.562668 0.331678 -0.201443
C38   C     C_R   0.972273 0.509638 0.381668 0.117516
C39   C     C_R   0.017552 0.504494 0.466244 0.088419
C40   C     C_R   0.103225 0.526593 0.496104 0.036185
C41   C     C_R   0.986621 0.470039 0.521912 0.055193
C42   C     C_R   0.052102 0.436756 0.602509 0.087532
C43   C     C_R   0.138303 0.456654 0.629670 -0.229598
C44   C     C_R   0.158949 0.506554 0.578889 -0.174013
C45   C     C_R   0.561134 0.440372 0.712248 0.816473
C46   C     C_R   0.888860 0.475896 0.501302 -0.312189
C47   C     C_R   0.936471 0.373889 0.622411 0.128191
C48   C     C_R   0.134342 0.564401 0.442602 -0.159829
C49   C     C_R   0.438928 0.559376 0.286552 0.805522
C50   C     C_R   0.404692 0.580632 0.197701 -0.096113
C51   C     C_R   0.592527 0.414417 0.798932 -0.051949
C52   C     C_R   0.273574 0.640200 0.065869 0.119235
H1    H     H_    0.545429 0.066034 0.685385 0.148171
H2    H     H_    0.460926 0.964392 0.694200 0.142674
H3    H     H_    0.411682 0.997898 0.349939 0.139699
H4    H     H_    0.830152 0.523336 0.450071 0.141680
H5    H     H_    0.538352 0.474717 0.196506 0.177267
O1    O     O_3   0.500000 0.500000 0.500000 -0.470697
O2    O     O_R   0.707110 0.418540 0.472990 -0.639096
O3    O     O_R   0.267620 0.606720 0.435250 -0.664026
O4    O     O_R   0.540230 0.674660 0.578090 -0.635321
O5    O     O_R   0.485030 0.300080 0.513670 -0.631568
O6    O     O_R   0.403610 0.721990 0.472930 -0.649931
O7    O     O_R   0.571130 0.303270 0.435320 -0.646110
O8    O     O_R   0.717650 0.497270 0.578120 -0.651519
O9    O     O_R   0.307610 0.477470 0.513630 -0.623091
O10   O     O_R   0.596500 0.492780 0.688380 -0.650849
O11   O     O_R   0.388780 0.611210 0.325000 -0.649342
O12   O     O_R   0.499860 0.410860 0.661600 -0.643896
O13   O     O_R   0.514860 0.485140 0.325020 -0.641268
Zn1   Zn    Zn3+2 0.572030 0.427990 0.434470 0.950986
Zn2   Zn    Zn3+2 0.587090 0.540470 0.584680 0.947291
Zn3   Zn    Zn3+2 0.449010 0.423430 0.546420 0.958280
Zn4   Zn    Zn3+2 0.391880 0.608100 0.434430 0.937945
C53   C     C_3   0.237766 0.714550 0.895608 -0.440426
C54   C     C_3   0.276184 0.777870 0.862951 -0.858087
H6    H     H_    0.332917 0.792775 0.912678 0.264015
H7    H     H_    0.309209 0.745608 0.818245 0.250458
H8    H     H_    0.213381 0.844825 0.832890 0.245420
H9    H     H_    0.185159 0.696143 0.844934 0.201744
H10   H     H_    0.195855 0.757409 0.931244 0.212171
C55   C     C_3   0.802553 0.248060 0.976201 -0.401071
C56   C     C_3   0.795651 0.161192 0.938129 -0.859566
H11   H     H_    0.716843 0.169505 0.908227 0.265123
H12   H     H_    0.834750 0.145717 0.894918 0.266620
H13   H     H_    0.833584 0.099747 0.985066 0.239675
H14   H     H_    0.875786 0.250935 0.984424 0.187004
H15   H     H_    0.800606 0.236524 0.036119 0.234620
H16   H     H_    0.422934 0.830179 0.648073 0.139865
C57   C     C_3   0.532290 0.830720 0.432791 -0.460298
C58   C     C_3   0.628954 0.744871 0.472131 -0.810586
H17   H     H_    0.671046 0.754357 0.533460 0.269043
H18   H     H_    0.613359 0.681126 0.474134 0.251749
H19   H     H_    0.677379 0.733029 0.435987 0.226436
H20   H     H_    0.476724 0.810594 0.386574 0.203887
H21   H     H_    0.554564 0.874472 0.401134 0.223256
H22   H     H_    0.501923 0.219580 0.320742 0.167834
C59   C     C_3   0.419978 0.098804 0.236162 -0.415838
C60   C     C_3   0.432234 0.166685 0.183153 -0.886295
H23   H     H_    0.389557 0.239817 0.188928 0.255872
H24   H     H_    0.512166 0.154222 0.199297 0.263079
H25   H     H_    0.402774 0.155903 0.119532 0.252950
H26   H     H_    0.457882 0.027052 0.224189 0.205274
H27   H     H_    0.339328 0.112928 0.217661 0.205348
C61   C     C_3   0.648758 0.133019 0.624575 -0.390389
C62   C     C_3   0.738762 0.052997 0.682863 -0.901351
H28   H     H_    0.721486 0.033721 0.734152 0.257507
H29   H     H_    0.761063 0.991088 0.651636 0.271434
H30   H     H_    0.803057 0.074008 0.706710 0.250354
H31   H     H_    0.677504 0.159037 0.584587 0.197442
H32   H     H_    0.617904 0.190001 0.657423 0.220950
C63   C     C_3   0.914961 0.302652 0.663076 -0.447243
C64   C     C_3   0.906863 0.225148 0.611290 -0.869378
H33   H     H_    0.842407 0.252674 0.554142 0.270367
H34   H     H_    0.976083 0.191539 0.597983 0.265543
H35   H     H_    0.896617 0.171312 0.643642 0.242708
H36   H     H_    0.973103 0.267526 0.721608 0.221509
H37   H     H_    0.844755 0.337909 0.674141 0.218199
H38   H     H_    0.445478 0.484619 0.794603 0.139609
H39   H     H_    0.190250 0.436566 0.690630 0.155935
C65   C     C_3   0.094961 0.353148 0.741185 -0.424403
C66   C     C_3   0.179469 0.259408 0.749723 -0.858485
H40   H     H_    0.226445 0.265351 0.716457 0.263732
H41   H     H_    0.226830 0.236106 0.813948 0.246051
H42   H     H_    0.149021 0.206186 0.726114 0.263053
H43   H     H_    0.125403 0.404887 0.768598 0.193873
H44   H     H_    0.052885 0.348119 0.779119 0.192028
C67   C     C_3   0.092571 0.647588 0.304091 -0.350227
C68   C     C_3   0.008618 0.691622 0.223212 -0.953991
H45   H     H_    0.998757 0.637296 0.184398 0.258517
H46   H     H_    0.937806 0.733112 0.231908 0.273394
H47   H     H_    0.028027 0.738965 0.191835 0.252849
H48   H     H_    0.108429 0.706098 0.333477 0.232608
H49   H     H_    0.159573 0.600405 0.292750 0.203175
C69   C     C_3   0.920421 0.445545 0.341975 -0.414809
C70   C     C_3   0.987813 0.342845 0.372162 -0.820065
H50   H     H_    0.056789 0.324784 0.358369 0.255787
H51   H     H_    0.008407 0.326940 0.437576 0.268972
H52   H     H_    0.948527 0.297897 0.342610 0.243412
H53   H     H_    0.847847 0.461642 0.348397 0.203255
H54   H     H_    0.901947 0.454582 0.276111 0.202123
H55   H     H_    0.951191 0.572108 0.268004 0.156102
H56   H     H_    0.221416 0.526834 0.605268 0.152234
C71   C     C_3   0.772992 0.327762 0.810292 -0.407118
C72   C     C_3   0.758560 0.258305 0.751519 -0.906677
H57   H     H_    0.724191 0.215318 0.770071 0.276741
H58   H     H_    0.710539 0.294887 0.690171 0.247486
H59   H     H_    0.831870 0.211477 0.750151 0.250752
H60   H     H_    0.773824 0.388897 0.779587 0.209444
H61   H     H_    0.848214 0.295483 0.857017 0.203946
C73   C     C_3   0.793462 0.390512 0.098957 -0.426903
C74   C     C_3   0.834298 0.319862 0.173711 -0.899663
H62   H     H_    0.802640 0.352212 0.219099 0.259581
H63   H     H_    0.815784 0.257777 0.160200 0.259595
H64   H     H_    0.916516 0.296882 0.199814 0.257972
H65   H     H_    0.842874 0.368944 0.063857 0.199115
H66   H     H_    0.798017 0.457155 0.118756 0.199881
C75   C     C_3   0.164827 0.654490 0.021071 -0.451261
C76   C     C_3   0.132890 0.591041 0.061064 -0.879146
H67   H     H_    0.182543 0.517006 0.065546 0.263062
H68   H     H_    0.135167 0.607900 0.121853 0.259382
H69   H     H_    0.055394 0.600107 0.024550 0.249819
H70   H     H_    0.114367 0.728377 0.015209 0.196518
H71   H     H_    0.153146 0.635682 0.959503 0.215504
C77   C     C_3   0.239854 0.717621 0.184262 -0.380253
C78   C     C_3   0.279977 0.793296 0.212144 -0.841850
H72   H     H_    0.232084 0.842928 0.240693 0.244724
H73   H     H_    0.357384 0.763749 0.255979 0.265497
H74   H     H_    0.278929 0.832213 0.159888 0.241411
H75   H     H_    0.164179 0.754348 0.139533 0.199430
H76   H     H_    0.227897 0.685588 0.232833 0.225705
H77   H     H_    0.362521 0.585540 0.845338 0.147554
H78   H     H_    0.644516 0.465821 0.145960 0.153759

loop_
_geom_bond_atom_site_label_1
_geom_bond_atom_site_label_2
_ccdc_geom_bond_type
C77   H76   S    
C34   O3    A    
C61   H31   S    
C77   C78   S    
C49   O11   A    
C41   C42   A    
C54   H8    S    
C53   C54   S    
C19   C31   A    
C67   C68   S    
C17   C51   A    
C72   H57   S    
C69   C70   S    
C39   C41   A    
C23   O2    A    
O2    Zn1   S    
C26   C27   A    
C71   H60   S    
C33   C42   A    
C73   H66   S    
C28   C29   A    
C16   C71   S    
C54   H7    S    
C65   H44   S    
C38   C39   A    
C12   O7    A    
C59   H27   S    
O1    Zn1   S    
C62   H28   S    
C45   C51   S    
O11   Zn4   S    
C15   C16   A    
C25   C29   A    
O10   Zn2   S    
O7    Zn1   S    
C49   C50   S    
C71   H61   S    
C2    C50   A    
C7    C14   A    
C20   H22   S    
C56   H11   S    
C8    C9    A    
C31   H16   S    
C59   H26   S    
C45   O10   A    
C73   C74   S    
C76   H68   S    
O5    Zn3   S    
O12   Zn3   S    
O13   Zn1   S    
C53   H9    S    
C68   H47   S    
C75   H71   S    
C43   H39   S    
C64   H35   S    
C25   C32   A    
C61   H32   S    
C35   C47   A    
C21   C22   A    
C12   C32   S    
C33   C65   S    
C14   C17   A    
C34   O9    A    
C36   C67   S    
C70   H52   S    
C1    O6    A    
C63   C64   S    
C72   H58   S    
C3    C50   A    
C15   C55   S    
C52   C75   S    
C69   H53   S    
C1    C19   S    
C37   H55   S    
C45   O12   A    
C7    C8    A    
C78   H73   S    
C54   H6    S    
C29   C61   S    
C70   H51   S    
C39   C40   A    
C18   H2    S    
C53   H10   S    
C73   H65   S    
O9    Zn3   S    
C55   C56   S    
C43   C44   A    
C5    C9    A    
C37   C38   A    
C67   H49   S    
C58   H18   S    
C12   O5    A    
C76   H67   S    
C74   H64   S    
C69   H54   S    
C41   C46   A    
C60   H25   S    
C55   H14   S    
C76   H69   S    
C19   C30   A    
C5    C52   A    
C38   C69   S    
C24   C25   A    
C2    C77   S    
C65   C66   S    
C22   H3    S    
C2    C52   A    
C75   H70   S    
C3    H5    S    
O4    Zn2   S    
C4    C6    A    
C60   H24   S    
C74   H63   S    
C26   C30   A    
C23   C35   S    
C49   O13   A    
C13   C15   A    
C75   C76   S    
C33   C47   A    
C22   C24   A    
C34   C48   S    
C42   C43   A    
C66   H41   S    
C3    C4    A    
C58   H17   S    
C72   H59   S    
O1    Zn4   S    
C64   H33   S    
C20   C32   A    
C11   C73   S    
C77   H75   S    
C40   C48   A    
C36   C37   A    
C16   C51   A    
C56   H12   S    
C20   C21   A    
C18   C27   A    
C24   C26   A    
C70   H50   S    
C1    O4    A    
C6    C10   A    
C28   H1    S    
C57   H21   S    
C6    C7    A    
O6    Zn4   S    
O8    Zn2   S    
C61   C62   S    
C60   H23   S    
C63   H36   S    
C71   C72   S    
C23   O8    A    
C66   H42   S    
C68   H45   S    
C65   H43   S    
C67   H48   S    
C58   H19   S    
C63   H37   S    
C21   C59   S    
C11   C13   A    
O1    Zn2   S    
C57   C58   S    
C78   H72   S    
C62   H29   S    
C10   H78   S    
C44   H56   S    
C55   H15   S    
C4    C5    A    
O3    Zn4   S    
C36   C48   A    
C10   C11   A    
C17   H38   S    
C8    H77   S    
C40   C44   A    
C56   H13   S    
C74   H62   S    
C78   H74   S    
C59   C60   S    
C46   H4    S    
C27   C28   A    
C18   C31   A    
C9    C53   S    
C64   H34   S    
C66   H40   S    
C13   C14   A    
C35   C46   A    
C57   H20   S    
C47   C63   S    
O1    Zn3   S    
C30   C57   S    
C68   H46   S    
C62   H30   S    
