data_mof_unit_23484.cif
_audit_creation_date              2012-12-10T18:09:57-0500
_audit_creation_method            fapswitch 2.2
_symmetry_space_group_name_H-M    P1
_symmetry_Int_Tables_number       1
_space_group_crystal_system       triclinic
_cell_length_a                    10.630552
_cell_length_b                    12.605889
_cell_length_c                    13.0946
_cell_angle_alpha                 82.105236
_cell_angle_beta                  90.528663
_cell_angle_gamma                 102.402992
_cell_volume                      1697.20435905

loop_
_atom_site_label
_atom_site_type_symbol
_atom_type_description
_atom_site_fract_x
_atom_site_fract_y
_atom_site_fract_z
_atom_type_partial_charge
C1    C     C_R   0.477811 0.438329 0.691412 0.869654
C2    C     C_R   0.460647 0.448275 0.973675 0.085489
C3    C     C_R   0.430699 0.468832 0.869313 -0.015243
C4    C     C_R   0.741610 0.499716 0.501460 0.834008
C5    C     C_R   0.463245 0.532059 0.035291 0.060306
C6    C     C_R   0.411019 0.625104 0.999067 0.123667
C7    C     C_R   0.356573 0.632657 0.900266 0.141112
C8    C     C_R   0.371078 0.556640 0.835617 -0.218935
C9    C     C_R   0.517120 0.524993 0.132521 -0.241515
C10   C     C_R   0.458095 0.692035 0.163897 -0.217487
C11   C     C_R   0.455440 0.397754 0.801706 -0.220375
C12   C     C_3   0.121547 0.498423 0.501202 0.147833
C13   C     C_R   0.317346 0.087487 0.349402 -0.310916
C14   C     C_R   0.653471 0.799449 0.629355 0.007287
C15   C     C_R   0.686422 0.904289 0.656798 -0.259478
C16   C     C_R   0.513978 0.561344 0.308545 0.856460
C17   C     C_R   0.629384 0.986250 0.607009 -0.196385
C18   C     C_R   0.539058 0.963423 0.528696 0.006179
C19   C     C_R   0.508897 0.855148 0.503735 0.238314
C20   C     C_R   0.476541 0.042782 0.475208 -0.027576
C21   C     C_R   0.383518 0.011646 0.400029 0.209551
C22   C     C_R   0.357318 0.905158 0.376125 -0.309749
C23   C     C_3   0.091380 0.588053 0.414605 0.018504
C24   C     C_R   0.420196 0.828576 0.426723 -0.224963
C25   C     C_R   0.500979 0.152180 0.493944 -0.053102
C26   C     C_R   0.343373 0.193377 0.373770 -0.005095
C27   C     C_R   0.258190 0.499054 0.500826 0.831625
C28   C     C_3   0.898618 0.382626 0.489648 -0.394258
C29   C     C_3   0.040967 0.381708 0.491574 -0.384634
C30   C     C_3   0.945187 0.580959 0.411790 -0.467514
C31   C     C_3   0.938724 0.531959 0.607844 0.006068
C32   C     C_3   0.878123 0.498408 0.504081 0.086048
C33   C     C_3   0.280730 0.718205 0.861246 -0.448559
C34   C     C_3   0.083211 0.527114 0.606817 -0.489326
C35   C     C_3   0.368613 0.821175 0.805990 -0.841560
C36   C     C_3   0.337169 0.137837 0.795237 0.093299
C37   C     C_3   0.293001 0.094385 0.695352 -0.824945
C38   C     C_3   0.153469 0.597640 0.305721 -0.406059
C39   C     C_3   0.125631 0.494481 0.252902 -0.840289
C40   C     C_3   0.867223 0.462068 0.705725 -0.378256
C41   C     C_3   0.908596 0.512756 0.803628 -0.898822
C42   C     C_R   0.413408 0.706408 0.063701 -0.203597
C43   C     C_R   0.504229 0.598111 0.199332 -0.048792
C44   C     C_R   0.467427 0.290812 0.842199 0.488521
C45   C     C_R   0.482367 0.264999 0.948040 -0.270408
C46   C     C_R   0.484022 0.343836 0.012754 -0.265229
H1    H     H_    0.859749 0.359940 0.414429 0.185371
H2    H     H_    0.846549 0.318839 0.551043 0.170191
H3    H     H_    0.329862 0.563770 0.759678 0.164743
H4    H     H_    0.292861 0.253280 0.335925 0.129245
H5    H     H_    0.287832 0.880774 0.317981 0.143835
H6    H     H_    0.245976 0.064927 0.292111 0.139709
H7    H     H_    0.571074 0.183994 0.548080 0.149521
H8    H     H_    0.697310 0.735278 0.667766 0.142755
H9    H     H_    0.657295 0.065868 0.631819 0.149694
H10   H     H_    0.755541 0.921902 0.716711 0.150142
H11   H     H_    0.397473 0.748803 0.404188 0.205364
H12   H     H_    0.141611 0.607887 0.621640 0.168280
H13   H     H_    0.058935 0.322708 0.558768 0.165995
H14   H     H_    0.067584 0.349312 0.422351 0.189282
H15   H     H_    0.904346 0.555346 0.338240 0.184783
H16   H     H_    0.932588 0.618789 0.610166 0.161610
H17   H     H_    0.105045 0.465155 0.669760 0.173197
H18   H     H_    0.444149 0.857119 0.858049 0.259476
H19   H     H_    0.414793 0.801721 0.737274 0.277565
H20   H     H_    0.309800 0.881963 0.780188 0.246316
H21   H     H_    0.206914 0.685379 0.806254 0.203273
H22   H     H_    0.225775 0.738549 0.924804 0.197249
H23   H     H_    0.926130 0.663962 0.415112 0.157756
H24   H     H_    0.260104 0.177121 0.820630 0.121595
H25   H     H_    0.345252 0.067790 0.854698 0.143140
H26   H     H_    0.363405 0.050040 0.669275 0.258949
H27   H     H_    0.197708 0.036931 0.707791 0.194488
H28   H     H_    0.283978 0.163253 0.635050 0.271072
H29   H     H_    0.186799 0.437391 0.284936 0.252914
H30   H     H_    0.022378 0.452990 0.259984 0.251121
H31   H     H_    0.151363 0.517631 0.169588 0.247658
H32   H     H_    0.120978 0.664166 0.254571 0.201390
H33   H     H_    0.259231 0.624529 0.310799 0.192428
H34   H     H_    0.133860 0.668825 0.440124 0.126442
H35   H     H_    0.012402 0.516240 0.817822 0.255685
H36   H     H_    0.890209 0.596882 0.797078 0.253666
H37   H     H_    0.852142 0.461980 0.870793 0.260232
H38   H     H_    0.761719 0.455307 0.699491 0.204520
H39   H     H_    0.884757 0.377536 0.714740 0.212971
H40   H     H_    0.449847 0.750962 0.214940 0.147913
H41   H     H_    0.377834 0.779754 0.039182 0.146132
H42   H     H_    0.565664 0.460012 0.160185 0.145803
H43   H     H_    0.495057 0.318239 0.093799 0.158898
H44   H     H_    0.493424 0.183676 0.979998 0.153380
N1    N     N_R   0.433240 0.222190 0.444680 -0.104497
N2    N     N_R   0.566070 0.776970 0.554790 -0.131662
O1    O     O_R   0.468120 0.366740 0.627160 -0.559294
O2    O     O_R   0.510770 0.544830 0.662520 -0.618007
O3    O     O_R   0.663880 0.410950 0.482330 -0.625489
O4    O     O_R   0.706530 0.589040 0.517700 -0.626453
O5    O     O_R   0.489230 0.455170 0.337480 -0.612209
O6    O     O_R   0.531880 0.633260 0.372840 -0.632618
O7    O     O_R   0.293470 0.410960 0.482300 -0.631248
O8    O     O_R   0.336120 0.589050 0.517670 -0.656756
O9    O     O_3   0.459238 0.210522 0.778864 -0.603921
Zn1   Zn    Zn3+2 0.471520 0.381090 0.476390 0.933821
Zn2   Zn    Zn3+2 0.528480 0.618910 0.523610 0.911725

loop_
_geom_bond_atom_site_label_1
_geom_bond_atom_site_label_2
_ccdc_geom_bond_type
C37   H28   S    
C28   H1    S    
C12   C29   S    
C10   C42   A    
C40   H38   S    
C1    C11   S    
C7    C8    A    
C46   H43   S    
C45   C46   A    
C2    C46   A    
C12   C23   S    
C27   O7    A    
C39   H31   S    
C28   C29   S    
C25   H7    S    
C26   H4    S    
C9    H42   S    
C5    C6    A    
C16   O5    A    
C38   H33   S    
C35   H19   S    
O6    Zn2   S    
C13   H6    S    
C31   C40   S    
C18   C19   A    
C19   N2    A    
N2    Zn2   S    
C4    O4    A    
C10   H40   S    
C29   H13   S    
C24   H11   S    
C35   H18   S    
C39   H29   S    
C23   H34   S    
C17   H9    S    
O5    Zn1   S    
C36   H25   S    
C21   C22   A    
C7    C33   S    
C31   H16   S    
C28   H2    S    
C36   H24   S    
C27   O8    A    
C9    C43   A    
C25   N1    A    
C12   C27   S    
C23   C30   S    
C28   C32   S    
C3    C8    A    
C1    O2    A    
C38   H32   S    
C35   H20   S    
C26   N1    A    
O8    Zn2   S    
C36   O9    S    
C40   H39   S    
C5    C9    A    
C4    O3    A    
C31   C32   S    
C29   H14   S    
C41   H35   S    
C17   C18   A    
C31   C34   S    
C13   C21   A    
C11   C44   A    
C39   H30   S    
C45   H44   S    
C16   C43   S    
C14   N2    A    
C4    C32   S    
C40   C41   S    
C14   H8    S    
O2    Zn2   S    
C6    C42   A    
C22   C24   A    
C13   C26   A    
C37   H26   S    
C2    C5    A    
N1    Zn1   S    
C12   C34   S    
C30   H23   S    
C44   C45   A    
C33   H21   S    
C15   C17   A    
C37   H27   S    
C36   C37   S    
C10   C43   A    
O1    Zn1   S    
C44   O9    S    
O3    Zn1   S    
C6    C7    A    
C23   C38   S    
C15   H10   S    
C2    C3    A    
C30   C32   S    
C16   O6    A    
C38   C39   S    
C41   H36   S    
C34   H17   S    
C33   C35   S    
C19   C24   A    
C18   C20   A    
C3    C11   A    
O7    Zn1   S    
C20   C21   A    
C1    O1    A    
C20   C25   A    
C30   H15   S    
C34   H12   S    
C14   C15   A    
C42   H41   S    
O4    Zn2   S    
C8    H3    S    
C33   H22   S    
C22   H5    S    
C41   H37   S    
