data_mof_unit_6009.cif
_audit_creation_date              2012-10-26T20:03:17-0400
_audit_creation_method            fapswitch 2.2
_symmetry_space_group_name_H-M    P1
_symmetry_Int_Tables_number       1
_space_group_crystal_system       triclinic
_cell_length_a                    10.6003
_cell_length_b                    12.382346
_cell_length_c                    13.194443
_cell_angle_alpha                 116.952846
_cell_angle_beta                  76.292007
_cell_angle_gamma                 101.192883
_cell_volume                      1492.23528877

loop_
_atom_site_label
_atom_site_type_symbol
_atom_type_description
_atom_site_fract_x
_atom_site_fract_y
_atom_site_fract_z
_atom_type_partial_charge
C1    C     C_R   0.510762 0.855235 0.286512 0.553279
C2    C     C_R   0.532122 0.560523 0.016808 0.056475
C3    C     C_R   0.474905 0.649042 0.124256 0.024959
C4    C     C_R   0.740151 0.000600 0.501181 0.574210
C5    C     C_R   0.478199 0.437219 0.983095 0.034043
C6    C     C_R   0.387531 0.401617 0.063025 0.033694
C7    C     C_R   0.333109 0.489898 0.167565 -0.121725
C8    C     C_R   0.369347 0.611993 0.193688 -0.101149
C9    C     C_R   0.500823 0.350757 0.869061 -0.139070
C10   C     C_R   0.380679 0.190387 0.921534 0.088264
C11   C     C_R   0.528287 0.772242 0.162796 0.003526
C12   C     C_3   0.015792 0.020805 0.606677 -0.129727
C13   C     C_R   0.752311 0.380970 0.401766 -0.128305
C14   C     C_R   0.306113 0.748718 0.625862 0.052851
C15   C     C_R   0.256936 0.646633 0.646528 -0.159146
C16   C     C_R   0.479043 0.145017 0.713915 0.564289
C17   C     C_R   0.330538 0.548438 0.601652 -0.133096
C18   C     C_R   0.456699 0.552391 0.537762 -0.021471
C19   C     C_R   0.504635 0.658882 0.517082 0.187635
C20   C     C_R   0.537133 0.454085 0.492880 -0.009908
C21   C     C_R   0.670871 0.474845 0.451769 0.029089
C22   C     C_R   0.721505 0.586752 0.452555 -0.142696
C23   C     C_3   0.931069 0.912020 0.528965 -0.103905
C24   C     C_R   0.637704 0.664490 0.460160 0.114844
C25   C     C_R   0.492507 0.336112 0.487589 0.050120
C26   C     C_R   0.701328 0.266079 0.392993 0.058350
C27   C     C_R   0.259644 0.000584 0.500521 0.538610
C28   C     C_3   0.984037 0.981209 0.396070 -0.115212
C29   C     C_3   0.040297 0.892719 0.423073 -0.111885
C30   C     C_3   0.122708 0.001418 0.500831 0.039824
C31   C     C_3   0.068736 0.090038 0.473842 -0.119608
C32   C     C_3   0.959400 0.109262 0.579689 -0.124360
C33   C     C_3   0.877040 0.000518 0.501863 0.051186
C34   C     C_R   0.344366 0.278472 0.033634 -0.119994
C35   C     C_R   0.455792 0.227835 0.837228 0.038523
C36   C     C_R   0.621990 0.809470 0.087486 -0.144922
C37   C     C_R   0.679395 0.723713 0.983240 -0.103142
C38   C     C_R   0.643472 0.599652 0.951311 0.092660
Cu1   Cu    Cu3+1 0.529830 0.098270 0.475420 0.938556
Cu2   Cu    Cu3+1 0.470170 0.901730 0.524580 0.974435
H1    H     H_    0.076449 0.804162 0.359066 0.117511
H2    H     H_    0.247092 0.823778 0.660931 0.140744
H3    H     H_    0.967635 0.964906 0.310011 0.121652
H4    H     H_    0.288647 0.472269 0.621676 0.110579
H5    H     H_    0.160985 0.643545 0.697492 0.127270
H6    H     H_    0.127771 0.163027 0.451302 0.120283
H7    H     H_    0.923003 0.197697 0.643702 0.150716
H8    H     H_    0.032168 0.036958 0.692701 0.114520
H9    H     H_    0.872343 0.839475 0.552228 0.131792
H10   H     H_    0.257104 0.464744 0.226454 0.105895
H11   H     H_    0.278470 0.250987 0.096279 0.102667
H12   H     H_    0.545108 0.380650 0.802598 0.169965
H13   H     H_    0.230562 0.059119 0.910036 0.214908
H14   H     H_    0.364036 0.038163 0.945752 0.232298
H15   H     H_    0.662249 0.903773 0.114653 0.132111
H16   H     H_    0.761691 0.753920 0.932522 0.141853
H17   H     H_    0.314750 0.677045 0.270204 0.133947
H18   H     H_    0.765032 0.194320 0.356234 0.124934
H19   H     H_    0.824926 0.599643 0.420244 0.126941
H20   H     H_    0.854562 0.395867 0.367997 0.093041
H21   H     H_    0.394008 0.314829 0.524002 0.112949
I1    I     I_    0.790789 0.489457 0.826254 -0.459496
I2    I     I_    0.714828 0.684898 0.303997 -0.373381
N1    N     N_R   0.575030 0.246270 0.438190 -0.236188
N2    N     N_R   0.425760 0.754330 0.561190 -0.231387
N3    N     N_3   0.332550 0.065319 0.892212 -0.609538
O1    O     O_R   0.537510 0.972500 0.318130 -0.504949
O2    O     O_R   0.487140 0.806530 0.359650 -0.474376
O3    O     O_R   0.708330 0.082950 0.479220 -0.510015
O4    O     O_R   0.657960 0.916980 0.520740 -0.484262
O5    O     O_R   0.512860 0.193470 0.640350 -0.509263
O6    O     O_R   0.462490 0.027500 0.681870 -0.460540
O7    O     O_R   0.342040 0.083020 0.479260 -0.515787
O8    O     O_R   0.291670 0.917050 0.520780 -0.527491

loop_
_geom_bond_atom_site_label_1
_geom_bond_atom_site_label_2
_ccdc_geom_bond_type
C16   O6    A    
C12   H8    S    
C4    O4    A    
C7    C8    A    
C13   H20   S    
Cu1   N1    S    
C9    H12   S    
C12   C23   S    
C34   H11   S    
C37   C38   A    
Cu2   O4    S    
C23   C29   S    
C11   C36   A    
C16   C35   S    
C30   C31   S    
C23   H9    S    
C20   C25   A    
C1    O2    A    
C18   C19   A    
C26   N1    A    
C37   H16   S    
C23   C33   S    
C31   H6    S    
C1    C11   S    
C19   N2    A    
C10   C35   A    
C27   O8    A    
C14   H2    S    
C29   H1    S    
C21   C22   A    
C12   C32   S    
C27   C30   S    
C16   O5    A    
C4    O3    A    
C10   N3    S    
C3    C8    A    
C22   H19   S    
C6    C34   A    
C25   N1    A    
C5    C9    A    
C29   C30   S    
C8    H17   S    
C2    C38   A    
C31   C32   S    
C17   C18   A    
Cu1   O3    S    
C13   C21   A    
C10   C34   A    
C25   H21   S    
H13   N3    S    
C26   H18   S    
C28   C33   S    
C24   I2    S    
Cu2   N2    S    
C32   H7    S    
C22   C24   A    
C13   C26   A    
C2    C5    A    
C15   H5    S    
Cu1   Cu2   S    
C15   C17   A    
C4    C33   S    
C28   C29   S    
Cu2   O6    S    
C12   C30   S    
Cu1   O1    S    
C28   C31   S    
C7    H10   S    
C6    C7    A    
H14   N3    S    
C28   H3    S    
C32   C33   S    
C19   C24   A    
C17   H4    S    
C36   H15   S    
C5    C6    A    
C1    O1    A    
C14   N2    A    
Cu2   O8    S    
C2    C3    A    
C18   C20   A    
Cu1   O7    S    
C3    C11   A    
C20   C21   A    
C36   C37   A    
Cu2   O2    S    
C9    C35   A    
Cu1   O5    S    
C14   C15   A    
C27   O7    A    
C38   I1    S    
