data_mof_unit_44099.cif
_audit_creation_date              2012-12-10T21:13:18-0500
_audit_creation_method            fapswitch 2.2
_symmetry_space_group_name_H-M    P1
_symmetry_Int_Tables_number       1
_space_group_crystal_system       triclinic
_cell_length_a                    17.345479
_cell_length_b                    16.998342
_cell_length_c                    14.828985
_cell_angle_alpha                 90.577493
_cell_angle_beta                  94.049338
_cell_angle_gamma                 90.763817
_cell_volume                      4360.67440211

loop_
_atom_site_label
_atom_site_type_symbol
_atom_type_description
_atom_site_fract_x
_atom_site_fract_y
_atom_site_fract_z
_atom_type_partial_charge
C1    C     C_R   0.354148 0.499227 0.512143 0.981794
C2    C     C_R   0.237078 0.429529 0.579113 0.301022
C3    C     C_R   0.236133 0.570766 0.551387 0.199390
C4    C     C_R   0.772204 0.428108 0.497420 0.333600
C5    C     C_R   0.732198 0.499955 0.492788 -0.399771
C6    C     C_R   0.274498 0.498254 0.544984 -0.394652
C7    C     C_R   0.885157 0.499678 0.562890 -0.274760
C8    C     C_R   0.119019 0.503903 0.583003 -0.273156
C9    C     C_1   0.967458 0.500312 0.579869 0.281759
C10   C     C_1   0.036667 0.501704 0.585154 0.265773
C11   C     C_R   0.439943 0.831754 0.452108 0.267862
C12   C     C_R   0.647069 0.500186 0.494298 0.983095
C13   C     C_R   0.500875 0.168168 0.582502 0.221623
C14   C     C_R   0.555490 0.835880 0.550958 0.212303
C15   C     C_R   0.495911 0.165156 0.420412 0.244739
C16   C     C_R   0.453018 0.749671 0.437455 0.345466
C17   C     C_R   0.518429 0.250675 0.578993 0.362401
C18   C     C_R   0.546497 0.752437 0.562856 0.347653
C19   C     C_R   0.481672 0.247988 0.421577 0.386835
C20   C     C_R   0.496611 0.876619 0.502154 -0.250086
C21   C     C_R   0.496784 0.123671 0.501882 -0.249950
C22   C     C_1   0.495035 0.964030 0.502520 0.311072
C23   C     C_R   0.360705 0.462124 0.033321 0.358862
C24   C     C_1   0.495244 0.036311 0.502555 0.315323
C25   C     C_R   0.499647 0.499673 0.327132 0.915607
C26   C     C_R   0.499710 0.500334 0.672757 0.917194
C27   C     C_R   0.567725 0.518514 0.818460 -0.105774
C28   C     C_R   0.430739 0.481473 0.181374 -0.175123
C29   C     C_R   0.499349 0.501119 0.767744 -0.032432
C30   C     C_R   0.499244 0.499087 0.231948 -0.023898
C31   C     C_R   0.431318 0.482526 0.806687 -0.091293
C32   C     C_R   0.567339 0.516474 0.192693 -0.093844
C33   C     C_R   0.430881 0.481758 0.899736 0.069587
C34   C     C_R   0.637975 0.536545 0.966232 0.374439
C35   C     C_R   0.567727 0.517023 0.099724 0.069607
C36   C     C_R   0.499703 0.499973 0.952962 0.019099
C37   C     C_R   0.498772 0.499255 0.046606 0.036127
C38   C     C_R   0.569322 0.518691 0.912216 -0.022227
C39   C     C_R   0.429153 0.480721 0.087454 -0.014654
C40   C     C_R   0.362631 0.462897 0.939637 -0.229857
C41   C     C_R   0.636179 0.535156 0.059849 -0.232484
C42   C     C_R   0.847879 0.571903 0.546830 0.304995
C43   C     C_R   0.162851 0.438908 0.612319 0.297236
C44   C     C_R   0.155787 0.569327 0.547355 0.342391
C45   C     C_R   0.847263 0.427408 0.540256 0.297688
C46   C     C_R   0.774053 0.571345 0.501374 0.287729
H1    H     H_    0.310814 0.448709 0.897194 0.210704
H2    H     H_    0.181350 0.318710 0.815999 0.419497
H3    H     H_    0.127922 0.747019 0.413026 0.411089
H4    H     H_    0.860466 0.216142 0.593503 0.408919
H5    H     H_    0.685670 0.760375 0.444961 0.393444
H6    H     H_    0.375354 0.282393 0.658909 0.410043
H7    H     H_    0.306946 0.691344 0.475386 0.402597
H8    H     H_    0.786399 0.253543 0.352362 0.408688
H9    H     H_    0.238707 0.847826 0.355668 0.404911
H10   H     H_    0.454516 0.151512 0.820234 0.407697
H11   H     H_    0.756347 0.871851 0.643849 0.404240
H12   H     H_    0.688244 0.548425 0.102258 0.205530
H13   H     H_    0.551537 0.141299 0.186919 0.400844
H14   H     H_    0.352845 0.619352 0.266197 0.391030
H15   H     H_    0.564502 0.334134 0.806025 0.381685
H16   H     H_    0.685448 0.656398 0.651754 0.422355
H17   H     H_    0.457433 0.312508 0.189015 0.387282
H18   H     H_    0.619049 0.530411 0.783460 0.225900
H19   H     H_    0.379711 0.468587 0.216683 0.218992
H20   H     H_    0.379113 0.468903 0.764330 0.177484
H21   H     H_    0.619810 0.529059 0.234749 0.185930
H22   H     H_    0.186139 0.468955 0.973812 0.385724
H23   H     H_    0.785800 0.634137 0.024102 0.379823
H24   H     H_    0.846028 0.751688 0.681600 0.408880
N1    N     N_R   0.500000 0.707230 0.500000 -0.203948
N2    N     N_R   0.500000 0.292770 0.500000 -0.214449
O1    O     O_R   0.389110 0.566570 0.500000 -0.580188
O2    O     O_2   0.247079 0.503925 0.137113 -0.264050
O3    O     O_3   0.202380 0.416982 0.997437 -0.465425
O4    O     O_2   0.751449 0.493185 0.863571 -0.209590
O5    O     O_2   0.716238 0.631991 0.860833 -0.229641
O6    O     O_3   0.796645 0.580498 0.001992 -0.459673
O7    O     O_2   0.950405 0.644924 0.667720 -0.241142
O8    O     O_2   0.920444 0.711428 0.523877 -0.135735
O9    O     O_3   0.818277 0.711450 0.642403 -0.481182
O10   O     O_2   0.075242 0.425592 0.754930 -0.234287
O11   O     O_2   0.087127 0.308340 0.659864 -0.149377
O12   O     O_R   0.610890 0.433430 0.500000 -0.546910
O13   O     O_3   0.204471 0.351387 0.769717 -0.500942
O14   O     O_2   0.033562 0.621076 0.444593 -0.257707
O15   O     O_2   0.080421 0.702632 0.575415 -0.153562
O16   O     O_3   0.159855 0.701845 0.433515 -0.485689
O17   O     O_2   0.952523 0.318009 0.510135 -0.213247
O18   O     O_2   0.930516 0.349315 0.667824 -0.198209
O19   O     O_3   0.828685 0.262651 0.577683 -0.422984
O20   O     O_2   0.813430 0.685283 0.387425 -0.176005
O21   O     O_2   0.687263 0.622553 0.356197 -0.312025
O22   O     O_3   0.704109 0.721142 0.490193 -0.476643
O23   O     O_R   0.610890 0.566570 0.500000 -0.561238
O24   O     O_2   0.228905 0.270772 0.614382 -0.162995
O25   O     O_2   0.296931 0.310836 0.486090 -0.211244
O26   O     O_3   0.362702 0.337999 0.646537 -0.535175
O27   O     O_2   0.228544 0.691953 0.668498 -0.152081
O28   O     O_2   0.352125 0.625988 0.666334 -0.269672
O29   O     O_3   0.311645 0.719045 0.534454 -0.442896
O30   O     O_2   0.691527 0.290942 0.482069 -0.210582
O31   O     O_2   0.684930 0.376822 0.350357 -0.280901
O32   O     O_3   0.810589 0.299495 0.385432 -0.447540
O33   O     O_2   0.326971 0.932972 0.483255 -0.220233
O34   O     O_R   0.389110 0.433430 0.500000 -0.532734
O35   O     O_2   0.371079 0.928308 0.330360 -0.187400
O36   O     O_3   0.281930 0.815170 0.380386 -0.454826
O37   O     O_2   0.424081 0.057005 0.670191 -0.236579
O38   O     O_2   0.559275 0.082059 0.721428 -0.167846
O39   O     O_3   0.456414 0.182835 0.764455 -0.483626
O40   O     O_2   0.659045 0.952771 0.529571 -0.255962
O41   O     O_2   0.617719 0.931792 0.681838 -0.171549
O42   O     O_3   0.715452 0.835113 0.618406 -0.444839
O43   O     O_2   0.573056 0.050420 0.339634 -0.249465
O44   O     O_2   0.440837 0.075046 0.279588 -0.177132
O45   O     O_R   0.499980 0.566550 0.367850 -0.545418
O46   O     O_3   0.549735 0.173732 0.242577 -0.458485
O47   O     O_2   0.386338 0.772316 0.266705 -0.175944
O48   O     O_2   0.498822 0.691372 0.282269 -0.261035
O49   O     O_3   0.366974 0.633578 0.330223 -0.545000
O50   O     O_2   0.631672 0.225947 0.708547 -0.183220
O51   O     O_2   0.630804 0.355593 0.643630 -0.256511
O52   O     O_3   0.526610 0.321641 0.754576 -0.503821
O53   O     O_2   0.622428 0.773312 0.731452 -0.161257
O54   O     O_2   0.507367 0.693511 0.719536 -0.200002
O55   O     O_3   0.633466 0.635333 0.661701 -0.539162
O56   O     O_R   0.500020 0.433450 0.632150 -0.557238
O57   O     O_2   0.375933 0.221255 0.282625 -0.186200
O58   O     O_2   0.376414 0.351995 0.347752 -0.234048
O59   O     O_3   0.488083 0.315597 0.247927 -0.493024
O60   O     O_R   0.500020 0.566550 0.632150 -0.528983
O61   O     O_R   0.499980 0.433450 0.367850 -0.549972
O62   O     O_2   0.283470 0.365438 0.137426 -0.180905
S1    S     S_3+6 0.272135 0.436963 0.079483 0.094319
S2    S     S_3+6 0.736729 0.347210 0.427950 0.142319
S3    S     S_3+6 0.353717 0.879591 0.410625 0.153747
S4    S     S_3+6 0.485513 0.119809 0.686234 0.130585
S5    S     S_3+6 0.637861 0.891425 0.596222 0.126787
S6    S     S_3+6 0.514418 0.113247 0.318971 0.138571
S7    S     S_3+6 0.426316 0.712323 0.326329 0.117074
S8    S     S_3+6 0.579760 0.289721 0.671380 0.151913
S9    S     S_3+6 0.577910 0.714652 0.671279 0.170075
S10   S     S_3+6 0.427470 0.285406 0.324672 0.160227
S11   S     S_3+6 0.726746 0.561060 0.919981 0.098604
S12   S     S_3+6 0.887883 0.661289 0.595154 0.157331
S13   S     S_3+6 0.129222 0.379576 0.700210 0.140657
S14   S     S_3+6 0.104088 0.650185 0.500395 0.139916
S15   S     S_3+6 0.892270 0.337857 0.574444 0.156392
S16   S     S_3+6 0.744818 0.650975 0.430270 0.126734
S17   S     S_3+6 0.280055 0.334162 0.580348 0.126004
S18   S     S_3+6 0.283148 0.652793 0.608423 0.147216
Zn1   Zn    Zn3+2 0.500000 0.588860 0.500000 1.143601
Zn2   Zn    Zn3+2 0.500000 0.411140 0.500000 1.165684

loop_
_geom_bond_atom_site_label_1
_geom_bond_atom_site_label_2
_ccdc_geom_bond_type
C31   H20   S    
C30   C32   A    
C19   S10   S    
C27   C29   A    
C14   C18   A    
O40   S5    D    
C8    C43   A    
C3    C6    A    
O10   S13   D    
H23   O6    S    
C26   O60   A    
O57   S10   D    
O28   S18   D    
H22   O3    S    
C15   C19   A    
C34   C41   A    
C3    S18   S    
H15   O52   S    
C7    C45   A    
H8    O32   S    
C36   C37   A    
C35   C37   A    
C41   H12   S    
H16   O55   S    
C34   S11   S    
O3    S1    S    
C27   C38   A    
C23   C40   A    
N1    Zn1   S    
O54   S9    D    
C25   C30   S    
C33   C36   A    
C12   O12   A    
C42   C46   A    
C7    C42   A    
H6    O26   S    
H24   O9    S    
O6    S11   S    
O12   Zn2   S    
H7    O29   S    
O34   Zn2   S    
O41   S5    D    
C12   O23   A    
H17   O59   S    
O58   S10   D    
C9    C10   T    
H10   O39   S    
O56   Zn2   S    
C1    O34   A    
C4    S2    S    
O17   S15   D    
C16   S7    S    
H3    O16   S    
O52   S8    S    
O21   S16   D    
C2    C6    A    
C16   N1    A    
O18   S15   D    
O46   S6    S    
O7    S12   D    
C4    C45   A    
O25   S17   D    
C3    C44   A    
C11   C20   A    
C33   C40   A    
N2    Zn2   S    
O15   S14   D    
O61   Zn2   S    
C32   C35   A    
C14   C20   A    
O38   S4    D    
C19   N2    A    
C5    C12   S    
O19   S15   S    
O55   S9    S    
C28   C39   A    
C40   H1    S    
C1    C6    S    
O14   S14   D    
O37   S4    D    
O23   Zn1   S    
O35   S3    D    
O31   S2    D    
O49   S7    S    
C11   C16   A    
C2    C43   A    
O2    S1    D    
C31   C33   A    
O60   Zn1   S    
O16   S14   S    
C13   C21   A    
C26   O56   A    
O42   S5    S    
O43   S6    D    
H11   O42   S    
C17   N2    A    
C32   H21   S    
O11   S13   D    
C8    C10   S    
C46   S16   S    
C20   C22   S    
O4    S11   D    
H13   O46   S    
O20   S16   D    
O47   S7    D    
C22   C24   T    
O50   S8    D    
C42   S12   S    
O5    S11   D    
C25   O61   A    
C15   S6    S    
C5    C46   A    
C18   N1    A    
C7    C9    S    
C18   S9    S    
O32   S2    S    
C34   C38   A    
O48   S7    D    
C8    C44   A    
C4    C5    A    
C25   O45   A    
O62   S1    D    
C23   S1    S    
O22   S16   S    
O27   S18   D    
O29   S18   S    
C13   C17   A    
H9    O36   S    
C1    O1    A    
C13   S4    S    
C36   C38   A    
O13   S13   S    
C11   S3    S    
O26   S17   S    
C29   C31   A    
C2    S17   S    
O45   Zn1   S    
O24   S17   D    
O36   S3    S    
O53   S9    D    
C23   C39   A    
O51   S8    D    
C28   C30   A    
C44   S14   S    
C28   H19   S    
C45   S15   S    
H14   O49   S    
C35   C41   A    
O30   S2    D    
C43   S13   S    
C27   H18   S    
H5    O22   S    
O33   S3    D    
H4    O19   S    
C15   C21   A    
C14   S5    S    
C26   C29   S    
C37   C39   A    
O9    S12   S    
C21   C24   S    
O1    Zn1   S    
H2    O13   S    
C17   S8    S    
O8    S12   D    
O59   S10   S    
O39   S4    S    
O44   S6    D    
