data_mof_unit_13926.cif
_audit_creation_date              2012-12-10T18:11:44-0500
_audit_creation_method            fapswitch 2.2
_symmetry_space_group_name_H-M    P1
_symmetry_Int_Tables_number       1
_space_group_crystal_system       triclinic
_cell_length_a                    10.501397
_cell_length_b                    12.60231
_cell_length_c                    13.182706
_cell_angle_alpha                 81.749666
_cell_angle_beta                  90.388924
_cell_angle_gamma                 102.869607
_cell_volume                      1682.62258234

loop_
_atom_site_label
_atom_site_type_symbol
_atom_type_description
_atom_site_fract_x
_atom_site_fract_y
_atom_site_fract_z
_atom_type_partial_charge
C1    C     C_R   0.479950 0.437851 0.691621 0.889748
C2    C     C_R   0.456599 0.444742 0.974377 0.102224
C3    C     C_R   0.433261 0.468470 0.869113 0.023244
C4    C     C_R   0.742228 0.501364 0.499111 0.908850
C5    C     C_R   0.468620 0.530219 0.035154 0.099294
C6    C     C_R   0.441899 0.632742 0.993491 0.095416
C7    C     C_R   0.396609 0.647337 0.894336 -0.238453
C8    C     C_R   0.388635 0.564934 0.833837 -0.143686
C9    C     C_R   0.511585 0.517793 0.135207 -0.316459
C10   C     C_R   0.500530 0.703953 0.152844 0.381879
C11   C     C_R   0.458523 0.396685 0.801976 -0.208683
C12   C     C_3   0.064523 0.579229 0.427302 -0.279710
C13   C     C_R   0.307115 0.084982 0.357067 -0.298815
C14   C     C_R   0.658463 0.800656 0.625915 0.018031
C15   C     C_R   0.692581 0.905764 0.652595 -0.238530
C16   C     C_R   0.516338 0.561978 0.308165 0.883723
C17   C     C_R   0.631811 0.986760 0.605629 -0.164609
C18   C     C_R   0.536145 0.962589 0.531224 0.005987
C19   C     C_R   0.504585 0.853992 0.507195 0.231846
C20   C     C_R   0.471141 0.041345 0.479539 -0.015599
C21   C     C_R   0.373376 0.009090 0.407864 0.178398
C22   C     C_R   0.343918 0.901829 0.386400 -0.222521
C23   C     C_3   0.986850 0.599872 0.519256 -0.191632
C24   C     C_R   0.410540 0.826253 0.433995 -0.113986
C25   C     C_R   0.499233 0.151647 0.495359 -0.009882
C26   C     C_R   0.338530 0.192363 0.377184 0.037563
C27   C     C_R   0.257477 0.498457 0.501125 0.896078
C28   C     C_3   0.933205 0.419225 0.573271 -0.392909
C29   C     C_3   0.044318 0.516453 0.591225 0.486526
C30   C     C_3   0.121662 0.496893 0.500914 -0.092196
C31   C     C_3   0.010418 0.402141 0.480667 0.520260
C32   C     C_3   0.951960 0.482867 0.406163 -0.238593
C33   C     C_3   0.999806 0.539939 0.755974 0.103636
C34   C     C_3   0.877364 0.502504 0.499144 -0.106970
C35   C     C_3   0.059314 0.570769 0.856001 -0.812428
C36   C     C_3   0.911970 0.228130 0.448511 0.109748
C37   C     C_3   0.936675 0.118874 0.427180 -0.790957
C38   C     C_R   0.461942 0.719617 0.051362 -0.233706
C39   C     C_R   0.515326 0.598870 0.197402 -0.141022
C40   C     C_R   0.477255 0.291114 0.843689 0.392697
C41   C     C_R   0.476017 0.261284 0.949332 -0.166963
C42   C     C_R   0.468703 0.337202 0.014187 -0.276865
Cl1   Cl    Cl    0.507787 0.193066 0.769522 -0.662028
Cl2   Cl    Cl    0.535989 0.819620 0.216684 -0.654461
H1    H     H_    0.541534 0.444018 0.167462 0.175645
H2    H     H_    0.875180 0.354752 0.631814 0.154966
H3    H     H_    0.661352 0.066760 0.629347 0.168586
H4    H     H_    0.765903 0.924457 0.709436 0.163696
H5    H     H_    0.389800 0.747649 0.408837 0.220798
H6    H     H_    0.908817 0.469049 0.330739 0.145052
H7    H     H_    0.122276 0.643555 0.368475 0.164339
H8    H     H_    0.973084 0.680714 0.535448 0.155651
H9    H     H_    0.369231 0.723163 0.862865 0.162820
H10   H     H_    0.447374 0.799617 0.017748 0.182126
H11   H     H_    0.930623 0.458435 0.773526 0.153586
H12   H     H_    0.470701 0.308549 0.095148 0.157980
H13   H     H_    0.944927 0.603105 0.724863 0.134853
H14   H     H_    0.126709 0.653103 0.841741 0.253851
H15   H     H_    0.980740 0.573598 0.910835 0.211891
H16   H     H_    0.113431 0.508709 0.890401 0.265888
H17   H     H_    0.858349 0.261801 0.382908 0.142995
H18   H     H_    0.849991 0.212057 0.519626 0.139752
H19   H     H_    0.988574 0.082299 0.492078 0.260803
H20   H     H_    0.842166 0.061015 0.417771 0.223162
H21   H     H_    0.997181 0.131488 0.355835 0.249764
H22   H     H_    0.487086 0.179939 0.981736 0.190345
H23   H     H_    0.347408 0.578236 0.759038 0.221990
H24   H     H_    0.287738 0.252340 0.339517 0.155476
H25   H     H_    0.271417 0.876799 0.330413 0.162104
H26   H     H_    0.232011 0.061467 0.302589 0.150750
H27   H     H_    0.572521 0.184247 0.547030 0.153874
H28   H     H_    0.705519 0.737318 0.661904 0.135112
N1    N     N_R   0.432930 0.222190 0.444670 -0.107044
N2    N     N_R   0.566370 0.776980 0.554790 -0.129311
O1    O     O_R   0.467970 0.366730 0.627150 -0.547815
O2    O     O_3   0.032707 0.300740 0.460320 -0.595083
O3    O     O_R   0.510820 0.544830 0.662520 -0.638424
O4    O     O_R   0.664630 0.410960 0.482340 -0.634923
O5    O     O_R   0.707470 0.589060 0.517710 -0.627128
O6    O     O_R   0.489180 0.455170 0.337480 -0.634956
O7    O     O_R   0.532030 0.633270 0.372850 -0.584132
O8    O     O_R   0.292530 0.410940 0.482290 -0.577017
O9    O     O_R   0.335370 0.589040 0.517660 -0.646009
O10   O     O_3   0.099735 0.535005 0.686714 -0.622787
Zn1   Zn    Zn3+2 0.471390 0.381080 0.476380 0.982415
Zn2   Zn    Zn3+2 0.528610 0.618920 0.523620 0.950878

loop_
_geom_bond_atom_site_label_1
_geom_bond_atom_site_label_2
_ccdc_geom_bond_type
C33   H11   S    
C9    H1    S    
C1    O3    A    
C41   C42   A    
C1    C11   S    
C37   H20   S    
C23   H8    S    
C7    C8    A    
C5    C9    A    
C12   C23   S    
C28   H2    S    
C29   C30   S    
C35   H14   S    
C23   C29   S    
C36   C37   S    
C30   C31   S    
C20   C25   A    
C9    C39   A    
C26   N1    A    
C35   H15   S    
C18   C19   A    
C36   O2    S    
C42   H12   S    
O1    Zn1   S    
C40   Cl1   S    
C37   H21   S    
C6    C38   A    
C25   H27   S    
C22   H25   S    
C18   C20   A    
O7    Zn2   S    
C28   C34   S    
C21   C22   A    
C12   C32   S    
C27   C30   S    
C15   H4    S    
C36   H18   S    
C37   H19   S    
C19   N2    A    
C4    C34   S    
C10   Cl2   S    
C1    O1    A    
C4    O5    A    
C3    C8    A    
C10   C39   A    
C16   O6    A    
C32   C34   S    
C4    O4    A    
O6    Zn1   S    
C31   C32   S    
C38   H10   S    
C23   C34   S    
N1    Zn1   S    
C17   C18   A    
C13   C21   A    
N2    Zn2   S    
C32   H6    S    
C41   H22   S    
C29   O10   S    
O4    Zn1   S    
C40   C41   A    
O3    Zn2   S    
C28   C31   S    
C22   C24   A    
C13   C26   A    
C2    C5    A    
C7    H9    S    
C36   H17   S    
C14   N2    A    
C12   H7    S    
C24   H5    S    
C15   C17   A    
C28   C29   S    
C33   H13   S    
C12   C30   S    
C14   H28   S    
C27   O8    A    
C17   H3    S    
C6    C7    A    
O8    Zn1   S    
C10   C38   A    
C26   H24   S    
C27   O9    A    
C2    C3    A    
C31   O2    S    
C5    C6    A    
C2    C42   A    
C16   O7    A    
C33   C35   S    
C19   C24   A    
C25   N1    A    
C11   C40   A    
C33   O10   S    
C3    C11   A    
C16   C39   S    
O9    Zn2   S    
C20   C21   A    
C8    H23   S    
C13   H26   S    
C14   C15   A    
C35   H16   S    
O5    Zn2   S    
