data_mof_unit_57487.cif
_audit_creation_date              2012-12-10T17:24:25-0500
_audit_creation_method            fapswitch 2.2
_symmetry_space_group_name_H-M    P1
_symmetry_Int_Tables_number       1
_space_group_crystal_system       triclinic
_cell_length_a                    31.672039
_cell_length_b                    18.256282
_cell_length_c                    25.754541
_cell_angle_alpha                 90.094554
_cell_angle_beta                  144.503574
_cell_angle_gamma                 89.93409
_cell_volume                      8646.84377505

loop_
_atom_site_label
_atom_site_type_symbol
_atom_type_description
_atom_site_fract_x
_atom_site_fract_y
_atom_site_fract_z
_atom_type_partial_charge
C1    C     C_R   0.859606 0.860726 0.110332 0.548490
C2    C     C_R   0.115962 0.347786 0.278512 0.205610
C3    C     C_R   0.753654 0.202049 0.049240 0.015493
C4    C     C_R   0.245624 0.306506 0.032500 0.045410
C5    C     C_R   0.762121 0.684407 0.980860 0.019726
C6    C     C_R   0.745744 0.296582 0.951833 0.043600
C7    C     C_R   0.249557 0.697667 0.041614 0.018239
C8    C     C_R   0.196591 0.195183 0.943569 0.013833
C9    C     C_R   0.803573 0.804321 0.054686 0.021617
C10   C     C_R   0.804017 0.195659 0.057537 0.013312
C11   C     C_R   0.196119 0.804195 0.943878 0.021905
C12   C     C_R   0.696814 0.694854 0.944373 0.014695
C13   C     C_R   0.162480 0.706355 0.283289 0.170602
C14   C     C_R   0.305550 0.302159 0.058164 0.023396
C15   C     C_R   0.302713 0.694610 0.054425 0.015715
C16   C     C_R   0.695550 0.303258 0.943485 0.021268
C17   C     C_R   0.956903 0.864691 0.005032 0.155625
C18   C     C_R   0.045020 0.134580 0.997204 0.149794
C19   C     C_R   0.456276 0.365204 0.003933 0.144258
C20   C     C_R   0.545221 0.634907 0.997185 0.149975
C21   C     C_R   0.949627 0.800818 0.967197 0.138178
C22   C     C_R   0.055426 0.197373 0.038681 0.116665
C23   C     C_R   0.447772 0.301694 0.964615 0.127789
C24   C     C_R   0.837248 0.293559 0.716539 0.169629
C25   C     C_R   0.555750 0.697749 0.038672 0.115356
C26   C     C_R   0.964478 0.803731 0.929125 -0.125432
C27   C     C_R   0.040748 0.194792 0.076808 -0.132172
C28   C     C_R   0.462707 0.304648 0.926683 -0.127843
C29   C     C_R   0.541607 0.695114 0.077430 -0.132092
C30   C     C_R   0.982694 0.869630 0.924256 -0.125261
C31   C     C_R   0.019659 0.129622 0.078460 -0.121834
C32   C     C_R   0.481949 0.370348 0.923103 -0.124689
C33   C     C_R   0.520662 0.629898 0.079328 -0.121116
C34   C     C_R   0.988534 0.935046 0.959409 -0.030451
C35   C     C_R   0.383935 0.152286 0.721446 0.206676
C36   C     C_R   0.012283 0.064503 0.041565 -0.029320
C37   C     C_R   0.488263 0.435594 0.958896 -0.029926
C38   C     C_R   0.512831 0.564807 0.042001 -0.029419
C39   C     C_R   0.980618 0.932220 0.005695 0.016193
C40   C     C_R   0.020097 0.067358 0.995148 0.012933
C41   C     C_R   0.480398 0.432679 0.005214 0.013779
C42   C     C_R   0.520405 0.567711 0.995324 0.012678
C43   C     C_R   0.003591 0.002669 0.950089 0.031075
C44   C     C_R   0.996475 0.997072 0.050060 0.033074
C45   C     C_R   0.503617 0.503134 0.949986 0.031602
C46   C     C_R   0.615998 0.847820 0.278623 0.205305
C47   C     C_R   0.496644 0.497393 0.050104 0.031795
C48   C     C_R   0.999367 0.995579 0.108507 0.536825
C49   C     C_R   0.000638 0.004211 0.891541 0.534760
C50   C     C_R   0.499390 0.495819 0.108474 0.536369
C51   C     C_R   0.500641 0.504643 0.891479 0.535341
C52   C     C_R   0.000140 0.000133 0.391798 0.524859
C53   C     C_R   0.999968 0.999876 0.608312 0.527337
C54   C     C_R   0.499858 0.499997 0.391485 0.528231
C55   C     C_R   0.499879 0.500052 0.608198 0.523904
C56   C     C_3   0.058268 0.961557 0.540914 -0.112321
C57   C     C_R   0.662410 0.207268 0.282866 0.176852
C58   C     C_3   0.941966 0.038584 0.459360 -0.147897
C59   C     C_3   0.996046 0.929902 0.512963 -0.094670
C60   C     C_3   0.004169 0.070227 0.487218 -0.130075
C61   C     C_3   0.512107 0.431169 0.494810 -0.090380
C62   C     C_3   0.487038 0.569292 0.504188 -0.128288
C63   C     C_3   0.446582 0.454760 0.463747 -0.107130
C64   C     C_3   0.552467 0.545734 0.535041 -0.141703
C65   C     C_3   0.060071 0.030254 0.577338 0.090208
C66   C     C_3   0.940153 0.969896 0.422897 0.097903
C67   C     C_3   0.562789 0.477732 0.579697 0.095954
C68   C     C_R   0.336859 0.793635 0.716246 0.168915
C69   C     C_3   0.436356 0.522821 0.419151 0.090571
C70   C     C_3   0.999487 0.999447 0.550702 0.061424
C71   C     C_3   0.000761 0.000617 0.449553 0.066400
C72   C     C_3   0.499047 0.500505 0.550190 0.065393
C73   C     C_3   0.500146 0.499827 0.448846 0.066095
C74   C     C_R   0.266442 0.116623 0.571487 -0.116337
C75   C     C_R   0.733768 0.883189 0.428500 -0.115710
C76   C     C_R   0.770789 0.159959 0.432214 -0.091967
C77   C     C_R   0.229165 0.840758 0.567469 -0.099058
C78   C     C_R   0.766620 0.616570 0.571605 -0.116470
C79   C     C_R   0.878308 0.719708 0.690021 0.129872
C80   C     C_R   0.233621 0.383283 0.428432 -0.115667
C81   C     C_R   0.270460 0.659005 0.432226 -0.090266
C82   C     C_R   0.729434 0.340722 0.567782 -0.099189
C83   C     C_R   0.328197 0.100907 0.662258 0.079520
C84   C     C_R   0.672009 0.898934 0.337745 0.079345
C85   C     C_R   0.725305 0.163661 0.343665 0.090396
C86   C     C_R   0.274719 0.837159 0.655962 0.118131
C87   C     C_R   0.828401 0.600865 0.662384 0.079319
C88   C     C_R   0.171858 0.399014 0.337664 0.079658
C89   C     C_R   0.224781 0.662470 0.343626 0.079735
C90   C     C_R   0.121578 0.280512 0.310091 0.128935
C91   C     C_R   0.775142 0.337119 0.656353 0.120944
C92   C     C_R   0.148443 0.749200 0.313311 0.146418
C93   C     C_R   0.140629 0.138984 0.889368 0.488904
C94   C     C_R   0.851687 0.250705 0.686768 0.109307
C95   C     C_R   0.378193 0.219660 0.689883 0.129915
C96   C     C_R   0.621538 0.780608 0.310212 0.129148
C97   C     C_R   0.648137 0.248979 0.313333 0.133519
C98   C     C_R   0.351450 0.750827 0.686614 0.109014
C99   C     C_R   0.815292 0.736179 0.595363 -0.019045
C100  C     C_R   0.184686 0.263899 0.404705 -0.018923
C101  C     C_R   0.200019 0.752823 0.406945 -0.014243
C102  C     C_R   0.800036 0.247102 0.593079 -0.000156
C103  C     C_R   0.315199 0.236171 0.595252 -0.018702
C104  C     C_R   0.141266 0.861688 0.889369 0.536267
C105  C     C_R   0.684710 0.763921 0.404807 -0.018517
C106  C     C_R   0.699968 0.252791 0.407004 -0.010988
C107  C     C_R   0.299904 0.747155 0.592978 -0.000030
C108  C     C_R   0.258577 0.183510 0.536240 -0.031823
C109  C     C_R   0.741465 0.816457 0.463784 -0.031140
C110  C     C_R   0.759516 0.203905 0.465660 -0.048505
C111  C     C_R   0.240416 0.796301 0.534183 -0.045683
C112  C     C_R   0.758687 0.683488 0.536348 -0.031695
C113  C     C_R   0.241391 0.316486 0.463702 -0.031631
C114  C     C_R   0.259415 0.703596 0.465667 -0.048898
C115  C     C_R   0.858481 0.137979 0.110939 0.485541
C116  C     C_R   0.740562 0.296275 0.534369 -0.046959
C117  C     C_R   0.805666 0.802405 0.557141 0.032226
C118  C     C_R   0.194340 0.197609 0.442896 0.031742
C119  C     C_R   0.193358 0.801246 0.443471 0.025679
C120  C     C_R   0.806633 0.198775 0.556431 0.028193
C121  C     C_R   0.305606 0.302416 0.557060 0.032208
C122  C     C_R   0.694393 0.697603 0.442997 0.031888
C123  C     C_R   0.693371 0.301198 0.443592 0.025969
C124  C     C_R   0.306591 0.698740 0.556464 0.028316
C125  C     C_R   0.722362 0.880003 0.030992 0.122466
C126  C     C_R   0.359459 0.360816 0.110812 0.539327
C127  C     C_R   0.271557 0.126918 0.951417 0.117211
C128  C     C_R   0.242517 0.841304 0.901794 0.109345
C129  C     C_R   0.755493 0.158543 0.097975 0.104942
C130  C     C_R   0.241796 0.357329 0.070817 0.105310
C131  C     C_R   0.776126 0.622336 0.961600 0.119656
C132  C     C_R   0.742497 0.340066 0.902197 0.109086
C133  C     C_R   0.244392 0.645662 0.078404 0.118701
C134  C     C_R   0.656115 0.887221 0.991001 -0.099594
C135  C     C_R   0.336996 0.121126 0.989714 -0.060657
C136  C     C_R   0.296645 0.835084 0.917931 -0.108094
C137  C     C_R   0.640839 0.638701 0.889536 0.489198
C138  C     C_R   0.698425 0.162374 0.076524 -0.072538
C139  C     C_R   0.176487 0.366477 0.032707 -0.097865
C140  C     C_R   0.843150 0.614980 0.003766 -0.062365
C141  C     C_R   0.795668 0.332529 0.916824 -0.105442
C142  C     C_R   0.192171 0.654299 0.064991 -0.065286
C143  C     C_R   0.116270 0.324148 0.960291 -0.123111
C144  C     C_R   0.896825 0.667236 0.063454 -0.143117
C145  C     C_R   0.852180 0.283426 0.979196 -0.123942
C146  C     C_R   0.143325 0.711637 0.014733 -0.135694
C147  C     C_R   0.604210 0.832612 0.936466 -0.124056
C148  C     C_R   0.641043 0.361311 0.889341 0.535587
C149  C     C_R   0.391366 0.172660 0.050394 -0.145242
C150  C     C_R   0.353680 0.786617 0.981041 -0.122827
C151  C     C_R   0.641241 0.210276 0.012135 -0.134309
C152  C     C_R   0.122302 0.268319 0.929911 -0.106071
C153  C     C_R   0.883717 0.728750 0.080382 -0.111233
C154  C     C_R   0.855222 0.239239 0.025838 -0.083950
C155  C     C_R   0.145121 0.760878 0.975764 -0.089733
C156  C     C_R   0.617693 0.769877 0.921205 -0.100913
C157  C     C_R   0.380372 0.232181 0.071821 -0.114051
C158  C     C_R   0.356211 0.741480 0.026702 -0.085141
C159  C     C_R   0.359020 0.638661 0.110423 0.483662
C160  C     C_R   0.640997 0.256767 0.969527 -0.087909
C161  C     C_R   0.187830 0.256582 0.967898 -0.014500
C162  C     C_R   0.816559 0.739249 0.039038 -0.023924
C163  C     C_R   0.801543 0.243455 0.011716 -0.013213
C164  C     C_R   0.197481 0.755007 0.987803 -0.020296
C165  C     C_R   0.684039 0.759772 0.960512 -0.015747
C166  C     C_R   0.314987 0.240915 0.034549 -0.020617
C167  C     C_R   0.301709 0.744408 0.011203 -0.014659
C168  C     C_R   0.696981 0.254455 0.987656 -0.019357
C169  C     C_R   0.138379 0.141261 0.387140 0.483883
C170  C     C_R   0.884096 0.652298 0.721578 0.206821
C171  C     C_R   0.861639 0.858731 0.612897 0.482294
C172  C     C_R   0.860630 0.140394 0.610656 0.484366
C173  C     C_R   0.139290 0.859544 0.389170 0.478099
C174  C     C_R   0.638425 0.641235 0.387224 0.483419
C175  C     C_R   0.361602 0.358747 0.612836 0.481990
C176  C     C_R   0.360700 0.640461 0.610815 0.484249
C177  C     C_R   0.639352 0.359582 0.389307 0.479794
C178  C     C_R   0.737461 0.815537 0.016008 0.048092
C179  C     C_R   0.259981 0.186546 0.975643 0.017263
C180  C     C_R   0.245730 0.797395 0.951265 0.044018
H1    H     H_    0.224655 0.074903 0.529242 0.128975
H2    H     H_    0.111919 0.110512 0.669464 0.241731
H3    H     H_    0.580866 0.682245 0.245414 0.230140
H4    H     H_    0.578389 0.336059 0.240242 0.252552
H5    H     H_    0.553006 0.266320 0.257084 0.234774
H6    H     H_    0.446999 0.731334 0.744376 0.238902
H7    H     H_    0.419557 0.662524 0.759316 0.261728
H8    H     H_    0.948574 0.660730 0.095726 0.156107
H9    H     H_    0.065627 0.332261 0.930201 0.138758
H10   H     H_    0.102731 0.717167 0.004313 0.128023
H11   H     H_    0.893459 0.278794 0.990702 0.134205
H12   H     H_    0.442211 0.166859 0.080504 0.171536
H13   H     H_    0.841896 0.922178 0.336244 0.227470
H14   H     H_    0.553088 0.838887 0.905654 0.133756
H15   H     H_    0.597708 0.212863 0.996817 0.131189
H16   H     H_    0.395560 0.782928 0.993514 0.135751
H17   H     H_    0.784471 0.947169 0.136977 0.227672
H18   H     H_    0.747865 0.986186 0.046579 0.229037
H19   H     H_    0.209005 0.039425 0.909493 0.252982
H20   H     H_    0.171311 0.096421 0.824941 0.259730
H21   H     H_    0.155346 0.869437 0.771492 0.241759
H22   H     H_    0.204720 0.940563 0.842592 0.244942
H23   H     H_    0.826060 0.072167 0.159627 0.240025
H24   H     H_    0.845764 0.976817 0.287897 0.229614
H25   H     H_    0.861321 0.148897 0.225908 0.275777
H26   H     H_    0.317785 0.368541 0.202641 0.239710
H27   H     H_    0.293784 0.447083 0.149986 0.245824
H28   H     H_    0.713010 0.535066 0.919052 0.261877
H29   H     H_    0.677202 0.590292 0.834494 0.247305
H30   H     H_    0.653820 0.367692 0.772268 0.271135
H31   H     H_    0.705676 0.439191 0.842797 0.239601
H32   H     H_    0.283050 0.549991 0.087180 0.244343
H33   H     H_    0.341155 0.594295 0.188599 0.265725
H34   H     H_    0.644899 0.936003 0.002405 0.111645
H35   H     H_    0.665644 0.442208 0.669848 0.242853
H36   H     H_    0.345699 0.075834 0.971905 0.138725
H37   H     H_    0.294176 0.868353 0.880703 0.117302
H38   H     H_    0.699594 0.128975 0.112434 0.125379
H39   H     H_    0.172969 0.405720 0.060675 0.118476
H40   H     H_    0.853482 0.568088 0.989340 0.133127
H41   H     H_    0.792894 0.365311 0.879066 0.118245
H42   H     H_    0.188843 0.615093 0.093122 0.131636
H43   H     H_    0.656642 0.497366 0.712510 0.226499
H44   H     H_    0.332801 0.557138 0.327317 0.242064
H45   H     H_    0.374815 0.597533 0.319243 0.239882
H46   H     H_    0.075072 0.234383 0.876359 0.126713
H47   H     H_    0.927111 0.768260 0.126372 0.120684
H48   H     H_    0.900707 0.201835 0.073455 0.133687
H49   H     H_    0.775719 0.924746 0.470702 0.128662
H50   H     H_    0.103824 0.803004 0.934904 0.129662
H51   H     H_    0.575043 0.729391 0.877653 0.126651
H52   H     H_    0.424532 0.270691 0.119686 0.123679
H53   H     H_    0.401635 0.703984 0.074157 0.132434
H54   H     H_    0.595445 0.293982 0.921081 0.126848
H55   H     H_    0.047093 0.243304 0.106939 0.146482
H56   H     H_    0.960509 0.755044 0.901302 0.140588
H57   H     H_    0.548117 0.743631 0.107695 0.145641
H58   H     H_    0.458006 0.256177 0.897972 0.141990
H59   H     H_    0.964311 0.817604 0.083070 0.259338
H60   H     H_    0.816024 0.122447 0.474527 0.158114
H61   H     H_    0.880749 0.849113 0.984333 0.237817
H62   H     H_    0.119676 0.150713 0.015545 0.260972
H63   H     H_    0.035848 0.182795 0.918021 0.245282
H64   H     H_    0.465946 0.317499 0.083566 0.256021
H65   H     H_    0.381714 0.348958 0.985777 0.242484
H66   H     H_    0.619322 0.651115 0.014611 0.260514
H67   H     H_    0.535365 0.683232 0.917504 0.245294
H68   H     H_    0.931871 0.689771 0.946424 0.220525
H69   H     H_    0.872615 0.737522 0.923174 0.227912
H70   H     H_    0.044179 0.305495 0.013002 0.222907
H71   H     H_    0.184218 0.878629 0.525322 0.154306
H72   H     H_    0.130566 0.277766 0.109668 0.236954
H73   H     H_    0.428391 0.190950 0.941864 0.224944
H74   H     H_    0.369282 0.239576 0.918289 0.230178
H75   H     H_    0.543713 0.805765 0.011987 0.224536
H76   H     H_    0.630336 0.778633 0.108603 0.239411
H77   H     H_    0.993519 0.868394 0.893873 0.123049
H78   H     H_    0.008673 0.131013 0.108645 0.123560
H79   H     H_    0.492931 0.369116 0.892901 0.124315
H80   H     H_    0.509967 0.631260 0.109836 0.123513
H81   H     H_    0.106563 0.931444 0.574638 0.137428
H82   H     H_    0.724863 0.574819 0.529363 0.128760
H83   H     H_    0.893656 0.068675 0.425611 0.138787
H84   H     H_    0.991190 0.872675 0.522188 0.137836
H85   H     H_    0.009049 0.127455 0.478024 0.132729
H86   H     H_    0.523975 0.375038 0.492386 0.139484
H87   H     H_    0.475182 0.625426 0.506621 0.135641
H88   H     H_    0.402340 0.418843 0.433980 0.121676
H89   H     H_    0.596715 0.581623 0.564790 0.119750
H90   H     H_    0.068148 0.373842 0.162287 0.230651
H91   H     H_    0.027900 0.410687 0.175091 0.248699
H92   H     H_    0.931740 0.626041 0.837653 0.228955
H93   H     H_    0.275500 0.424912 0.470657 0.128856
H94   H     H_    0.972367 0.589688 0.825202 0.249804
H95   H     H_    0.937113 0.313473 0.846337 0.247192
H96   H     H_    0.893477 0.240739 0.829048 0.251572
H97   H     H_    0.091267 0.653973 0.164503 0.228922
H98   H     H_    0.138102 0.723424 0.182957 0.225187
H99   H     H_    0.568061 0.873821 0.162306 0.231700
H100  H     H_    0.528019 0.910854 0.175328 0.251378
H101  H     H_    0.431614 0.126081 0.837554 0.230239
H102  H     H_    0.472152 0.089599 0.825022 0.247642
H103  H     H_    0.436586 0.813854 0.846000 0.247219
H104  H     H_    0.315439 0.621162 0.474416 0.158995
H105  H     H_    0.393219 0.740840 0.828843 0.251757
H106  H     H_    0.623385 0.173242 0.171894 0.217310
H107  H     H_    0.612307 0.262107 0.174756 0.241612
H108  H     H_    0.329342 0.990303 0.663115 0.242400
H109  H     H_    0.289787 0.028740 0.676146 0.235306
H110  H     H_    0.710627 0.970326 0.323662 0.232026
H111  H     H_    0.671485 0.009539 0.336976 0.245260
H112  H     H_    0.702707 0.083948 0.268373 0.236244
H113  H     H_    0.749265 0.157036 0.290997 0.232677
H114  H     H_    0.251365 0.844253 0.709023 0.249650
H115  H     H_    0.684455 0.378550 0.525658 0.155080
H116  H     H_    0.302143 0.913996 0.736650 0.255874
H117  H     H_    0.829641 0.490264 0.663248 0.243069
H118  H     H_    0.790054 0.528581 0.676277 0.233927
H119  H     H_    0.210372 0.470806 0.323679 0.236163
H120  H     H_    0.170995 0.509615 0.336821 0.243044
H121  H     H_    0.198556 0.585129 0.263906 0.232632
H122  H     H_    0.249334 0.655363 0.291827 0.230038
H123  H     H_    0.752124 0.344103 0.709774 0.250753
H124  H     H_    0.802705 0.413936 0.737144 0.252685
H125  H     H_    0.917741 0.818283 0.754328 0.230951
H126  H     H_    0.157545 0.079588 0.663150 0.229539
H127  H     H_    0.966809 0.777477 0.753294 0.252874
H128  H     H_    0.033066 0.223480 0.247466 0.255043
H129  H     H_    0.081314 0.182079 0.245464 0.230500
H130  H     H_    0.080540 0.837583 0.240691 0.259833
H131  H     H_    0.053130 0.768993 0.255823 0.226262
H132  H     H_    0.947192 0.230980 0.744445 0.238886
H133  H     H_    0.919682 0.162293 0.759409 0.261831
H134  H     H_    0.417795 0.318182 0.754230 0.231298
H135  H     H_    0.466569 0.277248 0.752820 0.251105
H136  H     H_    0.532994 0.723939 0.247853 0.255186
N1    N     N_3   0.126577 0.062986 0.664046 -0.623504
N2    N     N_3   0.081666 0.263990 0.042422 -0.661569
N3    N     N_3   0.424436 0.234135 0.964488 -0.633834
N4    N     N_3   0.581392 0.764470 0.041525 -0.654030
N5    N     N_3   0.052162 0.363301 0.184511 -0.599295
N6    N     N_3   0.947836 0.636875 0.815604 -0.600228
N7    N     N_3   0.886816 0.294453 0.809180 -0.637556
N8    N     N_3   0.111307 0.707020 0.189957 -0.580630
N9    N     N_3   0.552153 0.863390 0.184640 -0.598823
N10   N     N_3   0.447684 0.136835 0.815463 -0.603500
N11   N     N_3   0.386348 0.794580 0.808849 -0.637239
N12   N     N_3   0.874071 0.936365 0.336577 -0.604385
N13   N     N_3   0.610583 0.209505 0.188992 -0.584670
N14   N     N_3   0.333953 0.032606 0.694962 -0.653058
N15   N     N_3   0.666521 0.966998 0.304995 -0.650559
N16   N     N_3   0.744198 0.121544 0.317539 -0.670587
N17   N     N_3   0.257850 0.879976 0.684164 -0.651838
N18   N     N_3   0.834217 0.532528 0.695094 -0.653304
N19   N     N_3   0.166232 0.467193 0.304929 -0.657603
N20   N     N_3   0.242220 0.619767 0.316042 -0.669451
N21   N     N_3   0.758414 0.379882 0.684731 -0.655791
N22   N     N_3   0.937214 0.769636 0.757740 -0.628346
N23   N     N_3   0.632895 0.453138 0.669280 -0.647036
N24   N     N_3   0.062287 0.230929 0.242439 -0.629256
N25   N     N_3   0.077668 0.781480 0.244951 -0.622297
N26   N     N_3   0.922481 0.218395 0.755070 -0.678168
N27   N     N_3   0.437173 0.269495 0.757558 -0.631608
N28   N     N_3   0.562061 0.731192 0.242586 -0.629405
N29   N     N_3   0.576746 0.279796 0.245297 -0.634264
N30   N     N_3   0.422290 0.718646 0.754988 -0.679249
N31   N     N_3   0.773063 0.939060 0.086187 -0.616450
N32   N     N_3   0.218564 0.072076 0.886562 -0.654042
N33   N     N_3   0.183336 0.889851 0.831796 -0.598259
N34   N     N_3   0.366425 0.547143 0.329070 -0.628172
N35   N     N_3   0.816068 0.115222 0.175125 -0.654064
N36   N     N_3   0.305709 0.392336 0.154681 -0.599963
N37   N     N_3   0.723872 0.566863 0.897220 -0.670185
N38   N     N_3   0.683914 0.389367 0.833226 -0.599013
N39   N     N_3   0.287602 0.580967 0.125706 -0.658923
N40   N     N_3   0.936323 0.860857 0.037970 -0.602522
N41   N     N_3   0.064124 0.139049 0.962559 -0.594578
N42   N     N_3   0.437189 0.360869 0.038565 -0.603692
N43   N     N_3   0.563803 0.639415 0.961936 -0.596244
N44   N     N_3   0.927683 0.732964 0.968787 -0.631762
O1    O     O_3   0.999990 0.000000 0.249990 -0.446848
O2    O     O_R   0.585440 0.646160 0.804690 -0.549075
O3    O     O_R   0.585440 0.353840 0.804690 -0.520146
O4    O     O_R   0.414560 0.646160 0.195310 -0.553194
O5    O     O_R   0.085440 0.146150 0.366190 -0.547972
O6    O     O_R   0.914560 0.853850 0.633810 -0.549828
O7    O     O_R   0.914560 0.146150 0.633810 -0.554873
O8    O     O_R   0.085440 0.853850 0.366190 -0.557470
O9    O     O_R   0.585440 0.646150 0.366190 -0.547845
O10   O     O_R   0.414560 0.353850 0.633810 -0.550351
O11   O     O_R   0.414560 0.646150 0.633810 -0.554075
O12   O     O_3   0.000010 0.000000 0.750010 -0.445043
O13   O     O_R   0.585440 0.353850 0.366190 -0.557188
O14   O     O_R   0.853820 0.085430 0.073070 -0.536165
O15   O     O_R   0.146180 0.914570 0.926930 -0.546679
O16   O     O_R   0.146180 0.085430 0.926930 -0.531039
O17   O     O_R   0.853820 0.914570 0.073070 -0.517634
O18   O     O_R   0.353820 0.585430 0.073070 -0.542354
O19   O     O_R   0.646180 0.414570 0.926930 -0.543585
O20   O     O_R   0.646180 0.585430 0.926930 -0.534098
O21   O     O_R   0.353820 0.414570 0.073070 -0.533033
O22   O     O_R   0.146150 0.914540 0.365390 -0.540472
O23   O     O_3   0.499990 0.500000 0.249990 -0.446058
O24   O     O_R   0.853850 0.085460 0.634610 -0.538771
O25   O     O_R   0.853850 0.914540 0.634610 -0.544548
O26   O     O_R   0.146150 0.085460 0.365390 -0.543787
O27   O     O_R   0.646150 0.414540 0.365390 -0.540332
O28   O     O_R   0.353850 0.585460 0.634610 -0.539035
O29   O     O_R   0.353850 0.414540 0.634610 -0.544615
O30   O     O_R   0.646150 0.585460 0.365390 -0.543882
O31   O     O_R   0.939240 0.000000 0.071950 -0.521077
O32   O     O_R   0.060760 0.000000 0.928050 -0.518754
O33   O     O_R   0.439240 0.500000 0.071950 -0.518531
O34   O     O_3   0.500010 0.500000 0.750010 -0.445850
O35   O     O_R   0.560760 0.500000 0.928050 -0.518441
O36   O     O_R   0.000020 0.939290 0.367320 -0.517214
O37   O     O_R   0.999980 0.060710 0.632680 -0.541521
O38   O     O_R   0.999980 0.939290 0.632680 -0.540282
O39   O     O_R   0.000020 0.060710 0.367320 -0.555224
O40   O     O_R   0.500020 0.439290 0.367320 -0.535867
O41   O     O_R   0.499980 0.560710 0.632680 -0.551038
O42   O     O_R   0.499980 0.439290 0.632680 -0.523508
O43   O     O_R   0.500020 0.560710 0.367320 -0.545759
O44   O     O_R   0.060680 0.000000 0.193390 -0.546138
O45   O     O_R   0.914560 0.853840 0.195310 -0.527936
O46   O     O_R   0.939320 0.000000 0.806610 -0.548343
O47   O     O_R   0.560680 0.500000 0.193390 -0.547713
O48   O     O_R   0.439320 0.500000 0.806610 -0.548387
O49   O     O_R   0.085440 0.146160 0.804690 -0.552863
O50   O     O_R   0.085440 0.853840 0.804690 -0.517966
O51   O     O_R   0.914560 0.146160 0.195310 -0.559783
O52   O     O_R   0.414560 0.353840 0.195310 -0.516442
Zn1   Zn    Zn3+2 0.000000 0.086750 0.293940 0.907136
Zn2   Zn    Zn3+2 0.086780 0.000000 0.880710 0.935960
Zn3   Zn    Zn3+2 0.413220 0.500000 0.119290 0.935801
Zn4   Zn    Zn3+2 0.586780 0.500000 0.880710 0.935432
Zn5   Zn    Zn3+2 0.086730 0.000000 0.292800 0.919338
Zn6   Zn    Zn3+2 0.913270 0.000000 0.707200 0.918320
Zn7   Zn    Zn3+2 0.586730 0.500000 0.292800 0.918023
Zn8   Zn    Zn3+2 0.413270 0.500000 0.707200 0.917858
Zn9   Zn    Zn3+2 1.000000 0.913250 0.706060 0.929775
Zn10  Zn    Zn3+2 1.000000 0.086750 0.706060 0.918259
Zn11  Zn    Zn3+2 0.000000 0.913250 0.293940 0.943674
Zn12  Zn    Zn3+2 0.500000 0.586750 0.293940 0.915126
Zn13  Zn    Zn3+2 0.500000 0.413250 0.706060 0.933325
Zn14  Zn    Zn3+2 0.500000 0.586750 0.706060 0.917031
Zn15  Zn    Zn3+2 0.500000 0.413250 0.293940 0.935580
Zn16  Zn    Zn3+2 0.913220 0.000000 0.119290 0.940416

loop_
_geom_bond_atom_site_label_1
_geom_bond_atom_site_label_2
_ccdc_geom_bond_type
C21   C26   A    
H2    N1    S    
C58   H83   S    
O51   Zn1   S    
C30   H77   S    
H99   N9    S    
H96   N7    S    
C96   N28   S    
C60   H85   S    
C15   C167  A    
C130  N36   S    
C102  C120  A    
H27   N36   S    
C74   H1    S    
C79   C99   A    
O1    Zn16  S    
C7    C133  A    
C158  H53   S    
O6    Zn9   S    
H107  N13   S    
O19   Zn4   S    
C58   C60   S    
C29   C33   A    
H133  N26   S    
C17   C39   A    
C29   H57   S    
C2    C90   A    
C142  C146  A    
C62   C64   S    
C131  C140  A    
H64   N42   S    
C140  H40   S    
C40   C43   A    
O23   Zn12  S    
O45   Zn11  S    
C79   N22   S    
H95   N7    S    
C128  C180  A    
H28   N37   S    
O22   Zn5   S    
C74   C83   A    
H18   N31   S    
H21   N33   S    
H43   N23   S    
C7    C15   A    
C167  C180  A    
H23   N35   S    
H69   N44   S    
C160  H54   S    
C107  C124  A    
O9    Zn12  S    
C68   N11   S    
C52   O36   A    
C158  C167  A    
O39   Zn1   S    
C53   O37   A    
C25   C29   A    
H63   N41   S    
C27   C31   A    
C28   C32   A    
C5    C12   A    
C6    C132  A    
H24   N12   S    
H106  N13   S    
C58   C70   S    
C4    C130  A    
C136  H37   S    
C17   C21   A    
C82   C91   A    
O1    Zn11  S    
C42   C45   A    
C19   C23   A    
O28   Zn8   S    
C171  O6    A    
O13   Zn15  S    
O27   Zn7   S    
C57   C97   A    
C50   O33   A    
C20   N43   S    
C90   N24   S    
H30   N38   S    
H22   N33   S    
O48   Zn8   S    
C49   O46   A    
C46   C84   A    
H59   N40   S    
C60   C65   S    
O47   Zn7   S    
C22   C27   A    
H102  N10   S    
C36   C44   A    
H92   N6    S    
C37   C45   A    
C103  C121  A    
O29   Zn8   S    
C26   H56   S    
O23   Zn7   S    
C3    C129  A    
C21   N44   S    
C153  H47   S    
C43   C49   S    
C8    C93   S    
C35   N10   S    
C148  O19   A    
H130  N25   S    
C20   C42   A    
O21   Zn3   S    
H33   N39   S    
C138  C151  A    
C33   C38   A    
C14   C126  S    
C56   C59   S    
C173  O22   A    
C23   N3    S    
C56   H81   S    
C80   C88   A    
O38   Zn9   S    
C121  C175  S    
C84   N15   S    
C57   C85   A    
O25   Zn6   S    
C160  C168  A    
C4    C14   A    
C169  O26   A    
C68   C98   A    
O43   Zn12  S    
C6    C16   A    
H109  N14   S    
C46   C96   A    
C6    C163  A    
C94   C102  A    
C31   C36   A    
C55   O42   A    
H101  N10   S    
C174  O9    A    
C76   C85   A    
C44   C48   S    
C141  H41   S    
C18   N41   S    
C78   C87   A    
C116  C123  A    
O49   Zn10  S    
O34   Zn14  S    
C177  O27   A    
H134  N27   S    
O30   Zn7   S    
H111  N15   S    
C133  C142  A    
O44   Zn5   S    
C79   C170  A    
C127  N32   S    
C75   C84   A    
C94   N26   S    
H119  N19   S    
C65   C70   S    
H65   N42   S    
C111  C119  A    
C67   C72   S    
C18   C40   A    
H112  N16   S    
H17   N31   S    
C139  C143  A    
C63   C69   S    
C81   C114  A    
C175  O10   A    
C64   C73   S    
C174  O30   A    
O31   Zn16  S    
C152  C161  A    
C28   H58   S    
C78   H82   S    
O12   Zn10  S    
C95   C103  A    
H100  N9    S    
C47   C50   S    
C143  H9    S    
H20   N32   S    
C30   C34   A    
C34   C39   A    
C12   C165  A    
C118  C169  S    
C104  O50   A    
C122  C174  S    
C177  O13   A    
C133  N39   S    
C154  H48   S    
H31   N38   S    
C126  O52   A    
H125  N22   S    
C99   C117  A    
C61   C67   S    
H132  N26   S    
C135  H36   S    
C2    N5    S    
C150  H16   S    
H72   N2    S    
C41   C47   A    
H73   N3    S    
O7    Zn10  S    
C169  O5    A    
C32   C37   A    
H127  N22   S    
C145  C154  A    
O26   Zn5   S    
C26   C30   A    
O23   Zn3   S    
O3    Zn13  S    
C132  C141  A    
C105  C109  A    
O41   Zn14  S    
C176  O28   A    
C46   N9    S    
C18   C22   A    
C107  C111  A    
C34   C43   A    
C87   N18   S    
H118  N18   S    
C39   C44   A    
C124  C176  S    
C93   O16   A    
C141  C145  A    
C131  N37   S    
O52   Zn15  S    
C129  N35   S    
C127  C179  A    
C81   C89   A    
O15   Zn2   S    
C125  N31   S    
C80   H93   S    
C105  C122  A    
C31   H78   S    
H123  N21   S    
C37   C41   A    
C144  H8    S    
C97   N29   S    
C61   H86   S    
C88   N19   S    
C170  N6    S    
C139  H39   S    
C113  C121  A    
C80   C113  A    
C125  C178  A    
H116  N17   S    
O34   Zn8   S    
C85   N16   S    
H45   N34   S    
H105  N11   S    
C125  C134  A    
C96   C105  A    
C10   C163  A    
C22   N2    S    
H13   N12   S    
C123  C177  S    
H62   N41   S    
C109  C117  A    
C134  C147  A    
O40   Zn15  S    
O37   Zn10  S    
C86   N17   S    
C49   O32   A    
C127  C135  A    
C51   O48   A    
C126  O21   A    
C82   H115  S    
C128  C136  A    
H108  N14   S    
C20   C25   A    
C130  C139  A    
C172  O7    A    
H124  N21   S    
C147  H14   S    
C151  H15   S    
H128  N24   S    
C115  O51   A    
C146  C155  A    
O50   Zn9   S    
C69   C73   S    
C11   C104  S    
C132  N38   S    
C63   H88   S    
H75   N4    S    
H110  N15   S    
O32   Zn2   S    
C93   O49   A    
O4    Zn12  S    
C173  O8    A    
O16   Zn2   S    
C101  C114  A    
O2    Zn14  S    
H5    N29   S    
O11   Zn14  S    
C53   C70   S    
C48   O44   A    
C65   N1    S    
H70   N2    S    
C98   N30   S    
C17   N40   S    
C89   N20   S    
C1    C9    S    
H117  N18   S    
C35   C83   A    
C60   C71   S    
C61   C73   S    
O8    Zn11  S    
C175  O29   A    
C98   C107  A    
C62   C69   S    
C54   O43   A    
C128  N33   S    
C15   C159  S    
C54   C73   S    
C117  C171  S    
C48   O31   A    
C66   C71   S    
H66   N43   S    
C148  O3    A    
O24   Zn6   S    
C147  C156  A    
C92   C101  A    
C152  H46   S    
C97   C106  A    
C143  C152  A    
H44   N34   S    
C83   N14   S    
H97   N8    S    
O1    Zn5   S    
C55   O41   A    
C100  C118  A    
H103  N11   S    
C53   O38   A    
C150  C158  A    
C24   N7    S    
C50   O47   A    
H25   N35   S    
H120  N19   S    
C66   N12   S    
C140  C144  A    
C35   C95   A    
C7    C164  A    
C155  H50   S    
C134  H34   S    
H67   N43   S    
C153  C162  A    
C76   H60   S    
C5    C162  A    
C82   C116  A    
C92   N25   S    
C52   C71   S    
C119  C173  S    
H122  N20   S    
H6    N30   S    
C8    C179  A    
C91   N21   S    
C156  C165  A    
H90   N5    S    
H121  N20   S    
C4    C161  A    
O12   Zn6   S    
H135  N27   S    
C64   H89   S    
H19   N32   S    
C59   C70   S    
C74   C108  A    
O34   Zn4   S    
C5    C131  A    
O17   Zn16  S    
C63   C72   S    
C76   C110  A    
O42   Zn13  S    
C172  O24   A    
C78   C112  A    
C11   C180  A    
H32   N39   S    
C149  C157  A    
C13   N8    S    
C9    C178  A    
C19   C41   A    
C159  O18   A    
C59   C66   S    
C25   N4    S    
O10   Zn13  S    
C68   C86   A    
C54   O40   A    
C115  O14   A    
O5    Zn1   S    
H136  N28   S    
O12   Zn2   S    
H29   N37   S    
H129  N24   S    
C38   C42   A    
C8    C161  A    
C45   C51   S    
O23   Zn15  S    
C56   C65   S    
H91   N5    S    
O20   Zn4   S    
C171  O25   A    
C144  C153  A    
H4    N29   S    
C58   C66   S    
O1    Zn1   S    
C129  C138  A    
C77   C111  A    
C106  C123  A    
O18   Zn3   S    
C2    C88   A    
C103  C108  A    
C77   H71   S    
O14   Zn16  S    
C59   H84   S    
C159  O4    A    
C55   C72   S    
C27   H55   S    
C114  C124  A    
C56   C71   S    
O36   Zn11  S    
C145  H11   S    
O34   Zn13  S    
C165  C178  A    
H74   N3    S    
C81   H104  S    
C90   C100  A    
C3    C168  A    
O46   Zn6   S    
C1    O17   A    
C75   C109  A    
O33   Zn3   S    
C101  C119  A    
C64   C67   S    
C108  C118  A    
C154  C163  A    
C36   C40   A    
C137  O20   A    
C75   H49   S    
C110  C120  A    
H3    N28   S    
C120  C172  S    
H61   N40   S    
C135  C149  A    
C87   C170  A    
H26   N36   S    
C51   O35   A    
H131  N25   S    
C112  C122  A    
C24   C94   A    
C62   H87   S    
H68   N44   S    
C61   C63   S    
C62   C72   S    
H98   N8    S    
C38   C47   A    
H113  N16   S    
C77   C86   A    
C69   N34   S    
C19   N42   S    
O12   Zn9   S    
C23   C28   A    
C24   C91   A    
C106  C110  A    
C57   N13   S    
C149  H12   S    
C13   C89   A    
C137  O2    A    
C32   H79   S    
C100  C113  A    
H7    N30   S    
C157  C166  A    
O35   Zn4   S    
C136  C150  A    
C1    O45   A    
H114  N17   S    
C155  C164  A    
H94   N6    S    
C95   N27   S    
C16   C148  S    
C104  O15   A    
H35   N23   S    
C151  C160  A    
C13   C92   A    
C3    C10   A    
C67   N23   S    
C156  H51   S    
C16   C168  A    
C176  O11   A    
C99   C112  A    
C33   H80   S    
C11   C164  A    
C9    C162  A    
C52   O39   A    
C102  C116  A    
C138  H38   S    
C14   C166  A    
H126  N1    S    
C12   C137  S    
C146  H10   S    
C166  C179  A    
C142  H42   S    
C10   C115  S    
C157  H52   S    
H76   N4    S    
