data_mof_unit_68086.cif
_audit_creation_date              2013-03-05T15:51:47-0500
_audit_creation_method            fapswitch 2.2
_symmetry_space_group_name_H-M    P1
_symmetry_Int_Tables_number       1
_space_group_crystal_system       triclinic
_cell_length_a                    8.197264
_cell_length_b                    12.436014
_cell_length_c                    29.323493
_cell_angle_alpha                 89.962639
_cell_angle_beta                  88.37068
_cell_angle_gamma                 90.035496
_cell_volume                      2988.06487947

loop_
_atom_site_label
_atom_site_type_symbol
_atom_site_description
_atom_site_fract_x
_atom_site_fract_y
_atom_site_fract_z
_atom_type_partial_charge
O1    O     O_R   0.647170 0.849180 0.201220 -0.588632
O2    O     O_R   0.352830 0.150820 0.798780 -0.586777
O3    O     O_R   0.352830 0.150820 0.701220 -0.575324
O4    O     O_R   0.647170 0.849180 0.298780 -0.577028
O5    O     O_R   0.147170 0.650820 0.298780 -0.577436
O6    O     O_R   0.852830 0.349180 0.701220 -0.578973
O7    O     O_R   0.852830 0.349180 0.798780 -0.586302
O8    O     O_R   0.147170 0.650820 0.201220 -0.588771
O9    O     O_R   0.317430 0.862210 0.298450 -0.598169
O10   O     O_R   0.682570 0.137790 0.701550 -0.599881
O11   O     O_R   0.682570 0.137790 0.798450 -0.588037
O12   O     O_R   0.317430 0.862210 0.201550 -0.586677
O13   O     O_R   0.817430 0.637790 0.201550 -0.586702
O14   O     O_R   0.182570 0.362210 0.798450 -0.587219
O15   O     O_R   0.182570 0.362210 0.701550 -0.598323
O16   O     O_R   0.817430 0.637790 0.298450 -0.599164
C1    C     C_R   0.484038 0.877528 0.313885 0.873685
C2    C     C_R   0.515662 0.121783 0.686436 0.877665
C3    C     C_R   0.514573 0.118128 0.812663 0.865383
C4    C     C_R   0.485600 0.881939 0.187321 0.864953
C5    C     C_R   0.985548 0.617928 0.187359 0.863968
C6    C     C_R   0.014679 0.382444 0.812612 0.830553
C7    C     C_R   0.015828 0.377254 0.685914 0.849386
C8    C     C_R   0.984053 0.621972 0.313615 0.875802
H1    H     H_    0.074716 0.341924 0.594901 0.121351
H2    H     H_    0.936325 0.657175 0.403511 0.122614
H3    H     H_    0.996678 0.656908 0.099412 0.120302
H4    H     H_    0.996556 0.344681 0.900479 0.120141
H5    H     H_    0.505121 0.157204 0.900643 0.120469
H6    H     H_    0.498004 0.843315 0.099303 0.120134
H7    H     H_    0.440681 0.840685 0.404297 0.121835
H8    H     H_    0.573001 0.156332 0.596001 0.122653
O17   O     O_3   0.480630 0.680630 0.250000 -0.376937
O18   O     O_3   0.519370 0.319370 0.750000 -0.373333
O19   O     O_3   0.980630 0.819370 0.250000 -0.376471
O20   O     O_3   0.019370 0.180630 0.750000 -0.370026
V1    V     V_3+5 0.205800 0.762860 0.250000 1.087935
V2    V     V_3+5 0.794200 0.237140 0.750000 1.086112
V3    V     V_3+5 0.705800 0.737140 0.250000 1.087777
V4    V     V_3+5 0.294200 0.262860 0.750000 1.088877
H9    H     H_    0.984061 0.291386 0.532485 0.134424
H10   H     H_    0.014574 0.706781 0.466501 0.135147
H11   H     H_    0.998467 0.707060 0.033966 0.133920
H12   H     H_    0.005500 0.294009 0.966001 0.134296
H13   H     H_    0.505011 0.207215 0.966208 0.134318
H14   H     H_    0.500139 0.793703 0.033774 0.134522
H15   H     H_    0.513806 0.790886 0.468024 0.134128
H16   H     H_    0.483484 0.206330 0.533524 0.135650
C9    C     C_R   0.998392 0.544957 0.352067 -0.127876
C10   C     C_R   0.000525 0.452279 0.646435 -0.148095
C11   C     C_R   0.011494 0.464238 0.850309 -0.121111
C12   C     C_R   0.991081 0.537319 0.149365 -0.105898
C13   C     C_R   0.491355 0.962608 0.149339 -0.106055
C14   C     C_R   0.510215 0.037616 0.850648 -0.104147
C15   C     C_R   0.499821 0.045906 0.647665 -0.121825
C16   C     C_R   0.498473 0.954019 0.352715 -0.130752
C17   C     C_R   0.033651 0.358402 0.375063 -0.049970
C18   C     C_R   0.960000 0.637922 0.623324 -0.045726
C19   C     C_R   0.028191 0.652919 0.875728 -0.027136
C20   C     C_R   0.976853 0.348252 0.124653 -0.037158
C21   C     C_R   0.476992 0.151727 0.124755 -0.036692
C22   C     C_R   0.528154 0.848718 0.875255 -0.037403
C23   C     C_R   0.457964 0.860969 0.624888 -0.050783
C24   C     C_R   0.532703 0.140763 0.375919 -0.052252
C25   C     C_R   0.051285 0.441824 0.341879 -0.005893
C26   C     C_R   0.934852 0.553219 0.654689 -0.026959
C27   C     C_R   0.033917 0.574247 0.840463 -0.007059
C28   C     C_R   0.975581 0.428036 0.159740 -0.018065
C29   C     C_R   0.475690 0.071758 0.159786 -0.018589
C30   C     C_R   0.527408 0.928553 0.840188 -0.015606
C31   C     C_R   0.434033 0.945431 0.656934 -0.029361
C32   C     C_R   0.549985 0.057616 0.342600 -0.007246
C33   C     C_R   0.972539 0.574917 0.397662 -0.319313
C34   C     C_R   0.032657 0.423011 0.600920 -0.292589
C35   C     C_R   0.008413 0.430103 0.896010 -0.315337
C36   C     C_R   0.990302 0.571269 0.103793 -0.331572
C37   C     C_R   0.491250 0.928912 0.103742 -0.331505
C38   C     C_R   0.512232 0.071603 0.896206 -0.332116
C39   C     C_R   0.531038 0.075191 0.602069 -0.316797
C40   C     C_R   0.474683 0.923377 0.398440 -0.314042
C41   C     C_R   0.993711 0.500588 0.434146 0.124158
C42   C     C_R   0.005607 0.496912 0.564366 0.121151
C43   C     C_R   0.013578 0.502792 0.933856 0.104500
C44   C     C_R   0.987498 0.498188 0.066128 0.108975
C45   C     C_R   0.488693 0.002231 0.066118 0.109026
C46   C     C_R   0.516043 0.998494 0.933855 0.108871
C47   C     C_R   0.505418 0.001308 0.565605 0.123418
C48   C     C_R   0.495531 0.997546 0.435076 0.121399
C49   C     C_R   0.005113 0.387620 0.423054 0.000342
C50   C     C_R   0.991436 0.609918 0.575463 0.003228
C51   C     C_R   0.024673 0.616866 0.923859 0.002231
C52   C     C_R   0.978078 0.384073 0.076331 0.007185
C53   C     C_R   0.478694 0.116267 0.076408 0.007574
C54   C     C_R   0.526279 0.884434 0.923587 0.008291
C55   C     C_R   0.490884 0.888760 0.576962 0.008688
C56   C     C_R   0.505680 0.110814 0.424005 0.004105
C57   C     C_R   0.998885 0.536549 0.481135 0.048735
C58   C     C_R   0.999467 0.461045 0.517412 0.040378
C59   C     C_R   0.000486 0.464005 0.981258 0.048804
C60   C     C_R   0.000594 0.536879 0.018736 0.049918
C61   C     C_R   0.502518 0.963892 0.018692 0.049444
C62   C     C_R   0.502711 0.036983 0.981291 0.049348
C63   C     C_R   0.500246 0.036894 0.518533 0.046051
C64   C     C_R   0.500315 0.961379 0.482250 0.043627
C65   C     C_R   0.996205 0.351056 0.505926 -0.307946
C66   C     C_R   0.001463 0.646649 0.492782 -0.310258
C67   C     C_R   0.003967 0.647344 0.007622 -0.308031
C68   C     C_R   0.998378 0.353577 0.992421 -0.310026
C69   C     C_R   0.499281 0.147374 0.992548 -0.308734
C70   C     C_R   0.505747 0.853560 0.007449 -0.309368
C71   C     C_R   0.502012 0.851258 0.494199 -0.308123
C72   C     C_R   0.496658 0.146782 0.506982 -0.309892
C73   C     C_R   0.996745 0.312684 0.460685 0.004388
C74   C     C_R   0.998928 0.684832 0.538062 0.004319
C75   C     C_R   0.021174 0.688165 0.962744 -0.011061
C76   C     C_R   0.981737 0.312749 0.037384 -0.011906
C77   C     C_R   0.482183 0.187905 0.037524 -0.012866
C78   C     C_R   0.522617 0.813006 0.962501 -0.012554
C79   C     C_R   0.499262 0.813465 0.539684 0.003900
C80   C     C_R   0.497547 0.185386 0.461759 0.002963
C81   C     C_R   0.994499 0.192816 0.456197 0.092028
C82   C     C_R   0.113483 0.129931 0.476540 -0.193225
C83   C     C_R   0.127462 0.020285 0.465877 -0.050222
C84   C     C_R   0.021293 0.971528 0.436117 -0.140207
C85   C     C_R   0.891566 0.030315 0.420093 -0.095128
C86   C     C_R   0.877227 0.139339 0.431168 -0.124267
H17   H     H_    0.191840 0.165689 0.501108 0.140589
H18   H     H_    0.206672 0.969417 0.484365 0.146063
H19   H     H_    0.033474 0.887035 0.427924 0.103005
H20   H     H_    0.808051 0.992727 0.397260 0.144723
H21   H     H_    0.787537 0.184771 0.415645 0.118669
C87   C     C_R   0.002093 0.804351 0.542923 0.091121
C88   C     C_R   0.118271 0.856583 0.568766 -0.128758
C89   C     C_R   0.105544 0.965892 0.579579 -0.100383
C90   C     C_R   0.977857 0.025679 0.563000 -0.140945
C91   C     C_R   0.872170 0.977730 0.532901 -0.052915
C92   C     C_R   0.885207 0.868118 0.522115 -0.191432
H22   H     H_    0.207044 0.810292 0.584375 0.117509
H23   H     H_    0.188813 0.003340 0.602469 0.142379
H24   H     H_    0.966893 0.110300 0.571089 0.103642
H25   H     H_    0.794063 0.029154 0.514303 0.146131
H26   H     H_    0.807348 0.833025 0.497234 0.140129
C93   C     C_R   0.023870 0.807945 0.959713 0.094016
C94   C     C_R   0.892424 0.868027 0.976720 -0.190568
C95   C     C_R   0.879759 0.977616 0.966049 -0.046821
C96   C     C_R   0.999298 0.029102 0.939994 -0.135142
C97   C     C_R   0.138030 0.972546 0.927286 -0.084029
C98   C     C_R   0.152021 0.863722 0.938498 -0.120973
H27   H     H_    0.805649 0.830214 0.999574 0.141770
H28   H     H_    0.790450 0.027156 0.982060 0.143701
H29   H     H_    0.987246 0.113169 0.931150 0.098024
H30   H     H_    0.224518 0.010797 0.904773 0.151296
H31   H     H_    0.249242 0.819272 0.924539 0.120801
C99   C     C_R   0.980483 0.192996 0.040383 0.095234
C100  C     C_R   0.853059 0.136524 0.061614 -0.117017
C101  C     C_R   0.867450 0.027431 0.072263 -0.085783
C102  C     C_R   0.006685 0.971613 0.059395 -0.136788
C103  C     C_R   0.125687 0.023909 0.033447 -0.046631
C104  C     C_R   0.112146 0.133563 0.023066 -0.191762
H32   H     H_    0.755687 0.180367 0.075799 0.120881
H33   H     H_    0.780639 0.988202 0.094402 0.150049
H34   H     H_    0.019366 0.887419 0.067933 0.097858
H35   H     H_    0.215152 0.974939 0.017217 0.144319
H36   H     H_    0.198716 0.171943 0.000299 0.141635
C105  C     C_R   0.480115 0.307725 0.040592 0.095025
C106  C     C_R   0.611367 0.367797 0.023315 -0.190803
C107  C     C_R   0.624140 0.477483 0.033745 -0.046221
C108  C     C_R   0.504863 0.529167 0.059746 -0.136988
C109  C     C_R   0.366172 0.472698 0.072643 -0.085981
C110  C     C_R   0.352383 0.363677 0.061857 -0.117287
H37   H     H_    0.698025 0.329916 0.000478 0.141770
H38   H     H_    0.713161 0.526971 0.017528 0.144173
H39   H     H_    0.516938 0.613364 0.068327 0.097842
H40   H     H_    0.279212 0.511372 0.094863 0.150426
H41   H     H_    0.254998 0.319597 0.075893 0.120734
C111  C     C_R   0.523283 0.693330 0.959507 0.094881
C112  C     C_R   0.650523 0.636826 0.938333 -0.116390
C113  C     C_R   0.635381 0.527767 0.927705 -0.088599
C114  C     C_R   0.495916 0.472066 0.940602 -0.139593
C115  C     C_R   0.377243 0.524437 0.966543 -0.046482
C116  C     C_R   0.391250 0.634066 0.976829 -0.191778
H42   H     H_    0.747824 0.680859 0.923987 0.121166
H43   H     H_    0.721430 0.488551 0.905439 0.150543
H44   H     H_    0.482848 0.387894 0.932095 0.098660
H45   H     H_    0.287755 0.475543 0.982871 0.144528
H46   H     H_    0.304845 0.672528 0.999583 0.141640
C117  C     C_R   0.500036 0.693901 0.545093 0.090985
C118  C     C_R   0.382541 0.630441 0.524477 -0.191866
C119  C     C_R   0.369339 0.520752 0.535164 -0.051829
C120  C     C_R   0.473871 0.472662 0.565499 -0.137438
C121  C     C_R   0.601947 0.532120 0.581993 -0.098894
C122  C     C_R   0.616005 0.641209 0.570855 -0.122433
H47   H     H_    0.305750 0.665567 0.499363 0.140781
H48   H     H_    0.292518 0.469268 0.516212 0.145666
H49   H     H_    0.462638 0.387964 0.573495 0.103576
H50   H     H_    0.685608 0.494243 0.604616 0.140824
H51   H     H_    0.705618 0.687184 0.586234 0.118755
C123  C     C_R   0.494121 0.305297 0.457592 0.092555
C124  C     C_R   0.376507 0.358664 0.432644 -0.123830
C125  C     C_R   0.390135 0.467994 0.421945 -0.095006
C126  C     C_R   0.519049 0.527077 0.438358 -0.141122
C127  C     C_R   0.625184 0.478282 0.468133 -0.052417
C128  C     C_R   0.611959 0.368399 0.478414 -0.192227
H52   H     H_    0.286991 0.313085 0.416980 0.118366
H53   H     H_    0.306822 0.505651 0.399068 0.144111
H54   H     H_    0.530755 0.611725 0.430365 0.102596
H55   H     H_    0.704321 0.529018 0.486782 0.145608
H56   H     H_    0.690516 0.332534 0.502926 0.139901
N1    N     N_3   0.837773 0.571437 0.695338 -0.202630
H57   H     H_    0.736061 0.521458 0.693700 0.170823
H58   H     H_    0.903416 0.548665 0.723513 0.067103
N2    N     N_3   0.109909 0.422801 0.295585 -0.231657
H59   H     H_    0.211285 0.471634 0.289631 0.148984
H60   H     H_    0.156672 0.346463 0.290241 0.115480
N3    N     N_3   0.952406 0.401144 0.207296 -0.231762
H61   H     H_    0.828193 0.393095 0.215337 0.120545
H62   H     H_    0.016213 0.332088 0.216135 0.106458
N4    N     N_3   0.075224 0.608040 0.794474 -0.225296
H63   H     H_    0.108956 0.545998 0.772299 0.103096
H64   H     H_    0.979319 0.651978 0.781277 0.091019
N5    N     N_3   0.550500 0.902049 0.792578 -0.231478
H65   H     H_    0.674470 0.891963 0.784812 0.117705
H66   H     H_    0.484642 0.833968 0.783631 0.105400
N6    N     N_3   0.452758 0.098302 0.207378 -0.231698
H67   H     H_    0.328586 0.106075 0.215505 0.120672
H68   H     H_    0.516702 0.167280 0.216289 0.105632
N7    N     N_3   0.608326 0.077061 0.296288 -0.231589
H69   H     H_    0.709926 0.028556 0.290269 0.149487
H70   H     H_    0.655120 0.153395 0.290976 0.115383
N8    N     N_3   0.351638 0.929713 0.700759 -0.226747
H71   H     H_    0.245016 0.975389 0.700487 0.160437
H72   H     H_    0.308088 0.852234 0.705830 0.124097
C129  C     C_R   0.032411 0.247275 0.354798 0.133399
C130  C     C_R   0.937582 0.231406 0.316275 -0.157845
C131  C     C_R   0.968130 0.145854 0.287461 -0.233527
C132  C     C_R   0.065322 0.061352 0.300249 -0.072016
C133  C     C_R   0.143851 0.068136 0.341114 -0.103491
C134  C     C_R   0.140746 0.163904 0.365766 -0.143983
H73   H     H_    0.858314 0.293650 0.304021 0.144731
H74   H     H_    0.909995 0.145513 0.256092 0.142432
H75   H     H_    0.079003 0.991727 0.278721 0.180374
H76   H     H_    0.206221 0.999587 0.353907 0.156573
H77   H     H_    0.217115 0.167128 0.394255 0.131513
C135  C     C_R   0.953280 0.747023 0.646442 0.151836
C136  C     C_R   0.855167 0.834727 0.633879 -0.147920
C137  C     C_R   0.851066 0.929144 0.659598 -0.098704
C138  C     C_R   0.910984 0.929664 0.703185 -0.103583
C139  C     C_R   0.990809 0.839400 0.718345 -0.246262
C140  C     C_R   0.027716 0.755399 0.689023 -0.123328
H78   H     H_    0.786354 0.835779 0.603814 0.132775
H79   H     H_    0.797602 0.000460 0.646051 0.156842
H80   H     H_    0.894462 0.998310 0.725316 0.181704
H81   H     H_    0.026978 0.833527 0.752413 0.160498
H82   H     H_    0.101295 0.690923 0.702071 0.131562
C141  C     C_R   0.034329 0.769928 0.858703 0.118278
C142  C     C_R   0.159468 0.809415 0.828705 -0.195600
C143  C     C_R   0.162844 0.916785 0.814095 -0.151718
C144  C     C_R   0.035983 0.985289 0.825519 -0.091501
C145  C     C_R   0.906507 0.947281 0.851735 -0.121751
C146  C     C_R   0.908201 0.842683 0.869020 -0.128777
H83   H     H_    0.250416 0.757649 0.813734 0.147346
H84   H     H_    0.255025 0.945007 0.790215 0.148589
H85   H     H_    0.039531 0.068315 0.815331 0.175376
H86   H     H_    0.814769 0.003320 0.863145 0.156308
H87   H     H_    0.814994 0.821162 0.892691 0.127868
C147  C     C_R   0.972357 0.231268 0.141450 0.113178
C148  C     C_R   0.098586 0.158775 0.130825 -0.123124
C149  C     C_R   0.100123 0.053572 0.147453 -0.115902
C150  C     C_R   0.969920 0.014364 0.172932 -0.088041
C151  C     C_R   0.841717 0.082061 0.183723 -0.140123
C152  C     C_R   0.846871 0.190589 0.170820 -0.206585
H88   H     H_    0.191421 0.180418 0.107190 0.126095
H89   H     H_    0.191285 0.997756 0.135623 0.154314
H90   H     H_    0.965886 0.930825 0.182570 0.169550
H91   H     H_    0.746784 0.052067 0.206290 0.140485
H92   H     H_    0.754702 0.241269 0.185635 0.128498
C153  C     C_R   0.472243 0.268516 0.141635 0.113080
C154  C     C_R   0.346972 0.308701 0.171170 -0.205321
C155  C     C_R   0.341754 0.417074 0.184168 -0.142110
C156  C     C_R   0.469682 0.485092 0.173270 -0.087316
C157  C     C_R   0.599729 0.446310 0.147638 -0.115381
C158  C     C_R   0.598280 0.341209 0.130959 -0.123596
H93   H     H_    0.254770 0.257802 0.185922 0.128794
H94   H     H_    0.246750 0.446811 0.206726 0.140046
H95   H     H_    0.465503 0.568569 0.182933 0.169898
H96   H     H_    0.690707 0.502344 0.135784 0.154395
H97   H     H_    0.690998 0.319611 0.107266 0.126143
C159  C     C_R   0.533787 0.731810 0.858438 0.107936
C160  C     C_R   0.407256 0.659186 0.868737 -0.117964
C161  C     C_R   0.405937 0.554083 0.851981 -0.092266
C162  C     C_R   0.536808 0.515077 0.826754 -0.097335
C163  C     C_R   0.665695 0.582725 0.816379 -0.134459
C164  C     C_R   0.660692 0.691179 0.829565 -0.214156
H98   H     H_    0.314047 0.680843 0.892269 0.123066
H99   H     H_    0.314358 0.498052 0.863562 0.151371
H100  H     H_    0.540761 0.431669 0.816972 0.170296
H101  H     H_    0.760932 0.552741 0.794002 0.131331
H102  H     H_    0.753139 0.741900 0.814830 0.132152
C165  C     C_R   0.459800 0.751852 0.646925 0.122102
C166  C     C_R   0.549819 0.741970 0.686792 -0.127545
C167  C     C_R   0.518979 0.659436 0.717109 -0.206778
C168  C     C_R   0.422734 0.572966 0.705549 -0.101744
C169  C     C_R   0.348787 0.574258 0.663798 -0.114172
C170  C     C_R   0.352892 0.666841 0.637097 -0.142842
H103  H     H_    0.626446 0.806247 0.698295 0.147754
H104  H     H_    0.578452 0.662190 0.748235 0.153039
H105  H     H_    0.409640 0.504843 0.728174 0.176019
H106  H     H_    0.289488 0.503919 0.651720 0.162355
H107  H     H_    0.280065 0.665508 0.607782 0.132049
C171  C     C_R   0.532507 0.252502 0.355784 0.130996
C172  C     C_R   0.640183 0.336005 0.367304 -0.142864
C173  C     C_R   0.643399 0.432491 0.343070 -0.102542
C174  C     C_R   0.566296 0.440101 0.302024 -0.073728
C175  C     C_R   0.470625 0.355546 0.288516 -0.232950
C176  C     C_R   0.439246 0.269237 0.316949 -0.156756
H108  H     H_    0.715453 0.332592 0.396025 0.131534
H109  H     H_    0.704735 0.501053 0.356289 0.155456
H110  H     H_    0.579962 0.510378 0.280857 0.181835
H111  H     H_    0.414740 0.356502 0.256777 0.142543
H112  H     H_    0.361068 0.207143 0.304074 0.144169

loop_
_geom_bond_atom_site_label_1
_geom_bond_atom_site_label_2
_geom_bond_distance
_ccdc_geom_bond_type
C136  H78   1.060129 S    
C102  C103  1.381964 A    
O5    V1    2.043496 S    
C162  C163  1.377249 A    
C13   C29   1.396904 A    
C70   C78   1.414660 A    
C39   C47   1.430178 A    
C95   C96   1.381987 A    
C174  H110  1.075586 S    
C167  C168  1.381429 A    
C115  C116  1.401848 A    
C125  H53   1.077858 S    
H9    C65   1.077896 S    
C133  H76   1.067647 S    
H13   C69   1.072264 S    
C93   C94   1.392454 A    
C135  C136  1.410528 A    
C22   C30   1.429056 A    
H1    C34   1.078937 S    
C121  H50   1.076162 S    
C119  H48   1.065458 S    
H5    C38   1.073956 S    
C16   C32   1.384845 A    
C109  H40   1.066957 S    
C76   C99   1.491809 S    
C85   C86   1.398633 A    
C124  C125  1.398845 A    
C136  C137  1.395819 A    
C42   C58   1.449802 A    
C163  H101  1.072673 S    
C93   C98   1.390340 A    
C33   C41   1.427772 A    
C49   C73   1.443975 A    
C127  C128  1.402639 A    
C19   C141  1.538406 S    
C121  C122  1.399112 A    
C44   C60   1.471349 A    
H7    C40   1.077676 S    
C72   C80   1.409843 A    
C55   C79   1.440009 A    
C87   C92   1.397417 A    
C138  H80   1.078956 S    
C63   C72   1.408228 A    
N3    H61   1.043334 S    
C31   N8    1.447769 S    
C91   H25   1.065954 S    
C148  H88   1.049487 S    
N7    H69   1.039726 S    
C14   C30   1.397085 A    
O12   C4    1.449617 A    
O13   C5    1.449591 A    
C19   C51   1.480071 A    
N8    H72   1.036490 S    
C52   C76   1.446151 A    
C99   C100  1.390454 A    
C47   C63   1.451030 A    
C108  C109  1.379462 A    
C23   C31   1.419803 A    
H14   C70   1.072062 S    
C124  H52   1.043885 S    
C9    C33   1.398549 A    
C98   H31   1.044287 S    
C166  C167  1.376007 A    
C96   C97   1.379873 A    
C157  H96   1.070926 S    
O1    C4    1.455110 A    
O2    C3    1.456033 A    
C27   N4    1.443236 S    
C94   C95   1.402692 A    
O7    C6    1.458067 A    
C43   C51   1.450683 A    
O10   V2    2.111187 S    
C40   C48   1.430262 A    
O10   C2    1.463638 A    
H15   C71   1.076469 S    
C50   C74   1.438498 A    
C22   C159  1.535826 S    
O1    V3    2.062942 S    
O2    V4    2.062940 S    
N2    H59   1.039630 S    
C100  C101  1.397771 A    
C62   C69   1.412266 A    
H4    C35   1.074290 S    
C102  H34   1.082157 S    
C15   C31   1.384331 A    
C112  H42   1.045502 S    
C166  H103  1.076600 S    
C153  C158  1.400969 A    
C120  C121  1.382496 A    
C131  H74   1.047954 S    
C97   C98   1.398041 A    
C57   C58   1.418547 A    
C83   C84   1.389193 A    
C59   C68   1.411533 A    
C176  H112  1.078446 S    
C150  H90   1.076711 S    
C65   C73   1.410002 A    
C147  C152  1.415690 A    
C10   C34   1.401396 A    
C30   N5    1.441931 S    
C132  C133  1.378892 A    
C71   C79   1.413438 A    
C143  C144  1.378782 A    
C82   H17   1.075022 S    
C28   N3    1.441138 S    
C19   C27   1.423872 A    
C156  H95   1.076576 S    
C45   C53   1.451967 A    
C32   N7    1.447044 S    
C47   C55   1.442579 A    
O6    V2    2.043498 S    
C129  C130  1.403312 A    
C95   H28   1.057049 S    
C37   C45   1.431442 A    
C158  H97   1.050226 S    
C133  C134  1.393480 A    
N8    H71   1.042890 S    
C53   C77   1.446157 A    
C48   C64   1.455916 A    
C160  C161  1.396802 A    
C137  H79   1.070679 S    
C20   C52   1.484836 A    
C152  H92   1.067269 S    
C135  C140  1.409124 A    
C156  C157  1.374606 A    
C24   C56   1.468809 A    
C89   H23   1.076753 S    
C139  H81   1.052620 S    
C175  C176  1.378283 A    
C134  H77   1.058834 S    
C132  H75   1.075929 S    
N5    H65   1.042739 S    
N4    H64   1.041126 S    
C155  C156  1.377243 A    
N1    H57   1.041853 S    
C11   C27   1.408876 A    
C1    C16   1.491401 S    
C117  C122  1.394535 A    
C2    C15   1.486418 S    
C120  H49   1.082238 S    
C3    C14   1.496890 S    
H16   C72   1.077909 S    
C101  H33   1.067112 S    
C127  H55   1.066814 S    
C46   C62   1.472492 A    
C123  C128  1.398185 A    
C170  H107  1.060565 S    
C114  H44   1.082192 S    
C175  H111  1.049030 S    
C141  C146  1.401016 A    
N7    H70   1.033688 S    
C21   C153  1.534887 S    
C151  H91   1.073607 S    
C103  H35   1.056549 S    
C20   C147  1.535702 S    
C91   C92   1.402996 A    
C12   C36   1.401370 A    
C118  H47   1.075022 S    
C116  H46   1.072195 S    
C89   C90   1.383528 A    
C128  H56   1.075411 S    
C23   C165  1.502878 S    
C16   C40   1.401917 A    
C154  H93   1.067470 S    
O14   C6    1.448410 A    
C144  C145  1.376004 A    
C99   C104  1.392586 A    
C54   C78   1.445260 A    
C79   C117  1.495264 S    
C96   H29   1.082237 S    
C140  H82   1.079996 S    
C73   C81   1.496719 S    
C104  H36   1.072067 S    
C44   C52   1.451695 A    
C142  H83   1.070190 S    
C141  C142  1.419400 A    
C48   C56   1.447137 A    
C61   C62   1.423959 A    
C92   H26   1.075463 S    
N6    H67   1.043331 S    
C36   C44   1.431449 A    
C69   C77   1.415454 A    
C90   C91   1.388756 A    
O11   C3    1.448016 A    
C17   C49   1.466017 A    
C21   C53   1.484657 A    
C23   C55   1.464558 A    
H2    C33   1.077822 S    
C122  H51   1.043326 S    
C161  C162  1.374539 A    
C109  C110  1.397623 A    
O12   V1    2.074770 S    
C25   N2    1.446782 S    
C137  C138  1.382252 A    
H6    C37   1.073777 S    
C77   C105  1.492936 S    
C80   C123  1.496477 S    
C131  C132  1.377386 A    
C113  H43   1.066007 S    
C171  C176  1.404991 A    
C41   C49   1.444725 A    
C88   H22   1.043815 S    
C43   C59   1.472018 A    
C150  C151  1.376904 A    
C90   H24   1.082125 S    
C34   C42   1.433602 A    
C113  C114  1.379824 A    
C110  H41   1.042897 S    
C111  C116  1.392782 A    
C143  H84   1.074136 S    
C145  H86   1.072278 S    
C107  C108  1.381840 A    
C7    C10   1.494462 S    
C168  H105  1.079129 S    
O11   V2    2.074769 S    
C13   C37   1.401500 A    
C129  C134  1.408543 A    
C15   C39   1.402001 A    
C148  C149  1.396089 A    
H11   C67   1.071965 S    
C159  C164  1.416136 A    
C18   C50   1.462035 A    
C81   C82   1.397197 A    
C169  H106  1.066096 S    
C57   C66   1.411666 A    
N2    H60   1.034400 S    
O3    V4    2.045175 S    
C22   C54   1.485171 A    
C88   C89   1.399346 A    
C130  C131  1.377675 A    
H3    C36   1.073705 S    
C139  C140  1.381623 A    
C105  C110  1.390559 A    
C171  C172  1.409902 A    
C101  C102  1.379748 A    
C17   C25   1.426378 A    
C4    C13   1.498192 S    
C107  H38   1.056744 S    
C160  H98   1.050233 S    
C42   C50   1.446725 A    
C68   C76   1.415480 A    
O20   V2    1.975442 S    
C162  H100  1.076633 S    
C61   C70   1.411439 A    
C117  C118  1.395948 A    
H8    C39   1.078907 S    
C35   C43   1.433356 A    
C174  C175  1.376532 A    
C167  H104  1.047485 S    
C51   C75   1.444541 A    
C84   H19   1.082067 S    
C126  H54   1.081921 S    
C119  C120  1.387949 A    
O15   V4    2.110766 S    
O16   V3    2.110763 S    
C114  C115  1.381480 A    
C149  C150  1.374273 A    
C20   C28   1.429631 A    
C112  C113  1.398031 A    
C63   C64   1.419566 A    
C151  C152  1.401737 A    
C146  H87   1.051909 S    
C78   C111  1.490937 S    
C14   C38   1.401993 A    
C172  C173  1.394009 A    
C105  C106  1.392785 A    
C126  C127  1.389477 A    
C144  H85   1.074815 S    
C165  C166  1.405453 A    
C24   C171  1.509490 S    
C83   H18   1.065712 S    
C173  C174  1.378491 A    
O17   V3    1.974629 S    
C58   C65   1.409320 A    
C9    C25   1.384217 A    
C66   C74   1.410030 A    
O18   V4    1.974628 S    
C163  C164  1.403622 A    
O19   V1    1.975443 S    
C11   C35   1.404994 A    
N3    H62   1.042220 S    
C164  H102  1.067365 S    
O3    C2    1.438004 A    
C46   C54   1.452222 A    
C85   H20   1.077744 S    
C18   C26   1.409140 A    
C169  C170  1.391777 A    
C125  C126  1.384419 A    
C149  H89   1.070887 S    
C123  C124  1.394789 A    
C12   C28   1.397411 A    
C38   C46   1.430756 A    
O15   C7    1.466046 A    
C106  H37   1.071798 S    
O16   C8    1.461776 A    
C172  H108  1.058920 S    
H12   C68   1.072664 S    
C108  H39   1.082168 S    
C75   C93   1.492294 S    
C161  H99   1.071892 S    
C147  C148  1.401315 A    
C87   C88   1.394296 A    
C157  C158  1.396003 A    
C155  H94   1.073416 S    
C118  C119  1.402856 A    
C18   C135  1.517441 S    
C94   H27   1.071573 S    
H10   C66   1.076611 S    
C59   C60   1.424947 A    
O4    V3    2.045173 S    
C142  C143  1.402049 A    
O9    V1    2.111184 S    
O8    C5    1.455318 A    
C26   N1    1.432482 S    
C10   C26   1.384910 A    
C67   C75   1.413457 A    
O9    C1    1.463318 A    
C111  C112  1.389898 A    
C106  C107  1.402614 A    
O4    C1    1.440759 A    
C145  C146  1.395952 A    
C45   C61   1.471771 A    
C165  C170  1.407945 A    
C21   C29   1.429126 A    
C8    C9    1.486170 S    
C168  C169  1.381565 A    
C60   C67   1.411743 A    
C100  H32   1.043710 S    
C154  C155  1.401166 A    
C74   C87   1.493535 S    
C56   C80   1.444776 A    
N6    H68   1.042299 S    
C64   C71   1.413520 A    
C17   C129  1.504821 S    
C138  C139  1.379358 A    
C29   N6    1.441423 S    
C159  C160  1.401205 A    
C97   H30   1.066427 S    
C81   C86   1.394632 A    
N5    H66   1.041576 S    
N4    H63   1.041761 S    
C103  C104  1.402178 A    
O5    C8    1.439424 A    
C41   C57   1.450688 A    
C86   H21   1.042197 S    
O6    C7    1.440041 A    
N1    H58   1.038041 S    
O7    V2    2.063797 S    
C130  H73   1.078912 S    
C24   C32   1.427414 A    
O13   V3    2.076548 S    
C115  H45   1.056494 S    
O14   V4    2.076546 S    
O8    V1    2.063799 S    
C173  H109  1.068193 S    
C6    C11   1.502395 S    
C82   C83   1.403168 A    
C153  C154  1.415954 A    
C5    C12   1.498938 S    
C84   C85   1.383843 A    
