data_mof_unit_20992.cif
_audit_creation_date              2012-12-10T16:56:33-0500
_audit_creation_method            fapswitch 2.2
_symmetry_space_group_name_H-M    P1
_symmetry_Int_Tables_number       1
_space_group_crystal_system       triclinic
_cell_length_a                    7.774386
_cell_length_b                    8.579406
_cell_length_c                    15.695853
_cell_angle_alpha                 90.864825
_cell_angle_beta                  85.887633
_cell_angle_gamma                 93.63425
_cell_volume                      1042.0534901

loop_
_atom_site_label
_atom_site_type_symbol
_atom_type_description
_atom_site_fract_x
_atom_site_fract_y
_atom_site_fract_z
_atom_type_partial_charge
C1    C     C_R   0.545759 0.794716 0.497808 0.960838
C2    C     C_3   0.399886 0.376356 0.029767 -0.167478
C3    C     C_1   0.506424 0.499617 0.750833 -0.181026
C4    C     C_1   0.493576 0.500384 0.249166 -0.181026
C5    C     C_3   0.338657 0.508829 0.975768 -0.163975
C6    C     C_3   0.661343 0.491171 0.024231 -0.163975
C7    C     C_3   0.504064 0.499696 0.917239 0.212292
C8    C     C_3   0.495936 0.500304 0.082761 0.212292
C9    C     C_1   0.506938 0.499515 0.826213 -0.084673
C10   C     C_1   0.493062 0.500486 0.173787 -0.084672
C11   C     C_R   0.454241 0.205284 0.502192 0.960838
C12   C     C_R   0.502168 0.500040 0.661982 0.904377
C13   C     C_R   0.497832 0.499960 0.338018 0.904377
C14   C     C_2   0.569828 0.958197 0.496557 -0.379249
C15   C     C_2   0.430172 0.041803 0.503443 -0.379249
C16   C     C_3   0.434696 0.632779 0.030577 -0.165358
C17   C     C_3   0.565304 0.367221 0.969422 -0.165358
C18   C     C_3   0.600115 0.623644 0.970233 -0.167478
H1    H     H_    0.682132 0.724547 0.943674 0.131202
H2    H     H_    0.298261 0.990773 0.510012 0.180879
H3    H     H_    0.317869 0.275453 0.056326 0.131202
H4    H     H_    0.381116 0.741184 0.057792 0.131863
H5    H     H_    0.618884 0.258817 0.942208 0.131863
H6    H     H_    0.793162 0.483985 0.046251 0.132122
H7    H     H_    0.206838 0.516015 0.953749 0.132122
H8    H     H_    0.013357 0.381984 0.436421 0.192551
H9    H     H_    0.986643 0.618016 0.563579 0.192551
H10   H     H_    0.701739 0.009227 0.489987 0.180879
N1    N     N_2   0.950320 0.457950 0.477300 -0.172936
N2    N     N_2   0.049680 0.542050 0.522700 -0.172936
O1    O     O_R   0.389250 0.738570 0.505570 -0.613101
O2    O     O_R   0.610750 0.261430 0.494430 -0.613101
O3    O     O_R   0.678390 0.711630 0.491020 -0.630928
O4    O     O_R   0.321610 0.288370 0.508980 -0.630928
O5    O     O_R   0.355460 0.513480 0.630490 -0.611994
O6    O     O_R   0.644540 0.486520 0.369510 -0.611993
O7    O     O_R   0.644600 0.486540 0.615950 -0.621746
O8    O     O_R   0.355400 0.513460 0.384050 -0.621745
Zn1   Zn    Zn3+2 0.306940 0.517990 0.509710 0.946338
Zn2   Zn    Zn3+2 0.693060 0.482010 0.490290 0.946338

loop_
_geom_bond_atom_site_label_1
_geom_bond_atom_site_label_2
_ccdc_geom_bond_type
N2    Zn1   S    
O5    Zn1   S    
N1    N2    D    
C3    C9    T    
C1    C14   S    
O6    Zn2   S    
C7    C18   S    
C6    H6    S    
C2    H3    S    
C1    O3    A    
C8    C16   S    
C2    C17   S    
C13   O8    A    
C17   H5    S    
H8    N1    S    
C5    H7    S    
N1    Zn2   S    
C16   C18   S    
O1    Zn1   S    
C11   O2    A    
O7    Zn2   S    
O2    Zn2   S    
C15   H2    S    
C6    C18   S    
C12   O5    A    
C2    C5    S    
C4    C10   T    
O4    Zn1   S    
O3    Zn2   S    
C7    C9    S    
C1    O1    A    
O8    Zn1   S    
C13   O6    A    
C8    C10   S    
C18   H1    S    
C12   O7    A    
C4    C13   S    
C5    C7    S    
C6    C17   S    
C14   C15   D    
C5    C16   S    
C6    C8    S    
C3    C12   S    
C14   H10   S    
C11   C15   S    
C11   O4    A    
C2    C8    S    
C16   H4    S    
H9    N2    S    
C7    C17   S    
