data_mof_unit_49614.cif
_audit_creation_date              2013-03-05T16:04:38-0500
_audit_creation_method            fapswitch 2.2
_symmetry_space_group_name_H-M    P1
_symmetry_Int_Tables_number       1
_space_group_crystal_system       triclinic
_cell_length_a                    9.649465
_cell_length_b                    10.755383
_cell_length_c                    15.355542
_cell_angle_alpha                 87.985345
_cell_angle_beta                  74.197048
_cell_angle_gamma                 89.471541
_cell_volume                      1532.47304395

loop_
_atom_site_label
_atom_site_type_symbol
_atom_site_description
_atom_site_fract_x
_atom_site_fract_y
_atom_site_fract_z
_atom_type_partial_charge
O1    O     O_R   0.118740 0.319660 0.500000 -0.551050
O2    O     O_R   0.881260 0.680340 0.500000 -0.553286
O3    O     O_R   0.881170 0.319630 0.500010 -0.537783
O4    O     O_R   0.118830 0.680370 0.499990 -0.532288
C1    C     C_R   0.001346 0.262921 0.497840 0.835018
C2    C     C_R   0.998723 0.737106 0.502035 0.835112
O5    O     O_R   0.055570 0.500030 0.629830 -0.543981
O6    O     O_R   0.944430 0.499970 0.370170 -0.537148
O7    O     O_R   0.818000 0.500000 0.629840 -0.563970
O8    O     O_R   0.182000 0.500000 0.370160 -0.560431
C3    C     C_R   0.918317 0.496939 0.672414 0.847690
C4    C     C_R   0.082245 0.501911 0.327584 0.842620
Cu1   Cu    Cu3+1 0.140660 0.500020 0.500000 1.088543
Cu2   Cu    Cu3+1 0.859340 0.499980 0.500000 1.089160
C5    C     C_R   0.874671 0.488821 0.772022 -0.037969
C6    C     C_R   0.130961 0.522517 0.228748 -0.007516
C7    C     C_R   0.925857 0.432227 0.913703 -0.076062
C8    C     C_R   0.116530 0.642586 0.096169 -0.108559
C9    C     C_R   0.972807 0.452879 0.820381 -0.099422
C10   C     C_R   0.054160 0.600415 0.184535 -0.113946
C11   C     C_R   0.732407 0.514453 0.819414 -0.122085
C12   C     C_R   0.268982 0.483384 0.182014 -0.123007
C13   C     C_R   0.688560 0.512500 0.914798 0.078225
C14   C     C_R   0.343331 0.538717 0.097556 0.069733
C15   C     C_R   0.781751 0.456148 0.961346 0.019695
C16   C     C_R   0.261649 0.615309 0.052411 0.014014
C17   C     C_R   0.551389 0.558082 0.963743 -0.039736
C18   C     C_R   0.493938 0.518108 0.056013 -0.035253
C19   C     C_R   0.590952 0.462205 0.102525 -0.112628
C20   C     C_R   0.472658 0.646492 0.924250 -0.136108
C21   C     C_R   0.731717 0.427939 0.054411 0.257310
C22   C     C_R   0.326926 0.669482 0.966767 0.270921
H1    H     H_    0.315291 0.409749 0.214052 0.155313
H2    H     H_    0.655459 0.534339 0.781210 0.169202
H3    H     H_    0.947403 0.631529 0.218827 0.218542
H4    H     H_    0.084450 0.435692 0.786059 0.212577
H5    H     H_    0.003788 0.399031 0.948166 0.195826
H6    H     H_    0.052252 0.702508 0.064529 0.207399
C23   C     C_R   0.956645 0.065247 0.429819 -0.028751
C24   C     C_R   0.043788 0.934873 0.569748 -0.028181
C25   C     C_R   0.954123 0.935935 0.435358 -0.113785
C26   C     C_R   0.046647 0.064139 0.564075 -0.112369
H7    H     H_    0.924019 0.884749 0.383703 0.206547
H8    H     H_    0.077202 0.115310 0.615556 0.213510
C27   C     C_R   0.996894 0.871082 0.504121 -0.091652
C28   C     C_R   0.003404 0.128984 0.495529 -0.092961
C29   C     C_R   0.557255 0.404551 0.541069 0.288977
C30   C     C_R   0.441728 0.597923 0.461947 0.309803
C31   C     C_R   0.410305 0.403354 0.539371 0.275302
C32   C     C_R   0.589557 0.596933 0.461142 0.303175
N1    N     N_R   0.352080 0.500030 0.499980 -0.316646
N2    N     N_R   0.647920 0.499970 0.500020 -0.315411
N3    N     N_R   0.821672 0.358026 0.099428 0.124121
O9    O     O_R   0.856489 0.402527 0.168220 -0.338138
O10   O     O_R   0.864017 0.246711 0.073649 -0.304626
N4    N     N_R   0.246267 0.752864 0.924194 0.128610
O11   O     O_R   0.263455 0.872521 0.925710 -0.287564
O12   O     O_R   0.151705 0.709066 0.886947 -0.337427
C33   C     C_2   0.560366 0.457897 0.202240 0.898120
O13   O     O_2   0.541576 0.554808 0.242719 -0.520081
O14   O     O_R   0.557565 0.343875 0.249419 -0.700525
H9    H     H_    0.537086 0.353800 0.317184 0.335250
C34   C     C_2   0.545327 0.730273 0.846111 0.904204
O15   O     O_2   0.658241 0.781661 0.845357 -0.530605
O16   O     O_R   0.485136 0.749768 0.773545 -0.703478
H10   H     H_    0.545156 0.807833 0.724537 0.366055
C35   C     C_2   0.914818 0.128938 0.353196 0.909095
O17   O     O_2   0.968055 0.229068 0.321967 -0.579749
O18   O     O_R   0.816867 0.071969 0.314768 -0.670532
H11   H     H_    0.797149 0.123761 0.262980 0.395076
C36   C     C_2   0.085944 0.871375 0.646289 0.926155
O19   O     O_2   0.032249 0.771607 0.678042 -0.581586
O20   O     O_R   0.184958 0.928181 0.683941 -0.662948
H12   H     H_    0.205233 0.876578 0.735608 0.400224
N5    N     N_R   0.606924 0.307798 0.591326 0.181614
O21   O     O_R   0.625627 0.196127 0.560179 -0.274961
O22   O     O_R   0.599899 0.323539 0.675983 -0.327417
N6    N     N_R   0.387265 0.706147 0.425231 0.191242
O23   O     O_R   0.377971 0.811146 0.466031 -0.276908
O24   O     O_R   0.352878 0.702592 0.349223 -0.282890
N7    N     N_R   0.323077 0.299898 0.581407 0.174781
O25   O     O_R   0.347124 0.191727 0.544843 -0.272763
O26   O     O_R   0.244457 0.306604 0.664526 -0.350491
N8    N     N_R   0.676223 0.700949 0.419842 0.169378
O27   O     O_R   0.660682 0.804983 0.462222 -0.282471
O28   O     O_R   0.734388 0.703355 0.332955 -0.330991

loop_
_geom_bond_atom_site_label_1
_geom_bond_atom_site_label_2
_geom_bond_distance
_ccdc_geom_bond_type
C15   C21   1.401358 A    
C34   O16   1.398859 S    
C16   C22   1.402658 A    
C24   C36   1.487315 S    
O20   H12   1.013569 S    
C8    C16   1.411476 A    
N5    O21   1.301247 A    
N7    O25   1.301006 A    
C32   N8    1.425350 S    
C29   C31   1.425496 A    
N3    O9    1.299853 A    
O5    C3    1.307812 A    
O1    C1    1.300515 A    
C18   C19   1.439285 A    
C2    C27   1.442287 S    
C14   C16   1.423328 A    
C9    H4    1.080020 S    
N6    O24   1.299259 A    
C31   N7    1.426213 S    
N4    O11   1.300943 A    
C26   C28   1.396663 A    
C30   N6    1.432787 S    
O4    Cu1   1.949204 S    
Cu1   N1    2.040006 S    
C10   H3    1.077518 S    
C3    C5    1.471359 S    
C30   N1    1.377085 A    
Cu2   N2    2.040007 S    
C19   C33   1.477455 S    
C31   N1    1.375785 A    
C32   N2    1.374653 A    
C13   C17   1.424533 A    
O6    C4    1.312422 A    
C24   C26   1.390032 A    
C33   O13   1.219163 D    
Cu1   Cu2   2.714592 S    
C17   C20   1.430442 A    
C25   H7    1.084321 S    
O2    C2    1.300714 A    
C26   H8    1.084103 S    
N7    O26   1.299183 A    
N3    O10   1.301240 A    
C24   C27   1.411993 A    
C33   O14   1.398921 S    
C35   O17   1.222038 D    
C4    C6    1.470761 S    
N8    O27   1.301129 A    
O4    C2    1.298086 A    
C36   O20   1.398892 S    
N6    O23   1.301223 A    
C11   H2    1.080144 S    
C6    C12   1.398653 A    
C35   O18   1.398879 S    
C5    C9    1.397733 A    
O7    Cu2   1.923816 S    
O7    C3    1.306934 A    
O5    Cu1   1.938325 S    
C6    C10   1.390929 A    
C7    H5    1.082380 S    
C21   N3    1.440466 S    
N5    O22   1.300155 A    
O3    Cu2   1.949204 S    
O8    C4    1.302250 A    
C23   C28   1.412069 A    
C11   C13   1.408969 A    
C12   C14   1.413390 A    
O1    Cu1   1.953277 S    
C12   H1    1.074593 S    
O6    Cu2   1.938325 S    
C23   C35   1.487739 S    
C14   C18   1.437756 A    
N8    O28   1.298361 A    
O3    C1    1.298159 A    
O8    Cu1   1.923817 S    
C29   N2    1.373563 A    
C1    C28   1.442045 S    
C7    C15   1.409810 A    
C8    H6    1.082058 S    
C29   N5    1.429663 S    
C36   O19   1.222086 D    
C19   C21   1.410672 A    
C20   C22   1.403490 A    
C30   C32   1.423093 A    
C7    C9    1.390667 A    
N4    O12   1.301065 A    
C8    C10   1.387841 A    
C13   C15   1.412953 A    
O14   H9    1.014222 S    
O2    Cu2   1.953277 S    
O18   H11   1.014008 S    
C34   O15   1.223324 D    
C5    C11   1.397538 A    
C23   C25   1.390442 A    
O16   H10   1.013903 S    
C17   C18   1.425983 A    
C25   C27   1.397152 A    
C20   C34   1.490212 S    
C22   N4    1.435422 S    
