data_mof_unit_31708.cif
_audit_creation_date              2013-03-05T16:47:55-0500
_audit_creation_method            fapswitch 2.2
_symmetry_space_group_name_H-M    P1
_symmetry_Int_Tables_number       1
_space_group_crystal_system       triclinic
_cell_length_a                    8.103664
_cell_length_b                    8.936787
_cell_length_c                    16.812916
_cell_angle_alpha                 89.998714
_cell_angle_beta                  85.151162
_cell_angle_gamma                 89.998775
_cell_volume                      1213.24587228

loop_
_atom_site_label
_atom_site_type_symbol
_atom_site_description
_atom_site_fract_x
_atom_site_fract_y
_atom_site_fract_z
_atom_type_partial_charge
O1    O     O_R   0.363150 0.714660 0.500000 -0.615925
O2    O     O_R   0.636850 0.285340 0.500000 -0.613224
O3    O     O_R   0.636850 0.714660 0.500000 -0.610903
O4    O     O_R   0.363150 0.285340 0.500000 -0.609862
H1    H     H_    0.189955 0.564056 0.899069 0.200737
H2    H     H_    0.807973 0.552240 0.098686 0.199463
C1    C     C_R   0.499998 0.782038 0.499997 0.938832
C2    C     C_R   0.500007 0.217963 0.499967 0.943937
O5    O     O_R   0.346950 0.500000 0.615800 -0.620014
O6    O     O_R   0.653050 0.500000 0.384200 -0.617116
O7    O     O_R   0.620700 0.500000 0.615800 -0.620002
O8    O     O_R   0.379300 0.500000 0.384200 -0.619052
C3    C     C_R   0.477207 0.497195 0.653570 0.891361
C4    C     C_R   0.522677 0.507522 0.346628 0.894234
Zn1   Zn    Zn3+2 0.317220 0.500000 0.500010 1.004943
Zn2   Zn    Zn3+2 0.682780 0.500000 0.499990 1.006744
N1    N     N_1   0.926360 0.500000 0.499990 -0.026825
N2    N     N_1   0.073640 0.500000 0.500010 -0.027341
C5    C     C_R   0.462946 0.490234 0.740096 -0.116443
C6    C     C_R   0.536026 0.550194 0.262968 -0.110057
C7    C     C_R   0.601222 0.449250 0.779764 -0.253290
C8    C     C_R   0.401212 0.621468 0.232000 -0.257126
C9    C     C_R   0.593182 0.449594 0.862767 0.338669
C10   C     C_R   0.410844 0.667722 0.152692 0.321131
C11   C     C_R   0.445074 0.497834 0.905498 0.022419
C12   C     C_R   0.556705 0.635717 0.103717 0.033205
C13   C     C_R   0.304006 0.528763 0.866049 -0.105735
C14   C     C_R   0.695980 0.576717 0.136347 -0.087382
C15   C     C_R   0.312608 0.524726 0.783414 -0.156099
C16   C     C_R   0.685874 0.534155 0.215977 -0.155649
C17   C     C_2   0.438963 0.532665 0.989906 -0.106622
C18   C     C_2   0.552309 0.623090 0.017843 -0.086534
C19   C     C_1   0.500000 0.934819 0.499969 -0.174205
C20   C     C_1   0.500007 0.065174 0.499962 -0.175648
H3    H     H_    0.715186 0.415811 0.746100 0.199595
H4    H     H_    0.288708 0.642551 0.269854 0.202602
H5    H     H_    0.792685 0.483684 0.239921 0.180515
H6    H     H_    0.203968 0.554463 0.753482 0.184605
H7    H     H_    0.654442 0.667356 0.978719 0.171117
H8    H     H_    0.338289 0.486256 0.029201 0.174971
N3    N     N_R   0.271375 0.741465 0.121869 0.201631
O9    O     O_R   0.123643 0.727809 0.158020 -0.403673
O10   O     O_R   0.292986 0.832152 0.061309 -0.354656
N4    N     N_R   0.734312 0.400565 0.902502 0.197015
O11   O     O_R   0.713853 0.328162 0.969786 -0.367427
O12   O     O_R   0.883107 0.413108 0.867357 -0.416915

loop_
_geom_bond_atom_site_label_1
_geom_bond_atom_site_label_2
_geom_bond_distance
_ccdc_geom_bond_type
C15   H6    1.083437 S    
C11   C17   1.449637 S    
Zn1   N2    1.973890 S    
C12   C18   1.451638 S    
O1    Zn1   1.954149 S    
H2    C14   1.084097 S    
C13   C15   1.385658 A    
O2    Zn2   1.954150 S    
O7    Zn2   1.969442 S    
N3    O10   1.301551 A    
C12   C14   1.399083 A    
C17   C18   1.338026 D    
O8    Zn1   1.969442 S    
O8    C4    1.276491 A    
O4    C2    1.261908 A    
O4    Zn1   1.954135 S    
C14   C16   1.387536 A    
C19   C20   1.164956 T    
O5    Zn1   1.981726 S    
C6    C16   1.398965 A    
N4    O11   1.301586 A    
C10   N3    1.441951 S    
C1    C19   1.365377 S    
C7    H3    1.083597 S    
C5    C7    1.400310 A    
C6    C8    1.402307 A    
N1    N2    1.193536 T    
O3    C1    1.261921 A    
C9    C11   1.413064 A    
C7    C9    1.391539 A    
O6    C4    1.277718 A    
C8    C10   1.391860 A    
C11   C13   1.396887 A    
C3    C5    1.450893 S    
C5    C15   1.399875 A    
C4    C6    1.452530 S    
O7    C3    1.277190 A    
C8    H4    1.083346 S    
C17   H8    1.087637 S    
N3    O9    1.301739 A    
C18   H7    1.087273 S    
C2    C20   1.365436 S    
O5    C3    1.277266 A    
O6    Zn2   1.981726 S    
N4    O12   1.301996 A    
O1    C1    1.261905 A    
H1    C13   1.084043 S    
O2    C2    1.261913 A    
O3    Zn2   1.954134 S    
C16   H5    1.083318 S    
C10   C12   1.411535 A    
Zn2   N1    1.973890 S    
C9    N4    1.440627 S    
