data_mof_unit_66512.cif
_audit_creation_date              2012-12-10T19:42:27-0500
_audit_creation_method            fapswitch 2.2
_symmetry_space_group_name_H-M    P1
_symmetry_Int_Tables_number       1
_space_group_crystal_system       triclinic
_cell_length_a                    23.483788
_cell_length_b                    22.481418
_cell_length_c                    27.715674
_cell_angle_alpha                 90.014819
_cell_angle_beta                  89.837878
_cell_angle_gamma                 89.954448
_cell_volume                      14632.3946339

loop_
_atom_site_label
_atom_site_type_symbol
_atom_type_description
_atom_site_fract_x
_atom_site_fract_y
_atom_site_fract_z
_atom_type_partial_charge
Br1   Br    Br    0.395875 0.568622 0.358704 -0.437541
Br2   Br    Br    0.604577 0.427114 0.636977 -0.436863
Br3   Br    Br    0.393956 0.350645 0.130350 -0.356204
Br4   Br    Br    0.658446 0.594870 0.869633 -0.354673
Br5   Br    Br    0.398185 0.572867 0.641857 -0.487944
Br6   Br    Br    0.607611 0.431874 0.362934 -0.491335
C1    C     C_R   0.389137 0.500048 0.500085 0.928338
C2    C     C_R   0.593333 0.555917 0.898081 0.339135
C3    C     C_R   0.541749 0.537062 0.127655 -0.051990
C4    C     C_R   0.463200 0.464761 0.872693 -0.051146
C5    C     C_R   0.501686 0.499876 0.353813 -0.186164
C6    C     C_R   0.501438 0.499864 0.646251 -0.188415
C7    C     C_R   0.466789 0.460845 0.974914 0.069922
C8    C     C_R   0.544997 0.532991 0.025391 0.069914
C9    C     C_R   0.548321 0.528696 0.974443 -0.000481
C10   C     C_R   0.470613 0.456705 0.025818 -0.000435
C11   C     C_R   0.507271 0.494993 0.949167 0.083101
C12   C     C_R   0.610861 0.499951 0.499903 0.931762
C13   C     C_R   0.507680 0.495095 0.051120 0.083356
C14   C     C_R   0.422737 0.432881 0.949170 -0.239392
C15   C     C_R   0.577057 0.575120 0.051207 -0.239185
C16   C     C_R   0.500204 0.499986 0.406081 0.981170
C17   C     C_R   0.500105 0.499992 0.593943 0.979249
C18   C     C_R   0.420495 0.434369 0.899120 -0.004626
C19   C     C_R   0.575939 0.577559 0.101274 -0.004418
C20   C     C_R   0.439049 0.414503 0.052070 -0.245008
C21   C     C_R   0.592192 0.556354 0.948107 -0.245123
C22   C     C_R   0.879886 0.500220 0.456584 0.515092
C23   C     C_R   0.504377 0.498857 0.253534 0.198149
C24   C     C_R   0.120104 0.499687 0.543127 0.514884
C25   C     C_R   0.879342 0.499911 0.542595 0.516850
C26   C     C_R   0.120651 0.499996 0.457117 0.516980
C27   C     C_R   0.939388 0.499888 0.544268 -0.059789
C28   C     C_R   0.060605 0.499991 0.455443 -0.059924
C29   C     C_R   0.969862 0.499991 0.499789 -0.025440
C30   C     C_R   0.030130 0.499886 0.499922 -0.025529
C31   C     C_R   0.939954 0.500208 0.455176 -0.059112
C32   C     C_R   0.060036 0.499671 0.544535 -0.058813
C33   C     C_R   0.969542 0.499667 0.588617 -0.074475
C34   C     C_R   0.503830 0.498806 0.746626 0.192196
C35   C     C_R   0.030450 0.500187 0.411094 -0.073857
C36   C     C_R   0.029316 0.499548 0.588749 -0.072849
C37   C     C_R   0.970676 0.500304 0.410962 -0.072819
C38   C     C_R   0.537704 0.315606 0.471552 0.024234
C39   C     C_R   0.462268 0.684395 0.528420 0.023619
C40   C     C_R   0.462376 0.315675 0.528514 0.015802
C41   C     C_R   0.537665 0.684325 0.471525 0.014805
C42   C     C_R   0.538447 0.253171 0.471032 -0.189182
C43   C     C_R   0.461535 0.746829 0.528952 -0.189931
C44   C     C_R   0.461686 0.253240 0.529060 -0.192184
C45   C     C_R   0.507277 0.495677 0.102326 -0.098869
C46   C     C_R   0.538363 0.746761 0.470987 -0.191625
C47   C     C_R   0.238221 0.554921 0.500444 0.033360
C48   C     C_R   0.761754 0.445034 0.499298 0.032715
C49   C     C_R   0.297442 0.554534 0.500403 -0.179530
C50   C     C_R   0.702535 0.445442 0.499430 -0.174264
C51   C     C_R   0.327095 0.500283 0.500216 -0.044554
C52   C     C_R   0.672901 0.499703 0.499689 -0.042778
C53   C     C_R   0.297091 0.446366 0.500159 -0.190490
C54   C     C_R   0.702918 0.553610 0.499707 -0.190457
C55   C     C_R   0.238046 0.446681 0.500198 -0.091968
C56   C     C_R   0.506645 0.495585 0.897965 -0.098863
C57   C     C_R   0.761963 0.553275 0.499579 -0.091352
C58   C     C_R   0.208661 0.500702 0.500309 0.277653
C59   C     C_R   0.791331 0.499243 0.499412 0.277264
C60   C     C_R   0.547695 0.873903 0.514646 0.520814
C61   C     C_R   0.452324 0.126100 0.485380 0.521275
C62   C     C_R   0.452249 0.874007 0.485352 0.521935
C63   C     C_R   0.547774 0.125998 0.514665 0.521863
C64   C     C_R   0.451289 0.936876 0.485192 -0.027338
C65   C     C_R   0.548733 0.063128 0.514828 -0.027282
C66   C     C_R   0.548692 0.936770 0.514820 -0.026008
C67   C     C_R   0.472275 0.454958 0.128053 -0.112635
C68   C     C_R   0.451328 0.063233 0.485204 -0.026172
C69   C     C_R   0.500000 0.968377 0.500009 -0.012266
C70   C     C_R   0.500020 0.031627 0.500014 -0.012269
C71   C     C_R   0.402910 0.968963 0.470430 -0.138498
C72   C     C_R   0.597111 0.031041 0.529592 -0.138614
C73   C     C_R   0.597091 0.968750 0.529588 -0.139509
C74   C     C_R   0.402929 0.031254 0.470436 -0.139027
C75   C     C_R   0.472003 0.457678 0.178741 0.567240
C76   C     C_R   0.546499 0.528206 0.821523 0.565804
C77   C     C_R   0.500066 0.221137 0.500041 0.304348
C78   C     C_R   0.549412 0.527116 0.872187 -0.111854
C79   C     C_R   0.499953 0.778864 0.499978 0.304084
C80   C     C_R   0.539996 0.536600 0.178453 0.527308
C81   C     C_R   0.464080 0.466077 0.821898 0.525979
C82   C     C_R   0.547172 0.469948 0.279333 -0.101101
C83   C     C_R   0.461185 0.530438 0.722699 -0.100308
C84   C     C_R   0.546143 0.470228 0.329462 0.202725
C85   C     C_R   0.459658 0.531155 0.672561 0.203561
C86   C     C_R   0.458749 0.529291 0.327660 0.208761
C87   C     C_R   0.544543 0.468227 0.670507 0.208579
C88   C     C_R   0.460358 0.528500 0.277513 -0.109680
C89   C     C_R   0.439439 0.413073 0.102082 0.339297
C90   C     C_R   0.545378 0.467875 0.720631 -0.106704
C91   C     C_1   0.940260 0.499526 0.635003 0.302439
C92   C     C_1   0.059732 0.500298 0.364709 0.301853
C93   C     C_1   0.058003 0.499323 0.635262 0.300477
C94   C     C_1   0.941988 0.500493 0.364450 0.300291
C95   C     C_1   0.208193 0.610930 0.500585 0.224388
C96   C     C_1   0.791763 0.389015 0.499099 0.225622
C97   C     C_1   0.372663 0.404588 0.876859 0.302441
C98   C     C_1   0.610474 0.623155 0.123608 0.302701
H1    H     H_    0.568465 0.229936 0.448056 0.169575
H2    H     H_    0.680868 0.595945 0.499857 0.171742
H3    H     H_    0.214937 0.405013 0.500103 0.150813
H4    H     H_    0.785085 0.594935 0.499663 0.150856
H5    H     H_    0.567281 0.340126 0.449163 0.169468
H6    H     H_    0.432657 0.659874 0.550777 0.169481
H7    H     H_    0.432836 0.340260 0.550953 0.141254
H8    H     H_    0.567230 0.659741 0.449110 0.141863
H9    H     H_    0.427308 0.550553 0.257016 0.180953
H10   H     H_    0.578363 0.443689 0.739575 0.185498
H11   H     H_    0.364790 0.946050 0.458802 0.199128
H12   H     H_    0.431494 0.770063 0.551907 0.169438
H13   H     H_    0.635232 0.053954 0.541218 0.199109
H14   H     H_    0.635197 0.945753 0.541211 0.198509
H15   H     H_    0.364823 0.054251 0.458813 0.198642
H16   H     H_    0.429057 0.554088 0.743248 0.183064
H17   H     H_    0.581220 0.447396 0.260246 0.181185
H18   H     H_    0.387798 0.411252 0.967516 0.153262
H19   H     H_    0.601968 0.608650 0.032921 0.153006
H20   H     H_    0.431705 0.230053 0.552060 0.164206
H21   H     H_    0.568373 0.769947 0.448014 0.164623
H22   H     H_    0.414899 0.380124 0.034327 0.178810
H23   H     H_    0.627893 0.577091 0.965774 0.178896
H24   H     H_    0.320239 0.596462 0.500497 0.177523
H25   H     H_    0.679725 0.403521 0.499354 0.178617
H26   H     H_    0.319152 0.404037 0.500055 0.171846
N1    N     N_R   0.505455 0.497729 0.202159 -0.349591
N2    N     N_1   0.082667 0.500388 0.327677 -0.119810
N3    N     N_1   0.080463 0.499145 0.672393 -0.123737
N4    N     N_1   0.919526 0.500642 0.327319 -0.124532
N5    N     N_1   0.184042 0.655817 0.500699 -0.153067
N6    N     N_1   0.815898 0.344119 0.498940 -0.152690
N7    N     N_1   0.334303 0.380712 0.859287 -0.131322
N8    N     N_1   0.638170 0.659719 0.141237 -0.132811
N9    N     N_R   0.504789 0.497740 0.798078 -0.347928
N10   N     N_R   0.851975 0.499897 0.499529 -0.357382
N11   N     N_R   0.148017 0.500025 0.500184 -0.357296
N12   N     N_R   0.500000 0.345660 0.500000 -0.100663
N13   N     N_R   0.500000 0.654340 0.500000 -0.101228
N14   N     N_R   0.499964 0.843539 0.499994 -0.345783
N15   N     N_R   0.500057 0.156463 0.500027 -0.345862
N16   N     N_1   0.917325 0.499412 0.672034 -0.116144
O1    O     O_R   0.416150 0.549570 0.500020 -0.610167
O2    O     O_2   0.406050 0.156502 0.470506 -0.542013
O3    O     O_2   0.405959 0.843705 0.470467 -0.536848
O4    O     O_2   0.594066 0.156301 0.529542 -0.536487
O5    O     O_2   0.438684 0.421190 0.205049 -0.469971
O6    O     O_2   0.584106 0.559962 0.795316 -0.471284
O7    O     O_2   0.425158 0.435745 0.795999 -0.533915
O8    O     O_2   0.572184 0.574472 0.204470 -0.532562
O9    O     O_2   0.848792 0.500427 0.415728 -0.531703
O10   O     O_2   0.151196 0.499499 0.583985 -0.532446
O11   O     O_2   0.847732 0.499823 0.583318 -0.527060
O12   O     O_R   0.583850 0.450430 0.499980 -0.607912
O13   O     O_2   0.152263 0.500100 0.416395 -0.527887
O14   O     O_R   0.583850 0.549570 0.499980 -0.638553
O15   O     O_R   0.416150 0.450430 0.500020 -0.637985
O16   O     O_R   0.500010 0.549550 0.428760 -0.598902
O17   O     O_R   0.499990 0.450450 0.571240 -0.598665
O18   O     O_R   0.499990 0.549550 0.571240 -0.597039
O19   O     O_R   0.500010 0.450450 0.428760 -0.597566
O20   O     O_2   0.593967 0.843501 0.529526 -0.542671
Zn1   Zn    Zn3+2 0.500000 0.566180 0.500000 1.012385
Zn2   Zn    Zn3+2 0.500000 0.433820 0.500000 1.013258

loop_
_geom_bond_atom_site_label_1
_geom_bond_atom_site_label_2
_ccdc_geom_bond_type
C57   C59   A    
C53   H26   S    
C31   C37   A    
C63   N15   A    
C91   N16   T    
C6    C85   A    
C29   C30   A    
C22   N10   A    
Br4   C2    S    
C3    C19   A    
C40   N12   A    
C48   C59   A    
C23   N1    S    
C1    O15   A    
C6    C17   S    
C24   C32   A    
C27   C33   A    
C24   N11   A    
C68   C70   A    
C54   C57   A    
C63   O4    S    
C8    C15   A    
C46   C79   A    
C29   C31   A    
C32   C36   A    
C66   C73   A    
C97   N7    T    
C65   C70   A    
C16   O16   A    
C47   C58   A    
C80   N1    A    
C33   C91   S    
C60   N14   A    
C58   N11   S    
C52   C54   A    
C41   H8    S    
C73   H14   S    
C41   N13   A    
C93   N3    T    
C20   H22   S    
O14   Zn1   S    
C63   C65   A    
C23   C82   A    
C56   C78   A    
C62   O3    S    
C77   N15   S    
C59   N10   S    
C21   H23   S    
C5    C86   A    
C12   C52   S    
C60   C66   A    
C14   C18   A    
C47   C95   S    
C3    C45   A    
C61   N15   A    
C22   O9    S    
C25   C27   A    
C34   C83   A    
C83   C85   A    
C14   H18   S    
C50   H25   S    
C26   O13   S    
C38   H5    S    
C95   N5    T    
C74   H15   S    
C8    C9    A    
C68   C74   A    
C40   H7    S    
C64   C71   A    
C25   N10   A    
C35   C37   A    
C90   H10   S    
C4    C56   A    
C28   C35   A    
C34   C90   A    
C66   C69   A    
C79   N14   S    
C67   C75   A    
C88   H9    S    
C94   N4    T    
C44   C77   A    
C33   C36   A    
C1    O1    A    
C47   C49   A    
C10   C20   A    
C48   C50   A    
C4    C81   A    
C53   C55   A    
C34   N9    S    
C60   O20   S    
O12   Zn2   S    
C43   C79   A    
C72   H13   S    
C44   H20   S    
C37   C94   S    
C61   C68   A    
C39   H6    S    
C4    C18   A    
C75   O5    S    
C26   C28   A    
C15   H19   S    
C55   C58   A    
C69   C70   A    
C76   N9    A    
C12   O12   A    
C11   C56   A    
C9    C21   A    
C42   H1    S    
C16   O19   A    
C83   H16   S    
C39   C43   A    
C81   O7    S    
C3    C80   A    
Br5   C85   S    
C17   O17   A    
N13   Zn1   S    
C26   N11   A    
C25   O11   S    
O1    Zn1   S    
C38   N12   A    
C82   C84   A    
C87   C90   A    
O19   Zn2   S    
C76   C78   A    
C49   C51   A    
C6    C87   A    
C51   C53   A    
C67   C89   A    
C64   C69   A    
C54   H2    S    
C17   O18   A    
C71   C74   A    
C20   C89   A    
C9    C11   A    
C15   C19   A    
C7    C14   A    
C2    C78   A    
C8    C13   A    
C48   C96   S    
Br2   C87   S    
C45   C67   A    
C81   N9    A    
C82   H17   S    
C46   H21   S    
C19   C98   S    
C41   C46   A    
Br1   C86   S    
C40   C44   A    
C5    C16   S    
C42   C77   A    
C7    C11   A    
C18   C97   S    
C98   N8    T    
C30   C32   A    
O17   Zn2   S    
C80   O8    S    
C12   O14   A    
Br6   C84   S    
C36   C93   S    
C72   C73   A    
C5    C84   A    
C86   C88   A    
C23   C88   A    
C22   C31   A    
C10   C13   A    
C24   O10   S    
C27   C29   A    
C50   C52   A    
C62   N14   A    
C28   C30   A    
O18   Zn1   S    
C55   H3    S    
C96   N6    T    
O15   Zn2   S    
C75   N1    A    
N12   Zn2   S    
O16   Zn1   S    
C13   C45   A    
C43   H12   S    
C49   H24   S    
C62   C64   A    
C7    C10   A    
C92   N2    T    
C61   O2    S    
C39   N13   A    
C2    C21   A    
C35   C92   S    
Br3   C89   S    
C57   H4    S    
C71   H11   S    
C1    C51   S    
C65   C72   A    
C76   O6    S    
C38   C42   A    
