data_mof_unit_61506.cif
_audit_creation_date              2012-12-10T16:47:54-0500
_audit_creation_method            fapswitch 2.2
_symmetry_space_group_name_H-M    P1
_symmetry_Int_Tables_number       1
_space_group_crystal_system       triclinic
_cell_length_a                    18.800498
_cell_length_b                    18.795853
_cell_length_c                    18.848598
_cell_angle_alpha                 109.421306
_cell_angle_beta                  109.407568
_cell_angle_gamma                 109.308311
_cell_volume                      5144.71392916

loop_
_atom_site_label
_atom_site_type_symbol
_atom_type_description
_atom_site_fract_x
_atom_site_fract_y
_atom_site_fract_z
_atom_type_partial_charge
C1    C     C_R   0.383401 0.880967 0.002723 0.948640
C2    C     C_R   0.996601 0.377264 0.881414 1.015647
C3    C     C_R   0.118725 0.615246 0.996029 1.012076
C4    C     C_R   0.881275 0.384754 0.003971 1.012080
C5    C     C_2   0.916424 0.234721 0.747763 0.007790
C6    C     C_2   0.083576 0.765279 0.252238 0.007790
C7    C     C_2   0.991079 0.303627 0.818014 -0.330485
C8    C     C_2   0.008921 0.696373 0.181986 -0.330486
C9    C     C_2   0.921894 0.166788 0.686812 -0.253520
C10   C     C_2   0.078106 0.833212 0.313188 -0.253519
C11   C     C_2   0.990173 0.186072 0.674076 -0.287773
C12   C     C_R   0.616599 0.119033 0.997277 0.948640
C13   C     C_2   0.009827 0.813928 0.325923 -0.287773
C14   C     C_R   0.621770 0.002340 0.118894 0.951746
C15   C     C_R   0.378230 0.997660 0.881106 0.951747
C16   C     C_2   0.818652 0.083895 0.329833 0.022534
C17   C     C_2   0.181348 0.916105 0.670167 0.022534
C18   C     C_2   0.813108 0.009283 0.326517 -0.347273
C19   C     C_2   0.186892 0.990717 0.673483 -0.347273
C20   C     C_2   0.745272 0.078368 0.263469 -0.251982
C21   C     C_2   0.254728 0.921632 0.736531 -0.251982
C22   C     C_2   0.696117 0.009625 0.183219 -0.339375
C23   C     C_2   0.326164 0.816346 0.012370 -0.332272
C24   C     C_2   0.303883 0.990375 0.816781 -0.339374
C25   C     C_2   0.253184 0.669166 0.987777 0.021256
C26   C     C_2   0.746818 0.330835 0.012226 0.021255
C27   C     C_2   0.182419 0.673354 0.986250 -0.314417
C28   C     C_2   0.817581 0.326645 0.013749 -0.314413
C29   C     C_2   0.314049 0.735550 0.980735 -0.257242
C30   C     C_2   0.685953 0.264451 0.019267 -0.257243
C31   C     C_2   0.890526 0.172416 0.400423 0.421490
C32   C     C_2   0.109474 0.827584 0.599576 0.421489
C33   C     C_2   0.270526 0.597676 0.988494 0.419800
C34   C     C_2   0.673836 0.183654 0.987630 -0.332271
C35   C     C_2   0.729477 0.402327 0.011512 0.419796
C36   C     C_2   0.827970 0.218566 0.731012 0.422613
C37   C     C_2   0.172030 0.781433 0.268989 0.422614
C38   C     C_R   0.997587 0.119256 0.616718 0.973836
C39   C     C_R   0.002413 0.880744 0.383282 0.973836
C40   C     C_R   0.880850 0.003572 0.384726 0.977653
C41   C     C_R   0.119150 0.996428 0.615274 0.977653
C42   C     C_R   0.003399 0.622736 0.118586 1.015650
H1    H     H_    0.052261 0.303930 0.833251 0.153132
H2    H     H_    0.267788 0.867957 0.719348 0.173368
H3    H     H_    0.713193 0.959519 0.162643 0.155909
H4    H     H_    0.286807 0.040481 0.837357 0.155909
H5    H     H_    0.166853 0.719189 0.971302 0.135630
H6    H     H_    0.833146 0.280809 0.028695 0.135628
H7    H     H_    0.350122 0.717979 0.950165 0.172379
H8    H     H_    0.649881 0.282022 0.049839 0.172378
H9    H     H_    0.297001 0.837164 0.050270 0.164991
H10   H     H_    0.702998 0.162836 0.949728 0.164991
H11   H     H_    0.899716 0.227006 0.389230 0.053061
H12   H     H_    0.947740 0.696071 0.166748 0.153133
H13   H     H_    0.100286 0.772993 0.610769 0.053061
H14   H     H_    0.335937 0.608064 0.008112 0.054900
H15   H     H_    0.664068 0.391942 0.991901 0.054900
H16   H     H_    0.773158 0.173170 0.665884 0.059439
H17   H     H_    0.226842 0.826827 0.334118 0.059439
H18   H     H_    0.868538 0.100369 0.651153 0.171939
H19   H     H_    0.131462 0.899630 0.348848 0.171939
H20   H     H_    0.039849 0.252955 0.702844 0.164989
H21   H     H_    0.960151 0.747045 0.297156 0.164988
H22   H     H_    0.752518 0.948236 0.281331 0.140092
H23   H     H_    0.247482 0.051764 0.718669 0.140092
H24   H     H_    0.732213 0.132043 0.280651 0.173369
O1    O     O_R   0.409560 0.858470 0.948950 -0.621029
O2    O     O_R   0.590460 0.039390 0.948920 -0.623249
O3    O     O_R   0.590480 0.948940 0.039400 -0.628408
O4    O     O_R   0.409520 0.051060 0.960600 -0.628408
O5    O     O_R   0.590470 0.051080 0.141520 -0.616849
O6    O     O_R   0.409530 0.948920 0.858480 -0.616849
O7    O     O_R   0.051050 0.141530 0.590440 -0.595847
O8    O     O_R   0.948950 0.858470 0.409560 -0.595846
O9    O     O_R   0.948920 0.039390 0.590460 -0.635165
O10   O     O_R   0.051080 0.960610 0.409540 -0.635165
O11   O     O_R   0.960590 0.051060 0.409530 -0.582275
O12   O     O_R   0.590440 0.141530 0.051050 -0.621030
O13   O     O_R   0.039410 0.948940 0.590470 -0.582274
O14   O     O_R   0.858460 0.948920 0.409550 -0.640002
O15   O     O_R   0.141540 0.051080 0.590450 -0.640002
O16   O     O_R   0.051060 0.590470 0.141520 -0.595043
O17   O     O_R   0.948940 0.409530 0.858480 -0.595042
O18   O     O_2   0.936824 0.186380 0.472257 -0.566376
O19   O     O_2   0.063176 0.813620 0.527742 -0.566376
O20   O     O_2   0.212545 0.525990 0.963374 -0.579213
O21   O     O_2   0.787458 0.474012 0.036629 -0.579213
O22   O     O_2   0.814356 0.251362 0.789191 -0.574108
O23   O     O_R   0.948910 0.590450 0.039380 -0.609061
O24   O     O_2   0.185644 0.748638 0.210810 -0.574107
O25   O     O_R   0.051090 0.409550 0.960620 -0.609062
O26   O     O_R   0.141530 0.590470 0.051060 -0.550822
O27   O     O_R   0.858470 0.409530 0.948940 -0.550820
O28   O     O_R   0.039370 0.590450 0.948920 -0.653977
O29   O     O_R   0.960630 0.409550 0.051080 -0.653977
O30   O     O_R   0.409540 0.960610 0.051080 -0.623249
Zn1   Zn    Zn3+2 0.500010 0.931800 0.931810 0.958242
Zn2   Zn    Zn3+2 0.499990 0.068200 0.068190 0.958242
Zn3   Zn    Zn3+2 0.068190 0.068200 0.499990 0.996044
Zn4   Zn    Zn3+2 0.931810 0.931800 0.500010 0.996045
Zn5   Zn    Zn3+2 0.068210 0.500010 0.068200 1.036557
Zn6   Zn    Zn3+2 0.931790 0.499990 0.931800 1.036558

loop_
_geom_bond_atom_site_label_1
_geom_bond_atom_site_label_2
_ccdc_geom_bond_type
O17   Zn6   S    
O23   Zn6   S    
C14   O5    A    
C2    C7    S    
C42   O16   A    
C11   H20   S    
C29   H7    S    
C36   O22   D    
C16   C31   S    
C15   O6    A    
C12   O2    A    
C37   O24   D    
C23   C29   D    
C20   H24   S    
C8    C42   S    
C36   H16   S    
C21   H2    S    
C5    C36   S    
C39   O8    A    
C18   C40   S    
O2    Zn1   S    
C17   C19   D    
C35   O21   D    
O30   Zn2   S    
O12   Zn2   S    
O29   Zn5   S    
C40   O14   A    
O11   Zn3   S    
C7    H1    S    
C32   H13   S    
C38   O9    A    
C33   H14   S    
C30   H8    S    
O14   Zn4   S    
C2    O17   A    
O25   Zn5   S    
C4    C28   S    
O6    Zn1   S    
C25   C29   S    
O5    Zn2   S    
C30   C34   D    
O13   Zn4   S    
C8    H12   S    
C5    C7    D    
O8    Zn4   S    
O15   Zn3   S    
C17   C21   S    
C31   O18   D    
C12   O12   A    
C3    O26   A    
O10   Zn3   S    
C11   C38   S    
C33   O20   D    
C5    C9    S    
C4    O29   A    
C23   H9    S    
C13   H21   S    
C16   C20   S    
C41   O15   A    
C6    C37   S    
C39   O10   A    
C31   H11   S    
C9    C11   D    
C37   H17   S    
O26   Zn5   S    
C15   C24   S    
C20   C22   D    
C1    C23   S    
C14   O3    A    
C10   H19   S    
C12   C34   S    
C41   O13   A    
C27   H5    S    
O7    Zn3   S    
C15   O4    A    
C28   H6    S    
C34   H10   S    
C10   C13   D    
O27   Zn6   S    
C6    C10   S    
C6    C8    D    
C26   C30   S    
C25   C27   D    
C42   O23   A    
C26   C28   D    
C35   H15   S    
C9    H18   S    
C24   H4    S    
C14   C22   S    
C3    C27   S    
C18   H22   S    
C1    O30   A    
C32   O19   D    
O9    Zn4   S    
C1    O1    A    
O16   Zn5   S    
C19   H23   S    
C3    O28   A    
C2    O25   A    
C13   C39   S    
O1    Zn1   S    
C4    O27   A    
O4    Zn2   S    
C26   C35   S    
C22   H3    S    
O28   Zn6   S    
C16   C18   D    
C21   C24   D    
C17   C32   S    
C40   O11   A    
C19   C41   S    
C25   C33   S    
C38   O7    A    
O3    Zn1   S    
