data_mof_unit_53828.cif
_audit_creation_date              2013-03-05T16:32:33-0500
_audit_creation_method            fapswitch 2.2
_symmetry_space_group_name_H-M    P1
_symmetry_Int_Tables_number       1
_space_group_crystal_system       triclinic
_cell_length_a                    15.875712
_cell_length_b                    10.827177
_cell_length_c                    9.552371
_cell_angle_alpha                 89.717593
_cell_angle_beta                  90.139932
_cell_angle_gamma                 90.205537
_cell_volume                      1641.91353663

loop_
_atom_site_label
_atom_site_type_symbol
_atom_site_description
_atom_site_fract_x
_atom_site_fract_y
_atom_site_fract_z
_atom_type_partial_charge
O1    O     O_R   0.500000 0.319640 0.618810 -0.571922
O2    O     O_R   0.500010 0.319680 0.381230 -0.584909
C1    C     C_R   0.501033 0.262464 0.500334 0.804756
O3    O     O_R   0.379070 0.499970 0.618770 -0.589312
O4    O     O_R   0.379080 0.500010 0.381190 -0.581822
C2    C     C_R   0.339916 0.500340 0.499855 0.810022
Cu1   Cu    Cu3+1 0.500000 0.499980 0.640670 0.983009
Cu2   Cu    Cu3+1 0.500000 0.500020 0.359330 0.983549
O5    O     O_R   0.499990 0.680320 0.618770 -0.595534
O6    O     O_R   0.500000 0.680360 0.381190 -0.589437
O7    O     O_R   0.620920 0.499990 0.618810 -0.538518
O8    O     O_R   0.620930 0.500030 0.381230 -0.550698
C3    C     C_R   0.501135 0.737603 0.499841 0.809582
C4    C     C_R   0.660075 0.500356 0.500133 0.847879
C5    C     C_3   0.972624 0.437274 0.611400 0.296075
C6    C     C_3   0.027119 0.384513 0.495329 0.299996
H1    H     H_    0.947118 0.400195 0.286356 0.211808
C7    C     C_1   0.250345 0.500606 0.499739 -0.146398
C8    C     C_1   0.749626 0.500498 0.500350 -0.022491
C9    C     C_3   0.028917 0.553229 0.619859 -0.249029
C10   C     C_3   0.083311 0.499319 0.501129 0.012494
C11   C     C_3   0.972160 0.616504 0.507395 -0.126286
C12   C     C_3   0.916621 0.499280 0.501488 0.004181
C13   C     C_3   0.027935 0.562678 0.388943 -0.164028
C14   C     C_3   0.971017 0.445300 0.382818 -0.227061
C15   C     C_1   0.174882 0.500370 0.500174 0.059973
C16   C     C_1   0.825075 0.500254 0.500750 0.127740
H2    H     H_    0.051833 0.615206 0.297072 0.184099
H3    H     H_    0.948372 0.712716 0.511729 0.202178
H4    H     H_    0.052797 0.596373 0.717482 0.189435
C17   C     C_R   0.498695 0.063177 0.625752 0.088989
C18   C     C_R   0.508170 0.129573 0.501343 -0.092036
C19   C     C_R   0.528134 0.065478 0.378241 -0.183117
H5    H     H_    0.540638 0.114259 0.281184 0.177433
C20   C     C_R   0.528067 0.936672 0.378056 -0.158085
H6    H     H_    0.540711 0.889628 0.281178 0.175282
C21   C     C_R   0.507522 0.870801 0.500466 -0.088918
C22   C     C_R   0.496797 0.936175 0.624618 0.097846
C23   C     C_3   0.430688 0.931714 0.737026 0.055976
C24   C     C_3   0.434109 0.072625 0.738963 -0.441738
H7    H     H_    0.454066 0.890293 0.836438 0.117424
H8    H     H_    0.375712 0.120625 0.705275 0.209829
H9    H     H_    0.461909 0.109569 0.837209 0.181090
C25   C     C_R   0.567532 0.545074 0.073731 0.186745
N1    N     N_R   0.500530 0.500930 0.147930 -0.211213
C26   C     C_R   0.437414 0.443853 0.074421 -0.067278
H10   H     H_    0.386035 0.400008 0.129968 0.156729
C27   C     C_R   0.437336 0.443997 0.925648 -0.075028
H11   H     H_    0.385890 0.400287 0.870200 0.155206
N2    N     N_R   0.500530 0.500890 0.852020 -0.213090
C28   C     C_R   0.568164 0.543832 0.926172 0.199567
C29   C     C_3   0.604693 0.671483 0.918310 0.016251
C30   C     C_3   0.601812 0.673626 0.078309 0.031124
H12   H     H_    0.561831 0.738756 0.867075 0.085535
H13   H     H_    0.555746 0.741261 0.118881 0.076877
N3    N     N_R   0.055031 0.256487 0.490553 0.154316
O9    O     O_R   0.999664 0.167808 0.485542 -0.292090
O10   O     O_R   0.134847 0.229948 0.491316 -0.352429
N4    N     N_R   0.690157 0.675524 0.860668 0.188323
O11   O     O_R   0.725941 0.781980 0.838127 -0.296569
O12   O     O_R   0.732061 0.574884 0.835659 -0.277095
N5    N     N_R   0.684186 0.680584 0.147647 0.192934
O13   O     O_R   0.701150 0.773619 0.228676 -0.334369
O14   O     O_R   0.738115 0.590620 0.138675 -0.287603
N6    N     N_R   0.944498 0.366830 0.733132 0.162035
O15   O     O_R   0.999711 0.319414 0.818399 -0.298699
O16   O     O_R   0.864635 0.351066 0.757554 -0.284283
N7    N     N_2   0.349123 0.880686 0.694957 -0.405118
H14   H     H_    0.341351 0.789190 0.722697 0.258081
C31   C     C_3   0.312362 0.910423 0.559564 -0.568831
H15   H     H_    0.243101 0.897105 0.565095 0.243746
H16   H     H_    0.336998 0.847470 0.478191 0.189669
H17   H     H_    0.324852 0.007349 0.527943 0.237247

loop_
_geom_bond_atom_site_label_1
_geom_bond_atom_site_label_2
_geom_bond_distance
_ccdc_geom_bond_type
C10   C15   1.453798 S    
C6    C10   1.528553 S    
C11   H3    1.110325 S    
C23   N7    1.462203 S    
C20   H6    1.078159 S    
C7    C15   1.198049 T    
Cu1   Cu2   2.687461 S    
C23   H7    1.111721 S    
C9    H4    1.110329 S    
N1    C26   1.369452 A    
C17   C24   1.496177 S    
Cu1   O7    1.931519 S    
C21   C22   1.395204 A    
C20   C21   1.405091 A    
O4    C2    1.294213 A    
O7    C4    1.294202 A    
C5    C6    1.522703 S    
C5    N6    1.457610 S    
N3    O9    1.300368 A    
O5    C3    1.291782 A    
Cu2   N1    2.019386 S    
N5    O14   1.302426 A    
C25   C30   1.493450 S    
C24   H9    1.111733 S    
N7    H14   1.031266 S    
N6    O16   1.300221 A    
C31   H15   1.109819 S    
C12   C16   1.453435 S    
C8    C16   1.197812 T    
C3    C21   1.445391 S    
C5    C12   1.528494 S    
N4    O11   1.300410 A    
O3    Cu1   1.930706 S    
C29   H12   1.109740 S    
C19   H5    1.083162 S    
C30   H13   1.108750 S    
C5    C9    1.540782 S    
C2    C7    1.422014 S    
C26   C27   1.421126 A    
N4    O12   1.302116 A    
C28   C29   1.498529 S    
C13   C14   1.557982 S    
O3    C2    1.293530 A    
C23   C24   1.526646 S    
O1    C1    1.292813 A    
C6    N3    1.457748 S    
N5    O13   1.300391 A    
C29   N4    1.465950 S    
C30   N5    1.466335 S    
C17   C18   1.394057 A    
Cu2   O8    1.930704 S    
C31   H17   1.107949 S    
N2    C28   1.366301 A    
C25   C28   1.409729 A    
N7    C31   1.452754 S    
C27   H11   1.081281 S    
C9    C11   1.558142 S    
C11   C13   1.555331 S    
C29   C30   1.529452 S    
C6    C14   1.540808 S    
Cu1   O5    1.962724 S    
C26   H10   1.081233 S    
O1    Cu1   1.964730 S    
C4    C8    1.421667 S    
O2    Cu2   1.962722 S    
C25   N1    1.363437 A    
C13   H2    1.110275 S    
Cu1   N2    2.018964 S    
O8    C4    1.293392 A    
C24   H8    1.110631 S    
O6    C3    1.294523 A    
O4    Cu2   1.931523 S    
C17   C22   1.375383 A    
H1    C14   1.110360 S    
C18   C19   1.405797 A    
O2    C1    1.292863 A    
C22   C23   1.503810 S    
C27   N2    1.369435 A    
C19   C20   1.394612 A    
N3    O10   1.300298 A    
C12   C14   1.545083 S    
C1    C18   1.443673 S    
C9    C10   1.545205 S    
Cu2   O6    1.964730 S    
N6    O15   1.300363 A    
C10   C13   1.544146 S    
C11   C12   1.543996 S    
C31   H16   1.109225 S    
