data_mof_unit_13846.cif
_audit_creation_date              2012-12-11T14:25:45-0500
_audit_creation_method            fapswitch 2.2
_symmetry_space_group_name_H-M    P1
_symmetry_Int_Tables_number       1
_space_group_crystal_system       triclinic
_cell_length_a                    7.104017
_cell_length_b                    14.830368
_cell_length_c                    16.36297
_cell_angle_alpha                 89.889701
_cell_angle_beta                  88.113633
_cell_angle_gamma                 87.782883
_cell_volume                      1721.69932928

loop_
_atom_site_label
_atom_site_type_symbol
_atom_type_description
_atom_site_fract_x
_atom_site_fract_y
_atom_site_fract_z
_atom_type_partial_charge
O1    O     O_R   0.494490 0.416160 0.413410 -0.537753
O2    O     O_R   0.823830 0.407240 0.585990 -0.498558
O3    O     O_R   0.994160 0.583840 0.586590 -0.531635
C1    C     C_R   0.655906 0.386221 0.613699 0.787168
O4    O     O_R   0.824200 0.405280 0.414020 -0.539780
O5    O     O_R   0.994530 0.581860 0.413390 -0.561128
C2    C     C_R   0.658864 0.386800 0.384177 0.772335
O6    O     O_R   0.494110 0.418140 0.586610 -0.538208
O7    O     O_3   0.660810 0.557940 0.500000 -0.411447
V1    V     V_3+5 0.935650 0.489250 0.500000 1.570813
O8    O     O_R   0.324250 0.592760 0.414010 -0.531377
C3    C     C_R   0.155256 0.611752 0.385071 0.686624
O9    O     O_R   0.323880 0.594720 0.585980 -0.554330
C4    C     C_R   0.152243 0.616025 0.614838 0.847364
V2    V     V_3+5 0.435660 0.510750 0.500000 1.497855
O10   O     O_3   0.160630 0.442060 0.500000 -0.355112
C5    C     C_3   0.969233 0.673608 0.746930 0.084711
H1    H     H_    0.855449 0.697637 0.714876 0.141817
C6    C     C_3   0.959479 0.739525 0.823942 0.170604
H2    H     H_    0.983402 0.897675 0.715752 0.162394
C7    C     C_3   0.124825 0.787640 0.650704 0.551079
C8    C     C_3   0.306436 0.670916 0.746125 -0.059430
C9    C     C_3   0.141357 0.686093 0.685693 -0.151771
H3    H     H_    0.273176 0.613305 0.786631 0.190082
C10   C     C_3   0.121865 0.809342 0.809212 -0.142900
C11   C     C_3   0.111791 0.857545 0.722950 0.167557
C12   C     C_3   0.311499 0.753270 0.804146 -0.480888
H4    H     H_    0.358624 0.732916 0.865873 0.146227
H5    H     H_    0.411697 0.795922 0.774660 0.244426
C13   C     C_2   0.005586 0.727317 0.293249 0.093982
C14   C     C_2   0.145384 0.664077 0.308158 0.282711
C15   C     C_2   0.993258 0.773453 0.212429 -0.141842
C16   C     C_2   0.126739 0.828827 0.184966 0.272266
H6    H     H_    0.864662 0.768058 0.178978 0.127204
C17   C     C_2   0.766960 0.205609 0.778615 -0.226505
C18   C     C_2   0.609534 0.165430 0.805855 0.203042
H7    H     H_    0.897370 0.192877 0.810282 0.180899
C19   C     C_2   0.780279 0.261237 0.703155 0.472587
C20   C     C_2   0.646876 0.325412 0.685210 -0.271398
H8    H     H_    0.525636 0.336304 0.726560 0.157017
C21   C     C_2   0.757388 0.217627 0.204827 0.374562
C22   C     C_2   0.605366 0.167568 0.185270 -0.088541
C23   C     C_2   0.775762 0.268449 0.283187 -0.150292
C24   C     C_2   0.648605 0.332547 0.308469 -0.318885
H9    H     H_    0.904764 0.258208 0.316375 0.169074
H10   H     H_    0.524506 0.344928 0.272309 0.161284
O11   O     O_R   0.770850 0.076180 0.907410 -0.554194
O12   O     O_R   0.440600 0.088970 0.079950 -0.536649
O13   O     O_R   0.270430 0.912340 0.080550 -0.519941
C25   C     C_R   0.605814 0.110175 0.108892 0.792555
O14   O     O_R   0.441120 0.087010 0.907980 -0.503909
O15   O     O_R   0.270950 0.910370 0.907350 -0.541463
C26   C     C_R   0.608838 0.106474 0.878960 0.698140
O16   O     O_R   0.770320 0.078150 0.080620 -0.512278
O17   O     O_3   0.604200 0.936340 0.994000 -0.398939
V3    V     V_3+5 0.329300 0.004970 0.993950 1.585100
O18   O     O_R   0.941240 0.899420 0.907920 -0.554913
C27   C     C_R   0.112914 0.879247 0.878903 0.759570
O19   O     O_R   0.940720 0.901380 0.079890 -0.560041
C28   C     C_R   0.109719 0.883001 0.109360 0.647829
V4    V     V_3+5 0.829310 0.983370 0.993880 1.480813
O20   O     O_3   0.104280 0.052120 0.993920 -0.342280
Cl1   Cl    Cl    0.294926 0.818359 0.573716 -0.517925
Cl2   Cl    Cl    0.273859 0.948142 0.713583 -0.497896
C29   C     C_3   0.861225 0.759102 0.358191 -0.384648
C30   C     C_3   0.673376 0.715292 0.346820 -0.545532
H11   H     H_    0.567936 0.741730 0.393266 0.256367
H12   H     H_    0.621914 0.730595 0.285023 0.276761
H13   H     H_    0.688378 0.640965 0.353197 0.225580
H14   H     H_    0.910129 0.745665 0.420830 0.234817
H15   H     H_    0.839570 0.833577 0.353665 0.235716
Cl3   Cl    Cl    0.303901 0.626060 0.228758 -0.640591
Cl4   Cl    Cl    0.326434 0.846339 0.243985 -0.671935
Cl5   Cl    Cl    0.399499 0.171488 0.750327 -0.493334
Cl6   Cl    Cl    0.983917 0.240377 0.640274 -0.482083
Cl7   Cl    Cl    0.935370 0.554949 0.768343 -0.723660
Cl8   Cl    Cl    0.953426 0.228120 0.136759 -0.643161
C31   C     C_3   0.433321 0.161720 0.243283 -0.463049
C32   C     C_3   0.397211 0.065029 0.269147 -0.575348
H16   H     H_    0.346254 0.026825 0.216838 0.252796
H17   H     H_    0.527763 0.031529 0.292106 0.244150
H18   H     H_    0.286104 0.064842 0.318524 0.244734
H19   H     H_    0.445595 0.199487 0.300704 0.213329
H20   H     H_    0.307831 0.190515 0.212550 0.252897
C33   C     C_3   0.997388 0.685122 0.906612 -0.259622
C34   C     C_3   0.830832 0.635795 0.946885 -0.642037
H21   H     H_    0.745785 0.681881 0.988228 0.190872
H22   H     H_    0.736414 0.607788 0.901728 0.253659
H23   H     H_    0.885711 0.579334 0.985146 0.244904
H24   H     H_    0.114022 0.634231 0.898249 0.206233
H25   H     H_    0.046367 0.731137 0.954221 0.134865
C35   C     C_3   0.754444 0.786874 0.835089 -0.356701
C36   C     C_3   0.693829 0.877329 0.791985 -0.645447
H26   H     H_    0.778878 0.936764 0.800221 0.218798
H27   H     H_    0.677086 0.870528 0.725884 0.255468
H28   H     H_    0.559835 0.903184 0.820483 0.239003
H29   H     H_    0.657782 0.736340 0.821939 0.163771
H30   H     H_    0.715736 0.797350 0.900611 0.216547
Cl9   Cl    Cl    0.921515 0.804174 0.589930 -0.674450
C37   C     C_3   0.498948 0.633748 0.712697 -0.358855
C38   C     C_3   0.587218 0.688567 0.642790 -0.467442
H31   H     H_    0.714161 0.651639 0.621605 0.222168
H32   H     H_    0.527743 0.695759 0.582852 0.263281
H33   H     H_    0.605855 0.757341 0.663028 0.241817
H34   H     H_    0.592864 0.624236 0.763539 0.194118
H35   H     H_    0.492547 0.561633 0.695186 0.197765

loop_
_geom_bond_atom_site_label_1
_geom_bond_atom_site_label_2
_ccdc_geom_bond_type
C6    C35   S    
C30   H12   S    
O17   V3    S    
C36   H26   S    
C12   H5    S    
C21   C22   D    
C17   C18   D    
C1    O6    A    
C33   H25   S    
C35   H30   S    
C33   C34   S    
C37   H34   S    
C5    C9    S    
O13   C28   A    
C17   H7    S    
O5    C3    A    
C19   C20   D    
C7    Cl9   S    
C34   H22   S    
C30   H13   S    
C29   H14   S    
O14   V3    S    
C11   Cl2   S    
C35   C36   S    
C18   C26   S    
O8    V2    S    
C31   H19   S    
C5    Cl7   S    
O1    V2    S    
C13   C15   S    
O7    V1    S    
O11   C26   A    
O12   C25   A    
C30   H11   S    
O19   C28   A    
C36   H27   S    
O9    C4    A    
C21   C23   S    
C7    C11   S    
C24   H10   S    
C35   H29   S    
C19   Cl6   S    
O15   C27   A    
O19   V4    S    
C8    C37   S    
V2    O10   S    
C38   H31   S    
C17   C19   S    
C20   H8    S    
O4    C2    A    
C34   H21   S    
O6    V2    S    
C10   C11   S    
C29   H15   S    
O14   C26   A    
C15   H6    S    
C4    C9    S    
O2    C1    A    
C23   C24   D    
O5    V1    S    
C1    C20   S    
C33   H24   S    
C5    H1    S    
C25   O16   A    
C2    C24   S    
C16   C28   S    
C23   H9    S    
O3    C4    A    
C18   Cl5   S    
C22   C25   S    
C16   Cl4   S    
C14   Cl3   S    
C22   C31   S    
C36   H28   S    
C8    C12   S    
O9    V2    S    
C3    C14   S    
C8    H3    S    
C10   C12   S    
C10   C27   S    
O2    V1    S    
C32   H17   S    
O12   V3    S    
O1    C2    A    
C6    C33   S    
C34   H23   S    
O11   V4    S    
C32   H18   S    
O8    C3    A    
O18   V4    S    
O16   V4    S    
C38   H33   S    
O13   V3    S    
C37   H35   S    
C15   C16   D    
C7    C9    S    
O7    V2    S    
O4    V1    S    
O3    V1    S    
V1    O10   S    
C21   Cl8   S    
C31   C32   S    
O18   C27   A    
C13   C14   D    
H2    C11   S    
O17   V4    S    
C37   C38   S    
C5    C6    S    
V3    O20   S    
V4    O20   S    
C6    C10   S    
C7    Cl1   S    
C13   C29   S    
C32   H16   S    
C31   H20   S    
C38   H32   S    
C29   C30   S    
C12   H4    S    
C8    C9    S    
O15   V3    S    
