data_mof_unit_28101.cif
_audit_creation_date              2012-10-26T19:48:06-0400
_audit_creation_method            fapswitch 2.2
_symmetry_space_group_name_H-M    P1
_symmetry_Int_Tables_number       1
_space_group_crystal_system       triclinic
_cell_length_a                    10.733851
_cell_length_b                    9.416235
_cell_length_c                    10.619489
_cell_angle_alpha                 89.692058
_cell_angle_beta                  89.420371
_cell_angle_gamma                 89.833056
_cell_volume                      1073.26310099

loop_
_atom_site_label
_atom_site_type_symbol
_atom_type_description
_atom_site_fract_x
_atom_site_fract_y
_atom_site_fract_z
_atom_type_partial_charge
C1    C     C_R   0.259871 0.500248 0.504576 0.548372
C2    C     C_3   0.929402 0.471298 0.362243 0.509915
C3    C     C_3   0.608968 0.083096 0.570883 -0.108066
C4    C     C_3   0.609191 0.915527 0.570574 -0.106318
C5    C     C_3   0.386980 0.083757 0.565222 -0.104352
C6    C     C_3   0.387042 0.916241 0.565292 -0.103965
C7    C     C_3   0.504500 0.084256 0.373203 -0.104497
C8    C     C_3   0.504806 0.917103 0.373192 -0.106628
C9    C     C_R   0.499800 0.500322 0.259263 0.578388
C10   C     C_R   0.740150 0.499894 0.501271 0.613359
C11   C     C_R   0.498065 0.499568 0.740786 0.544441
C12   C     C_3   0.498616 0.500728 0.122362 0.053022
C13   C     C_3   0.518601 0.632679 0.039442 -0.112687
C14   C     C_3   0.386719 0.454438 0.044304 -0.135240
C15   C     C_3   0.406706 0.586322 0.959029 -0.126021
C16   C     C_3   0.496614 0.498572 0.877640 0.050342
C17   C     C_3   0.608284 0.544644 0.955778 -0.131467
C18   C     C_3   0.476389 0.366571 0.960419 -0.121578
C19   C     C_3   0.588160 0.412712 0.040823 -0.124486
C20   C     C_3   0.904735 0.560709 0.155867 0.017422
C21   C     C_3   0.894741 0.700579 0.084496 -0.402089
C22   C     C_3   0.950106 0.229508 0.284741 -0.038799
C23   C     C_3   0.070273 0.644983 0.551393 -0.256086
C24   C     C_3   0.870843 0.102647 0.248885 -0.383930
C25   C     C_3   0.070623 0.381378 0.591168 -0.259678
C26   C     C_3   0.927668 0.644721 0.548131 -0.260454
C27   C     C_3   0.927377 0.382257 0.590341 -0.274016
C28   C     C_3   0.077053 0.476741 0.368055 -0.181154
C29   C     C_3   0.122109 0.500637 0.504211 0.007816
C30   C     C_3   0.878656 0.499444 0.499461 0.108327
Cu1   Cu    Cu3+1 0.499860 0.642410 0.500060 0.880805
Cu2   Cu    Cu3+1 0.499860 0.357590 0.500060 0.888957
H1    H     H_    0.332428 0.657075 0.922216 0.092902
H2    H     H_    0.588855 0.123554 0.322537 0.129260
H3    H     H_    0.589763 0.878408 0.322987 0.120155
H4    H     H_    0.302054 0.121162 0.515991 0.108111
H5    H     H_    0.302148 0.879747 0.516228 0.108710
H6    H     H_    0.536171 0.741595 0.074539 0.097453
H7    H     H_    0.296163 0.417778 0.083948 0.084665
H8    H     H_    0.698433 0.580975 0.915205 0.089553
H9    H     H_    0.459062 0.257649 0.925218 0.099210
H10   H     H_    0.660898 0.339757 0.077261 0.107850
H11   H     H_    0.105132 0.733595 0.490955 0.124907
H12   H     H_    0.609145 0.121888 0.669623 0.108251
H13   H     H_    0.104879 0.275772 0.559359 0.114165
H14   H     H_    0.102068 0.665145 0.649149 0.113296
H15   H     H_    0.103966 0.396802 0.689064 0.114206
H16   H     H_    0.890210 0.665490 0.644500 0.093931
H17   H     H_    0.891354 0.401606 0.687465 0.095108
H18   H     H_    0.895699 0.733517 0.486770 0.156070
H19   H     H_    0.893631 0.275690 0.561924 0.138605
H20   H     H_    0.111345 0.567923 0.310316 0.108126
H21   H     H_    0.126823 0.384523 0.327563 0.060656
H22   H     H_    0.831112 0.488506 0.122066 0.168692
H23   H     H_    0.610115 0.875037 0.669132 0.112399
H24   H     H_    0.997229 0.513061 0.133478 0.098480
H25   H     H_    0.968856 0.774109 0.115653 0.140294
H26   H     H_    0.906333 0.681777 0.981899 0.079408
H27   H     H_    0.802189 0.750054 0.102343 0.154063
H28   H     H_    0.009314 0.195637 0.364749 0.117009
H29   H     H_    0.007357 0.259166 0.200866 0.109457
H30   H     H_    0.806481 0.132235 0.171752 0.139873
H31   H     H_    0.931912 0.014495 0.216560 0.094738
H32   H     H_    0.815778 0.065454 0.331635 0.136115
H33   H     H_    0.697113 0.120758 0.526712 0.121537
H34   H     H_    0.697285 0.878747 0.525545 0.112185
H35   H     H_    0.379529 0.123141 0.663588 0.107967
H36   H     H_    0.379769 0.875885 0.663718 0.109814
H37   H     H_    0.422784 0.123002 0.319131 0.110698
H38   H     H_    0.423533 0.878980 0.318779 0.111053
N1    N     N_3   0.500250 0.143650 0.502780 -0.222496
N2    N     N_3   0.500250 0.856350 0.502780 -0.221259
O1    O     O_R   0.317570 0.620260 0.500070 -0.518601
O2    O     O_3   0.871001 0.342735 0.319736 -0.553819
O3    O     O_R   0.317570 0.379740 0.500070 -0.519329
O4    O     O_R   0.499850 0.620240 0.316900 -0.510099
O5    O     O_R   0.499850 0.379760 0.316900 -0.506472
O6    O     O_R   0.682190 0.620260 0.500030 -0.510621
O7    O     O_R   0.682190 0.379740 0.500030 -0.485635
O8    O     O_R   0.499910 0.620280 0.683200 -0.517003
O9    O     O_R   0.499910 0.379720 0.683200 -0.520121
O10   O     O_3   0.887560 0.586655 0.286074 -0.563168

loop_
_geom_bond_atom_site_label_1
_geom_bond_atom_site_label_2
_ccdc_geom_bond_type
C20   O10   S    
C14   C18   S    
C20   H24   S    
C22   H28   S    
Cu2   O3    S    
C10   O6    A    
Cu1   O8    S    
C11   O9    A    
C6    N2    S    
Cu2   O9    S    
C23   C29   S    
C28   C29   S    
C21   H27   S    
C26   H18   S    
C7    N1    S    
C5    C6    S    
Cu1   O1    S    
C15   C16   S    
C5    H4    S    
C23   H11   S    
C18   C19   S    
C23   C26   S    
C14   H7    S    
C16   C17   S    
C9    O4    A    
C25   H15   S    
C2    O2    S    
C19   H10   S    
C5    H35   S    
C6    H36   S    
Cu2   O5    S    
C24   H32   S    
C23   H14   S    
C27   C30   S    
C3    H33   S    
C27   H19   S    
Cu2   N1    S    
C25   C29   S    
C3    H12   S    
C8    N2    S    
C1    O3    A    
C7    C8    S    
C20   H22   S    
C18   H9    S    
C17   H8    S    
C3    N1    S    
C21   H25   S    
C11   C16   S    
C10   C30   S    
Cu1   Cu2   S    
C10   O7    A    
C1    C29   S    
C6    H5    S    
C9    O5    A    
C12   C13   S    
C13   H6    S    
Cu1   N2    S    
C12   C14   S    
C26   C30   S    
C24   H31   S    
C13   C15   S    
C4    H23   S    
C7    H2    S    
C22   C24   S    
C2    O10   S    
C22   O2    S    
C3    C4    S    
C25   H13   S    
C4    N2    S    
Cu1   O6    S    
C24   H30   S    
C7    H37   S    
C28   H21   S    
C26   H16   S    
C25   C27   S    
C8    H38   S    
C13   C17   S    
C2    C30   S    
C1    O1    A    
C21   H26   S    
C5    N1    S    
Cu2   O7    S    
C4    H34   S    
C28   H20   S    
Cu1   O4    S    
C12   C19   S    
C17   C19   S    
C15   H1    S    
C9    C12   S    
C11   O8    A    
C20   C21   S    
C16   C18   S    
C14   C15   S    
C2    C28   S    
C8    H3    S    
C27   H17   S    
C22   H29   S    
