data_mof_unit_31889.cif
_audit_creation_date              2012-12-10T18:16:23-0500
_audit_creation_method            fapswitch 2.2
_symmetry_space_group_name_H-M    P1
_symmetry_Int_Tables_number       1
_space_group_crystal_system       triclinic
_cell_length_a                    12.599789
_cell_length_b                    13.053632
_cell_length_c                    27.72561
_cell_angle_alpha                 90.728951
_cell_angle_beta                  103.383551
_cell_angle_gamma                 81.705815
_cell_volume                      4388.85922339

loop_
_atom_site_label
_atom_site_type_symbol
_atom_type_description
_atom_site_fract_x
_atom_site_fract_y
_atom_site_fract_z
_atom_type_partial_charge
C1    C     C_R   0.437951 0.691563 0.490575 0.889920
C2    C     C_R   0.497739 0.588632 0.026354 0.012131
C3    C     C_R   0.518772 0.398039 0.026932 0.062140
C4    C     C_R   0.501543 0.500125 0.593920 0.864155
C5    C     C_R   0.506292 0.493332 0.051756 0.071797
C6    C     C_R   0.475149 0.681549 0.051019 -0.331635
C7    C     C_R   0.471423 0.682086 0.100872 0.512064
C8    C     C_R   0.484184 0.587538 0.126986 -0.138676
C9    C     C_R   0.501707 0.493215 0.102358 -0.119530
C10   C     C_R   0.514741 0.398410 0.128399 0.011820
C11   C     C_R   0.511181 0.399023 0.178382 0.497582
C12   C     C_R   0.418413 0.477499 0.714568 -0.112101
C13   C     C_R   0.480323 0.583820 0.177241 0.527418
C14   C     C_R   0.395377 0.505773 0.267796 -0.109058
C15   C     C_R   0.396317 0.508776 0.318026 -0.232182
C16   C     C_R   0.561812 0.308495 0.505510 0.917323
C17   C     C_R   0.596742 0.479160 0.338092 -0.222699
C18   C     C_R   0.595529 0.475796 0.287902 -0.119504
C19   C     C_R   0.494961 0.489558 0.252838 0.327109
C20   C     C_R   0.509421 0.588546 0.976776 0.013249
C21   C     C_R   0.513701 0.494408 0.950932 0.072123
C22   C     C_R   0.515556 0.399077 0.975481 0.061792
C23   C     C_R   0.514227 0.496392 0.748439 0.313178
C24   C     C_R   0.519003 0.679826 0.952446 -0.332412
C25   C     C_R   0.513541 0.309785 0.897570 -0.141807
C26   C     C_R   0.534496 0.304679 0.054631 -0.223366
C27   C     C_R   0.532311 0.305091 0.104358 -0.144886
C28   C     C_R   0.498748 0.499452 0.406180 0.814294
C29   C     C_R   0.513054 0.307896 0.947454 -0.223143
C30   C     C_R   0.713573 0.060867 0.472037 0.524994
C31   C     C_R   0.600721 0.198844 0.503802 -0.264669
C32   C     C_R   0.287522 0.844712 0.479169 0.482837
C33   C     C_R   0.261000 0.952045 0.482203 -0.301446
C34   C     C_R   0.516396 0.495475 0.900114 -0.119853
C35   C     C_R   0.341619 0.015621 0.485458 -0.156488
C36   C     C_R   0.450432 0.973698 0.483595 0.120674
C37   C     C_R   0.472028 0.868477 0.472714 0.011502
C38   C     C_R   0.537014 0.033901 0.489329 -0.071825
C39   C     C_R   0.632769 0.996410 0.471793 -0.045567
C40   C     C_R   0.519592 0.586988 0.824932 0.528887
C41   C     C_R   0.644581 0.896494 0.453308 -0.205348
C42   C     C_R   0.566186 0.832815 0.454447 -0.158828
C43   C     C_R   0.532428 0.129687 0.512682 0.422367
C44   C     C_R   0.693102 0.164105 0.484997 -0.363904
C45   C     C_R   0.519055 0.589173 0.875647 -0.135272
C46   C     C_R   0.397367 0.802099 0.479368 -0.259446
C47   C     C_R   0.086817 0.345452 0.430357 0.269019
C48   C     C_R   0.798991 0.631887 0.558341 0.639889
C49   C     C_R   0.904587 0.662051 0.568781 -0.395727
C50   C     C_R   0.983896 0.614668 0.545152 -0.268655
C51   C     C_R   0.960866 0.534312 0.511642 0.076268
C52   C     C_R   0.517006 0.404494 0.823414 0.500636
C53   C     C_R   0.853998 0.505390 0.502477 0.150781
C54   C     C_R   0.039897 0.480600 0.487554 -0.047448
C55   C     C_R   0.010050 0.399689 0.454650 0.007593
C56   C     C_R   0.520565 0.681722 0.902353 0.511181
C57   C     C_R   0.905105 0.371143 0.447844 -0.242133
C58   C     C_R   0.828277 0.424424 0.470621 -0.215308
C59   C     C_R   0.148603 0.502198 0.495762 -0.180111
C60   C     C_R   0.196132 0.365730 0.443086 0.505143
C61   C     C_R   0.605746 0.516991 0.731786 -0.110990
C62   C     C_R   0.601572 0.518673 0.681280 -0.216027
C63   C     C_R   0.414007 0.478984 0.664061 -0.229755
C64   C     C_3   0.892889 0.983125 0.492535 0.085034
C65   C     C_3   0.966830 0.063305 0.514057 -0.847934
C66   C     C_3   0.511911 0.162901 0.591378 0.100448
C67   C     C_R   0.516105 0.402530 0.873665 0.012480
C68   C     C_3   0.427390 0.190863 0.622406 -0.771010
C69   C     C_3   0.132214 0.798219 0.429344 0.107898
C70   C     C_3   0.053881 0.718077 0.421692 -0.839245
C71   C     C_3   0.280226 0.296322 0.381669 0.120043
C72   C     C_3   0.392746 0.246679 0.374875 -0.768052
C73   C     C_3   0.001254 0.308547 0.351615 0.048090
C74   C     C_3   0.972876 0.221196 0.316335 -0.787459
C75   C     C_3   0.718116 0.776470 0.594581 0.059769
C76   C     C_3   0.611098 0.818011 0.609226 -0.758128
C77   C     C_3   0.431455 0.840494 0.872312 0.125957
C78   C     C_R   0.505657 0.499481 0.647052 -0.043942
C79   C     C_3   0.441364 0.936745 0.844271 -0.747553
C80   C     C_3   0.541540 0.826060 0.133091 0.118572
C81   C     C_3   0.518285 0.924427 0.161196 -0.737840
C82   C     C_R   0.497076 0.495876 0.353428 -0.019165
H1    H     H_    0.679910 0.531642 0.758039 0.146230
H2    H     H_    0.178402 0.562554 0.519644 0.192098
H3    H     H_    0.062755 0.641800 0.554565 0.177901
H4    H     H_    0.318640 0.522935 0.329109 0.145281
H5    H     H_    0.317642 0.516987 0.240476 0.134381
H6    H     H_    0.456278 0.755889 0.032089 0.156880
H7    H     H_    0.339017 0.464110 0.638471 0.164259
H8    H     H_    0.511425 0.237775 0.877719 0.184145
H9    H     H_    0.544553 0.231434 0.123930 0.182978
H10   H     H_    0.943058 0.920261 0.476838 0.175714
H11   H     H_    0.865309 0.946164 0.522754 0.112454
H12   H     H_    0.551344 0.229492 0.039313 0.140187
H13   H     H_    0.922399 0.123032 0.533941 0.247838
H14   H     H_    0.041345 0.024844 0.540745 0.218863
H15   H     H_    0.992726 0.101316 0.483922 0.278632
H16   H     H_    0.347362 0.462058 0.727490 0.139847
H17   H     H_    0.567654 0.223046 0.597098 0.125723
H18   H     H_    0.560703 0.086400 0.604729 0.128861
H19   H     H_    0.371869 0.130963 0.618670 0.251408
H20   H     H_    0.469969 0.195622 0.662025 0.222756
H21   H     H_    0.377460 0.267042 0.609758 0.258283
H22   H     H_    0.176502 0.790875 0.398681 0.139073
H23   H     H_    0.675417 0.468286 0.364791 0.156188
H24   H     H_    0.081831 0.876119 0.426823 0.145215
H25   H     H_    0.013705 0.717717 0.453340 0.259158
H26   H     H_    0.989120 0.736820 0.387068 0.209878
H27   H     H_    0.099881 0.640323 0.418141 0.249543
H28   H     H_    0.177875 0.986350 0.482751 0.169406
H29   H     H_    0.261485 0.376196 0.365321 0.110084
H30   H     H_    0.220072 0.248012 0.361168 0.179176
H31   H     H_    0.409850 0.164772 0.388301 0.246981
H32   H     H_    0.394102 0.248830 0.334997 0.215796
H33   H     H_    0.458698 0.288383 0.396017 0.250908
H34   H     H_    0.672513 0.463542 0.276145 0.125288
H35   H     H_    0.881429 0.306397 0.425107 0.196819
H36   H     H_    0.052108 0.356170 0.335846 0.106758
H37   H     H_    0.922950 0.358506 0.353330 0.147209
H38   H     H_    0.919824 0.173927 0.330674 0.267062
H39   H     H_    0.927827 0.253822 0.279223 0.209697
H40   H     H_    0.049414 0.170870 0.312640 0.247381
H41   H     H_    0.724060 0.822858 0.562079 0.138335
H42   H     H_    0.786640 0.786145 0.626902 0.136804
H43   H     H_    0.603068 0.773274 0.641692 0.257224
H44   H     H_    0.610848 0.900596 0.619184 0.191246
H45   H     H_    0.507767 0.233740 0.962599 0.140124
H46   H     H_    0.539489 0.811632 0.578026 0.254240
H47   H     H_    0.410248 0.865309 0.907908 0.115147
H48   H     H_    0.363331 0.802737 0.849447 0.145124
H49   H     H_    0.461202 0.914872 0.808171 0.278283
H50   H     H_    0.362216 0.990273 0.837279 0.193858
H51   H     H_    0.507614 0.977171 0.866419 0.247262
H52   H     H_    0.927451 0.720551 0.595559 0.151883
H53   H     H_    0.749338 0.399537 0.462965 0.208627
H54   H     H_    0.563047 0.848102 0.098258 0.115393
H55   H     H_    0.613401 0.775690 0.156636 0.143395
H56   H     H_    0.747307 0.217228 0.478827 0.193744
H57   H     H_    0.497884 0.905081 0.196574 0.277965
H58   H     H_    0.592126 0.964668 0.169585 0.196225
H59   H     H_    0.447921 0.977115 0.138421 0.248910
H60   H     H_    0.529001 0.751200 0.971822 0.155851
H61   H     H_    0.673318 0.534870 0.669140 0.186395
H62   H     H_    0.715154 0.866501 0.438605 0.177665
H63   H     H_    0.315054 0.097940 0.485938 0.245751
H64   H     H_    0.577899 0.756649 0.438966 0.167904
N1    N     N_R   0.517893 0.495801 0.800248 -0.360727
N2    N     N_R   0.494391 0.490709 0.201445 -0.362711
N3    N     N_R   0.222180 0.444690 0.474320 -0.159089
N4    N     N_R   0.776980 0.554780 0.525420 -0.165648
O1    O     O_R   0.366730 0.627160 0.487740 -0.563034
O2    O     O_R   0.410930 0.482330 0.420550 -0.619188
O3    O     O_R   0.589030 0.517690 0.436960 -0.651344
O4    O     O_2   0.520050 0.674981 0.800011 -0.518184
O5    O     O_3   0.805317 0.027638 0.453514 -0.617721
O6    O     O_3   0.456259 0.158876 0.541104 -0.602448
O7    O     O_3   0.206748 0.781777 0.476290 -0.602692
O8    O     O_3   0.280960 0.295402 0.432619 -0.565682
O9    O     O_3   0.058833 0.265656 0.398737 -0.603727
O10   O     O_3   0.718338 0.670552 0.583357 -0.577893
O11   O     O_3   0.532678 0.773207 0.880866 -0.561257
O12   O     O_2   0.463813 0.671920 0.202173 -0.513569
O13   O     O_3   0.446929 0.775794 0.122697 -0.560229
O14   O     O_2   0.517249 0.315871 0.797753 -0.572969
O15   O     O_2   0.524315 0.308883 0.203898 -0.570165
O16   O     O_R   0.544830 0.662520 0.504140 -0.582215
O17   O     O_R   0.410970 0.482310 0.563040 -0.623664
O18   O     O_R   0.589070 0.517670 0.579450 -0.567376
O19   O     O_R   0.455170 0.337480 0.495860 -0.501645
O20   O     O_R   0.633270 0.372840 0.512260 -0.656874
Zn1   Zn    Zn3+2 0.381080 0.476390 0.489050 0.998497
Zn2   Zn    Zn3+2 0.618920 0.523610 0.510950 0.959833

loop_
_geom_bond_atom_site_label_1
_geom_bond_atom_site_label_2
_ccdc_geom_bond_type
C10   C27   A    
C26   H12   S    
C81   H58   S    
C66   C68   S    
C49   H52   S    
O16   Zn2   S    
C8    C13   A    
C73   H37   S    
C22   C29   A    
C48   N4    A    
C76   H44   S    
C41   C42   A    
C35   C36   A    
C25   C67   A    
C68   H21   S    
C62   H61   S    
C30   C44   A    
C6    H6    S    
C13   O12   S    
C39   C41   A    
C47   O9    S    
C16   C31   S    
C5    C9    A    
C48   O10   S    
C12   C23   A    
C26   C27   A    
C31   C43   A    
C75   H41   S    
C57   H35   S    
C36   C37   A    
C60   O8    S    
C14   H5    S    
C18   C19   A    
C70   H25   S    
C35   H63   S    
C38   C39   A    
C11   N2    A    
C23   C61   A    
C80   H55   S    
C72   H32   S    
O1    Zn1   S    
C17   C82   A    
C73   C74   S    
C66   H18   S    
C37   C42   A    
C50   H3    S    
C47   C60   A    
C16   O19   A    
C65   H14   S    
N4    Zn2   S    
C20   C24   A    
C45   C56   A    
C24   H60   S    
C8    C9    A    
C71   H29   S    
C69   O7    S    
C27   H9    S    
C9    C10   A    
C12   H16   S    
C77   H48   S    
C81   H59   S    
C21   C22   A    
C25   C29   A    
C76   H43   S    
O19   Zn1   S    
C40   O4    S    
C2    C6    A    
C17   C18   A    
C15   C82   A    
C54   C59   A    
C59   N3    A    
C77   O11   S    
C40   C45   A    
C79   H51   S    
C31   C44   A    
C2    C20   A    
C75   H42   S    
C7    C8    A    
C59   H2    S    
C41   H62   S    
C61   H1    S    
C18   H34   S    
O2    Zn1   S    
O17   Zn1   S    
C21   C34   A    
C28   C82   S    
C72   H31   S    
C4    O18   A    
C51   C53   A    
C66   H17   S    
C7    O13   S    
C75   C76   S    
C80   O13   S    
C4    C78   S    
C70   H27   S    
C17   H23   S    
C64   O5    S    
O18   Zn2   S    
C69   H24   S    
C79   H49   S    
C71   H30   S    
C63   H7    S    
C50   C51   A    
C25   H8    S    
C77   C79   S    
C34   C45   A    
C77   H47   S    
C68   H19   S    
C52   C67   A    
C52   O14   S    
C15   H4    S    
C48   C49   A    
C74   H40   S    
C28   O2    A    
C52   N1    A    
C29   H45   S    
C53   N4    A    
C76   H46   S    
C2    C5    A    
C64   H10   S    
C43   O6    S    
C42   H64   S    
C47   C55   A    
C32   O7    S    
C69   H22   S    
C81   H57   S    
C71   O8    S    
C54   C55   A    
C30   O5    S    
C44   H56   S    
C73   H36   S    
C40   N1    A    
N3    Zn1   S    
C32   C46   A    
C14   C19   A    
C62   C78   A    
C3    C26   A    
C68   H20   S    
C80   C81   S    
C3    C5    A    
C34   C67   A    
C64   H11   S    
C53   C58   A    
C6    C7    A    
C58   H53   S    
C24   C56   A    
C74   H38   S    
C73   O9    S    
C19   N2    S    
C80   H54   S    
C4    O17   A    
C51   C54   A    
C64   C65   S    
C55   C57   A    
C65   H15   S    
C38   C43   A    
C70   H26   S    
C32   C33   A    
C66   O6    S    
C57   C58   A    
C28   O3    A    
C23   N1    S    
C1    O16   A    
C79   H50   S    
C56   O11   S    
O3    Zn2   S    
C36   C38   A    
C33   C35   A    
C30   C39   A    
C1    O1    A    
C60   N3    A    
C61   C62   A    
C1    C46   S    
C69   C70   S    
C10   C11   A    
C16   O20   A    
C65   H13   S    
C74   H39   S    
C71   C72   S    
C20   C21   A    
C49   C50   A    
C11   O15   S    
C75   O10   S    
C14   C15   A    
C3    C22   A    
C33   H28   S    
O20   Zn2   S    
C13   N2    A    
C37   C46   A    
C12   C63   A    
C72   H33   S    
C63   C78   A    
