data_mof_unit_56993.cif
_audit_creation_date              2012-12-11T15:55:01-0500
_audit_creation_method            fapswitch 2.2
_symmetry_space_group_name_H-M    P1
_symmetry_Int_Tables_number       1
_space_group_crystal_system       triclinic
_cell_length_a                    17.572667
_cell_length_b                    24.427688
_cell_length_c                    15.074001
_cell_angle_alpha                 89.356214
_cell_angle_beta                  126.054616
_cell_angle_gamma                 90.660809
_cell_volume                      5230.81898721

loop_
_atom_site_label
_atom_site_type_symbol
_atom_type_description
_atom_site_fract_x
_atom_site_fract_y
_atom_site_fract_z
_atom_type_partial_charge
C1    C     C_R   0.905966 0.873362 0.093942 -0.136216
C2    C     C_R   0.904299 0.127333 0.090818 -0.132459
C3    C     C_R   0.401476 0.377840 0.092284 -0.127395
C4    C     C_R   0.408758 0.628697 0.093969 -0.147006
C5    C     C_R   0.058546 0.847228 0.911908 0.480303
C6    C     C_R   0.054839 0.154158 0.910671 0.469737
C7    C     C_R   0.557792 0.349352 0.907463 0.481053
C8    C     C_R   0.554709 0.653938 0.911027 0.478616
C9    C     C_R   0.146074 0.152970 0.091919 -0.251492
C10   C     C_R   0.151149 0.849006 0.093780 -0.258337
C11   C     C_R   0.646460 0.652598 0.092397 -0.252153
C12   C     C_R   0.652288 0.348691 0.090234 -0.244974
C13   C     C_R   0.321618 0.001345 0.259193 0.117837
C14   C     C_R   0.824346 0.501567 0.271971 0.127018
C15   C     C_R   0.071324 0.997321 0.750242 0.088625
C16   C     C_R   0.555358 0.501648 0.733554 0.075665
C17   C     C_R   0.124876 0.818205 0.004182 -0.122329
C18   C     C_R   0.115938 0.185638 0.001896 -0.123469
C19   C     C_R   0.624867 0.319430 0.997355 -0.141685
C20   C     C_R   0.615841 0.685132 0.002497 -0.130605
C21   C     C_3   0.963393 0.027375 0.446720 0.746659
C22   C     C_3   0.054736 0.931108 0.498031 0.793083
C23   C     C_3   0.453325 0.484052 0.428897 0.783035
C24   C     C_3   0.629436 0.443681 0.553222 0.822421
C25   C     C_3   0.999552 0.039178 0.567007 -0.153677
C26   C     C_3   0.059427 0.935571 0.605401 -0.071226
C27   C     C_3   0.456931 0.498193 0.532365 -0.117595
C28   C     C_3   0.616453 0.448139 0.647804 -0.064624
C29   C     C_3   0.144603 0.022401 0.548037 -0.623744
C30   C     C_3   0.598638 0.547016 0.521677 -0.649435
C31   C     C_3   0.046431 0.993474 0.457848 -0.049959
C32   C     C_3   0.558242 0.489578 0.464238 -0.127817
C33   C     C_3   0.080584 0.996989 0.654016 -0.073393
C34   C     C_3   0.563646 0.502096 0.640938 -0.083815
C35   C     C_R   0.812702 0.127039 0.905815 -0.168970
C36   C     C_R   0.811337 0.873847 0.909422 -0.165469
C37   C     C_R   0.314109 0.629332 0.908613 -0.176525
C38   C     C_R   0.307893 0.378903 0.908813 -0.182087
C39   C     C_3   0.176589 0.013533 0.670517 1.032736
C40   C     C_3   0.616361 0.553221 0.634578 1.021320
C41   C     C_3   0.688557 0.208429 0.875983 -0.487917
C42   C     C_3   0.656629 0.823960 0.915740 -0.436122
C43   C     C_3   0.278485 0.741171 0.950373 -0.414408
C44   C     C_3   0.148006 0.333517 0.930172 -0.433616
C45   C     C_3   0.224210 0.788666 0.952055 -0.392928
C46   C     C_3   0.092579 0.282390 0.925526 -0.368892
C47   C     C_3   0.631711 0.254316 0.876084 -0.318362
C48   C     C_3   0.598245 0.778324 0.920203 -0.400645
C49   C     C_3   0.307200 0.704995 0.124796 -0.414704
C50   C     C_3   0.274702 0.269562 0.961911 -0.404292
C51   C     C_3   0.832120 0.238035 0.058797 -0.399891
C52   C     C_3   0.795201 0.761314 0.987875 -0.419191
C53   C     C_3   0.714117 0.172014 0.048288 -0.415667
C54   C     C_3   0.775659 0.812067 0.118796 -0.400930
C55   C     C_3   0.163853 0.673593 0.941599 -0.438167
C56   C     C_3   0.284025 0.309413 0.121881 -0.409386
C57   C     C_3   0.763963 0.189200 0.995141 0.411367
C58   C     C_3   0.762185 0.815582 0.007075 0.397300
C59   C     C_3   0.268788 0.690076 0.004948 0.409013
C60   C     C_3   0.254894 0.321202 0.003852 0.399577
C61   C     C_3   0.174907 0.770517 0.005729 0.435371
C62   C     C_3   0.162422 0.236865 0.003421 0.423569
C63   C     C_3   0.672662 0.271330 0.995564 0.396317
C64   C     C_3   0.665611 0.734151 0.004905 0.440231
C65   C     C_3   0.250930 0.751601 0.125111 -0.414337
C66   C     C_3   0.223738 0.220373 0.965882 -0.409848
C67   C     C_3   0.777634 0.287076 0.054939 -0.397354
C68   C     C_3   0.733920 0.714193 0.978842 -0.392084
C69   C     C_3   0.107686 0.721422 0.942014 -0.382782
C70   C     C_3   0.226995 0.261220 0.120697 -0.400826
C71   C     C_3   0.664172 0.221861 0.054362 -0.397651
C72   C     C_3   0.723510 0.761614 0.119766 -0.410111
C73   C     C_3   0.475869 0.948484 0.351069 0.137989
C74   C     C_3   0.477209 0.054850 0.348700 0.130097
C75   C     C_3   0.979944 0.453100 0.344475 0.131794
C76   C     C_3   0.975078 0.558779 0.358905 0.131592
C77   C     C_R   0.743409 0.954505 0.695489 -0.096592
C78   C     C_R   0.742446 0.045627 0.696909 -0.100521
C79   C     C_R   0.251087 0.455714 0.690065 -0.075943
C80   C     C_R   0.248137 0.546094 0.693904 -0.091419
C81   C     C_3   0.582553 0.950348 0.450434 0.054307
C82   C     C_3   0.579059 0.056083 0.459202 0.092444
C83   C     C_3   0.088956 0.456306 0.437168 0.071288
C84   C     C_3   0.079380 0.559936 0.463901 0.086423
C85   C     C_3   0.429441 0.005575 0.454371 -0.853165
C86   C     C_3   0.941925 0.497998 0.466935 -0.841481
C87   C     C_3   0.424747 0.002140 0.347677 0.158576
C88   C     C_3   0.928519 0.502603 0.354945 0.151452
C89   C     C_3   0.599801 0.000332 0.525869 -0.000426
C90   C     C_3   0.108005 0.501510 0.522344 0.016932
C91   C     C_3   0.529495 0.993650 0.559447 0.931531
C92   C     C_3   0.045202 0.486030 0.563467 0.928077
C93   C     C_R   0.035857 0.043911 0.298521 -0.084863
C94   C     C_R   0.034506 0.952848 0.294849 -0.165026
C95   C     C_R   0.542193 0.542602 0.302436 -0.083354
C96   C     C_R   0.539655 0.451562 0.296705 -0.188346
C97   C     C_R   0.817899 0.859188 0.003537 0.021615
C98   C     C_R   0.818901 0.144181 0.996955 0.011248
C99   C     C_R   0.311904 0.365393 0.001640 0.003485
C100  C     C_R   0.323452 0.646277 0.002575 0.007019
C101  C     C_R   0.695680 0.000165 0.632508 0.136189
C102  C     C_R   0.206156 0.501493 0.625409 0.097560
C103  C     C_R   0.035320 0.996692 0.351473 0.168093
C104  C     C_R   0.549386 0.494265 0.359325 0.167551
C105  C     C_R   0.266304 0.955051 0.238818 -0.156297
C106  C     C_R   0.265569 0.046483 0.237310 -0.141030
C107  C     C_R   0.768642 0.454955 0.247512 -0.158655
C108  C     C_R   0.767572 0.546762 0.246825 -0.160423
C109  C     C_R   0.040760 0.042899 0.778737 -0.119585
C110  C     C_R   0.028803 0.953597 0.766482 -0.197806
C111  C     C_R   0.527617 0.546413 0.762603 -0.164296
C112  C     C_R   0.523843 0.455179 0.757946 -0.169928
H1    H     H_    0.937915 0.864219 0.178752 0.086827
H2    H     H_    0.932968 0.135708 0.175130 0.103683
H3    H     H_    0.430273 0.370397 0.176742 0.086518
H4    H     H_    0.440761 0.635858 0.179668 0.101968
H5    H     H_    0.937521 0.033210 0.568944 0.160216
H6    H     H_    0.988068 0.926398 0.582049 0.118048
H7    H     H_    0.422428 0.463797 0.545675 0.156015
H8    H     H_    0.566205 0.416113 0.634334 0.114532
H9    H     H_    0.139818 0.066858 0.530158 0.194319
H10   H     H_    0.198549 0.009086 0.537111 0.173303
H11   H     H_    0.545551 0.578255 0.466590 0.206077
H12   H     H_    0.664325 0.557545 0.529876 0.184368
H13   H     H_    0.722620 0.223692 0.837140 0.163797
H14   H     H_    0.645764 0.821549 0.835819 0.174657
H15   H     H_    0.353962 0.752945 0.994521 0.158405
H16   H     H_    0.123786 0.345248 0.846241 0.158858
H17   H     H_    0.640410 0.174273 0.825400 0.176673
H18   H     H_    0.633116 0.864745 0.922886 0.167731
H19   H     H_    0.250468 0.732757 0.863669 0.153361
H20   H     H_    0.133348 0.368827 0.963908 0.158442
H21   H     H_    0.557961 0.239512 0.833580 0.195883
H22   H     H_    0.554514 0.795575 0.944258 0.153421
H23   H     H_    0.172004 0.802963 0.866292 0.189578
H24   H     H_    0.046018 0.293631 0.949750 0.142418
H25   H     H_    0.273374 0.823442 0.998346 0.155656
H26   H     H_    0.046893 0.268138 0.839383 0.210998
H27   H     H_    0.633404 0.289350 0.829293 0.183020
H28   H     H_    0.549247 0.762317 0.836151 0.217690
H29   H     H_    0.382007 0.718629 0.171550 0.153784
H30   H     H_    0.250826 0.275542 0.875720 0.157230
H31   H     H_    0.870049 0.249622 0.022639 0.154995
H32   H     H_    0.791148 0.763235 0.911311 0.153909
H33   H     H_    0.758037 0.134594 0.820222 0.109431
H34   H     H_    0.754627 0.865348 0.824908 0.109837
H35   H     H_    0.257756 0.638339 0.824005 0.103835
H36   H     H_    0.249717 0.372515 0.824078 0.118223
H37   H     H_    0.300579 0.785721 0.174317 0.158966
H38   H     H_    0.179222 0.202370 0.882322 0.198601
H39   H     H_    0.784337 0.321693 0.011140 0.157141
H40   H     H_    0.693700 0.697193 0.894372 0.178398
H41   H     H_    0.765814 0.155451 0.131445 0.166455
H42   H     H_    0.850662 0.807444 0.189100 0.148955
H43   H     H_    0.156415 0.636835 0.980213 0.183718
H44   H     H_    0.359427 0.297716 0.177726 0.154826
H45   H     H_    0.661799 0.138998 0.999307 0.166811
H46   H     H_    0.748839 0.849857 0.132017 0.167876
H47   H     H_    0.134629 0.663181 0.855348 0.168443
H48   H     H_    0.273546 0.346383 0.155970 0.156269
H49   H     H_    0.588748 0.211765 0.014836 0.154246
H50   H     H_    0.676602 0.773680 0.143083 0.155160
H51   H     H_    0.051292 0.732552 0.855748 0.208221
H52   H     H_    0.183907 0.274900 0.148329 0.155880
H53   H     H_    0.072951 0.708135 0.981063 0.149583
H54   H     H_    0.277846 0.230194 0.180498 0.152951
H55   H     H_    0.696600 0.231920 0.141566 0.156553
H56   H     H_    0.776923 0.732733 0.183364 0.154720
H57   H     H_    0.303725 0.669136 0.168093 0.171681
H58   H     H_    0.351669 0.261078 0.012666 0.158552
H59   H     H_    0.886149 0.227053 0.146174 0.151436
H60   H     H_    0.870002 0.753386 0.057108 0.160167
H61   H     H_    0.217429 0.737859 0.165421 0.157465
H62   H     H_    0.276432 0.189473 0.023842 0.173222
H63   H     H_    0.809677 0.300693 0.140435 0.162068
H64   H     H_    0.779912 0.680899 0.036499 0.154843
H65   H     H_    0.445831 0.914451 0.370303 0.091658
H66   H     H_    0.441432 0.091083 0.352421 0.089661
H67   H     H_    0.955409 0.415726 0.362804 0.099001
H68   H     H_    0.939930 0.591648 0.372760 0.087281
H69   H     H_    0.729895 0.912355 0.669232 0.091722
H70   H     H_    0.727124 0.088093 0.672600 0.090994
H71   H     H_    0.238737 0.413782 0.662572 0.111009
H72   H     H_    0.232200 0.588861 0.673149 0.090721
H73   H     H_    0.595482 0.912082 0.497930 0.137058
H74   H     H_    0.577198 0.088240 0.509702 0.123756
H75   H     H_    0.108893 0.415919 0.479663 0.145781
H76   H     H_    0.079314 0.587711 0.521978 0.122370
H77   H     H_    0.372584 0.982037 0.448475 0.180679
H78   H     H_    0.410330 0.047939 0.460937 0.200590
H79   H     H_    0.891297 0.470711 0.465054 0.177939
H80   H     H_    0.921636 0.537819 0.482725 0.201756
H81   H     H_    0.052956 0.085189 0.330061 0.133055
H82   H     H_    0.050790 0.911204 0.319914 0.140224
H83   H     H_    0.556911 0.584212 0.331715 0.080197
H84   H     H_    0.553280 0.409594 0.315927 0.103797
H85   H     H_    0.288512 0.912965 0.254254 0.100412
H86   H     H_    0.286373 0.088969 0.249791 0.100394
H87   H     H_    0.791250 0.412861 0.263315 0.099548
H88   H     H_    0.787411 0.589384 0.259551 0.103774
H89   H     H_    0.066867 0.083495 0.791710 0.150479
H90   H     H_    0.025060 0.911550 0.747584 0.184911
H91   H     H_    0.536849 0.588552 0.752267 0.219936
H92   H     H_    0.529580 0.413087 0.743361 0.161769
H93   H     H_    0.185717 0.165514 0.176656 0.124086
H94   H     H_    0.192770 0.836444 0.178947 0.125577
H95   H     H_    0.687216 0.664867 0.177354 0.124090
H96   H     H_    0.697012 0.334618 0.174456 0.126564
N1    N     N_R   0.950530 0.896220 0.057200 -0.033481
N2    N     N_R   0.950530 0.103780 0.057200 -0.034218
N3    N     N_R   0.450530 0.396220 0.057200 -0.033984
N4    N     N_R   0.450530 0.603780 0.057200 -0.030761
N5    N     N_R   0.893330 0.103780 0.942800 -0.052314
N6    N     N_R   0.893330 0.896220 0.942800 -0.055093
N7    N     N_R   0.393330 0.603780 0.942800 -0.049765
N8    N     N_R   0.393330 0.396220 0.942800 -0.056825
N9    N     N_R   0.818150 0.971400 0.792440 -0.048323
N10   N     N_R   0.818150 0.028600 0.792440 -0.049482
N11   N     N_R   0.318150 0.471400 0.792440 -0.048998
N12   N     N_R   0.318150 0.528600 0.792440 -0.047967
N13   N     N_R   0.025710 0.028600 0.207560 -0.051826
N14   N     N_R   0.025710 0.971400 0.207560 -0.045023
N15   N     N_R   0.525710 0.528600 0.207560 -0.045164
N16   N     N_R   0.525710 0.471400 0.207560 -0.037099
N17   N     N_R   0.181850 0.971400 0.207560 -0.036770
N18   N     N_R   0.181850 0.028600 0.207560 -0.039320
N19   N     N_R   0.681850 0.471400 0.207560 -0.033738
N20   N     N_R   0.681850 0.528600 0.207560 -0.039673
N21   N     N_R   0.974290 0.028600 0.792440 -0.059191
N22   N     N_R   0.974290 0.971400 0.792440 -0.055293
N23   N     N_R   0.474290 0.528600 0.792440 -0.057498
N24   N     N_R   0.474290 0.471400 0.792440 -0.041771
N25   N     N_R   0.049470 0.896220 0.942800 -0.095087
N26   N     N_R   0.049470 0.103780 0.942800 -0.100247
N27   N     N_R   0.549470 0.396220 0.942800 -0.091193
N28   N     N_R   0.549470 0.603780 0.942800 -0.097785
N29   N     N_R   0.106670 0.103780 0.057200 -0.051282
N30   N     N_R   0.106670 0.896220 0.057200 -0.049526
N31   N     N_R   0.606670 0.603780 0.057200 -0.052333
N32   N     N_R   0.606670 0.396220 0.057200 -0.051928
Ni1   Ni    Ni4+2 0.065600 0.934400 0.131190 0.202849
Ni2   Ni    Ni4+2 0.065600 0.065600 0.131190 0.201601
Ni3   Ni    Ni4+2 0.565600 0.434400 0.131190 0.201376
Ni4   Ni    Ni4+2 0.565600 0.565600 0.131190 0.196377
Ni5   Ni    Ni4+2 0.934400 0.065600 0.868810 0.194956
Ni6   Ni    Ni4+2 0.934400 0.934400 0.868810 0.195969
Ni7   Ni    Ni4+2 0.434400 0.565600 0.868810 0.194639
Ni8   Ni    Ni4+2 0.434400 0.434400 0.868810 0.206550
C113  C     C_3   0.866643 0.995992 0.384063 -1.190599
H97   H     H_    0.810862 0.019372 0.379541 0.235677
H98   H     H_    0.840303 0.988028 0.298025 0.276882
H99   H     H_    0.868021 0.958665 0.426203 0.260806
C114  C     C_3   0.967981 0.892577 0.411514 -1.216656
H100  H     H_    0.917977 0.912813 0.331898 0.272200
H101  H     H_    0.984588 0.855190 0.386230 0.233505
H102  H     H_    0.927808 0.876256 0.441601 0.257309
C115  C     C_3   0.412677 0.424173 0.391668 -1.258144
H103  H     H_    0.338403 0.421201 0.362669 0.251146
H104  H     H_    0.416971 0.409018 0.325880 0.268665
H105  H     H_    0.446559 0.394744 0.460072 0.263583
C116  C     C_3   0.615187 0.380089 0.525494 -1.083551
H106  H     H_    0.571932 0.368317 0.439760 0.238616
H107  H     H_    0.683972 0.359246 0.569603 0.285286
H108  H     H_    0.582524 0.355406 0.557044 0.219932
C117  C     C_3   0.028076 0.101438 0.596968 -0.784108
H109  H     H_    0.053176 0.121226 0.552298 0.267612
H110  H     H_    0.968278 0.124987 0.582587 0.220778
H111  H     H_    0.086877 0.110516 0.681201 0.268219
C118  C     C_3   0.124266 0.889779 0.691412 -0.812546
H112  H     H_    0.186781 0.879350 0.695604 0.291207
H113  H     H_    0.157995 0.901747 0.777693 0.231723
H114  H     H_    0.083003 0.851477 0.673743 0.219812
C119  C     C_3   0.391668 0.547156 0.510082 -0.791025
H115  H     H_    0.414820 0.585870 0.493720 0.288900
H116  H     H_    0.319165 0.538606 0.437076 0.226614
H117  H     H_    0.382536 0.553109 0.575612 0.227698
C120  C     C_3   0.707402 0.431913 0.761696 -0.822424
H118  H     H_    0.768706 0.458015 0.786328 0.298152
H119  H     H_    0.697909 0.432600 0.828056 0.205052
H120  H     H_    0.726709 0.389245 0.758375 0.232586
O1    O     O_3   0.216167 0.063263 0.730440 -0.694071
C121  C     C_3   0.276487 0.055422 0.846079 0.316475
H121  H     H_    0.349152 0.048106 0.872716 0.124058
H122  H     H_    0.254176 0.020967 0.875020 0.114207
C122  C     C_3   0.281308 0.107095 0.903552 -1.042456
H123  H     H_    0.215820 0.111281 0.897251 0.249973
H124  H     H_    0.341088 0.104669 0.991848 0.232114
H125  H     H_    0.291589 0.143413 0.866572 0.284190
O2    O     O_3   0.243523 0.969946 0.724205 -0.654314
C123  C     C_3   0.325312 0.975830 0.726821 0.251449
H126  H     H_    0.344776 0.019248 0.726318 0.091389
H127  H     H_    0.314147 0.955098 0.654951 0.149866
C124  C     C_3   0.407339 0.946974 0.828624 -0.990759
H128  H     H_    0.389358 0.903315 0.829031 0.267521
H129  H     H_    0.470660 0.948957 0.829106 0.216037
H130  H     H_    0.424152 0.966380 0.904419 0.249613
O3    O     O_3   0.577122 0.604157 0.635374 -0.695524
C125  C     C_3   0.623426 0.651211 0.630626 0.262870
H131  H     H_    0.627509 0.650617 0.559962 0.086491
H132  H     H_    0.696054 0.655780 0.706286 0.123087
C126  C     C_3   0.569023 0.702165 0.618535 -0.940729
H133  H     H_    0.568279 0.706684 0.691094 0.296556
H134  H     H_    0.603086 0.739028 0.612011 0.206091
H135  H     H_    0.495493 0.699222 0.543494 0.264257
O4    O     O_3   0.715753 0.551766 0.718477 -0.646149
C127  C     C_3   0.742326 0.564175 0.825362 0.236764
H136  H     H_    0.735057 0.527763 0.864163 0.117779
H137  H     H_    0.701036 0.597615 0.827022 0.112366
C128  C     C_3   0.845391 0.581409 0.897183 -0.951495
H138  H     H_    0.855933 0.618653 0.862583 0.252736
H139  H     H_    0.867471 0.590544 0.981325 0.221506
H140  H     H_    0.889873 0.547938 0.901791 0.267385
C129  C     C_3   0.453764 0.929437 0.240370 -0.976249
H141  H     H_    0.482300 0.956349 0.207467 0.263353
H142  H     H_    0.483594 0.888027 0.250855 0.242296
H143  H     H_    0.376882 0.925910 0.176435 0.241459
C130  C     C_3   0.468710 0.065124 0.241932 -0.963132
H144  H     H_    0.517815 0.040455 0.236456 0.255641
H145  H     H_    0.395951 0.056681 0.168936 0.245066
H146  H     H_    0.484456 0.108809 0.237299 0.239167
C131  C     C_3   0.950369 0.440477 0.227699 -0.975031
H147  H     H_    0.971199 0.472094 0.193264 0.264961
H148  H     H_    0.982783 0.401376 0.229213 0.243135
H149  H     H_    0.873055 0.434862 0.169581 0.242407
C132  C     C_3   0.958100 0.576326 0.249659 -0.960872
H150  H     H_    0.004918 0.555757 0.234673 0.256557
H151  H     H_    0.970785 0.621058 0.250753 0.237942
H152  H     H_    0.884237 0.568358 0.178802 0.243139
C133  C     C_3   0.652848 0.946103 0.420748 -0.932440
H153  H     H_    0.655977 0.903026 0.400247 0.237554
H154  H     H_    0.632343 0.971132 0.348661 0.263123
H155  H     H_    0.725084 0.958015 0.490749 0.245504
C134  C     C_3   0.656429 0.077489 0.447194 -0.973232
H156  H     H_    0.643286 0.121343 0.422660 0.241428
H157  H     H_    0.728265 0.074987 0.524133 0.237086
H158  H     H_    0.658824 0.056041 0.385199 0.261573
C135  C     C_3   0.152065 0.460429 0.397278 -0.968197
H159  H     H_    0.155943 0.419808 0.367753 0.238183
H160  H     H_    0.124770 0.489241 0.328184 0.262456
H161  H     H_    0.224977 0.472411 0.465361 0.251818
C136  C     C_3   0.149864 0.588283 0.447010 -0.965049
H162  H     H_    0.133604 0.632653 0.431535 0.238336
H163  H     H_    0.223884 0.584818 0.519197 0.240440
H164  H     H_    0.147778 0.572611 0.377567 0.266274
O5    O     O_3   0.544439 0.939793 0.607959 -0.675202
C137  C     C_3   0.463264 0.908982 0.576892 0.207310
H165  H     H_    0.421527 0.897078 0.489685 0.103051
H166  H     H_    0.418230 0.931389 0.593283 0.078421
C138  C     C_3   0.492456 0.856042 0.641783 -0.951511
H167  H     H_    0.508150 0.864483 0.723015 0.253810
H168  H     H_    0.434242 0.825613 0.599484 0.230047
H169  H     H_    0.554304 0.838513 0.649847 0.265285
O6    O     O_3   0.553567 0.034801 0.639011 -0.664887
C139  C     C_3   0.511889 0.025814 0.694484 0.344730
H170  H     H_    0.540751 0.988302 0.746228 0.138776
H171  H     H_    0.433955 0.023108 0.635927 0.056709
C140  C     C_3   0.535851 0.073554 0.770653 -1.000418
H172  H     H_    0.507060 0.112036 0.722250 0.259465
H173  H     H_    0.504768 0.066660 0.816139 0.222067
H174  H     H_    0.613453 0.077278 0.830728 0.267944
O7    O     O_3   0.068918 0.430048 0.602824 -0.694621
C141  C     C_3   0.996948 0.392044 0.575260 0.164978
H175  H     H_    0.939878 0.390765 0.486835 0.111647
H176  H     H_    0.969217 0.400106 0.623429 0.118427
C142  C     C_3   0.037988 0.334619 0.602370 -0.927705
H177  H     H_    0.985923 0.304703 0.593703 0.232321
H178  H     H_    0.055607 0.323202 0.545297 0.246392
H179  H     H_    0.103133 0.332480 0.686979 0.251188
O8    O     O_3   0.070800 0.522422 0.651037 -0.672379
C143  C     C_3   0.056566 0.500086 0.727051 0.355412
H180  H     H_    0.104911 0.465186 0.772874 0.136361
H181  H     H_    0.982524 0.487028 0.685362 0.071645
C144  C     C_3   0.078364 0.543570 0.810358 -0.985809
H182  H     H_    0.031429 0.579294 0.768091 0.262238
H183  H     H_    0.067050 0.526607 0.870448 0.220152
H184  H     H_    0.152892 0.556993 0.855060 0.270801
O9    O     O_3   0.004531 0.826612 0.806292 -0.680692
C145  C     C_3   0.908148 0.830347 0.761109 0.243966
H185  H     H_    0.884842 0.873489 0.742270 0.109717
H186  H     H_    0.892898 0.812095 0.817253 0.093643
C146  C     C_3   0.851346 0.798922 0.653837 -0.953768
H187  H     H_    0.871939 0.755127 0.668983 0.256038
H188  H     H_    0.775119 0.801901 0.617042 0.211551
H189  H     H_    0.864173 0.816407 0.595325 0.261545
O10   O     O_3   0.005013 0.172307 0.803023 -0.672581
C147  C     C_3   0.907591 0.167049 0.752127 0.255797
H190  H     H_    0.888140 0.182249 0.805731 0.089015
H191  H     H_    0.885089 0.123822 0.729426 0.110331
C148  C     C_3   0.854048 0.201298 0.647482 -0.952289
H192  H     H_    0.869790 0.187353 0.590126 0.259416
H193  H     H_    0.777179 0.197074 0.606661 0.217167
H194  H     H_    0.874305 0.245106 0.667138 0.255164
O11   O     O_3   0.494754 0.330395 0.801449 -0.680011
C149  C     C_3   0.407008 0.319641 0.781544 0.256015
H195  H     H_    0.370239 0.358596 0.768276 0.109737
H196  H     H_    0.414464 0.296061 0.850109 0.089160
C150  C     C_3   0.346277 0.286175 0.677295 -0.938906
H197  H     H_    0.380174 0.246251 0.687278 0.254692
H198  H     H_    0.276190 0.278557 0.659758 0.217991
H199  H     H_    0.336579 0.308794 0.606980 0.261056
O12   O     O_3   0.508319 0.670991 0.803485 -0.680684
C151  C     C_3   0.410445 0.669381 0.750654 0.248781
H200  H     H_    0.390588 0.695757 0.793840 0.092051
H201  H     H_    0.385486 0.626988 0.745434 0.106677
C152  C     C_3   0.361239 0.690493 0.633968 -0.955884
H202  H     H_    0.374870 0.662665 0.587074 0.275160
H203  H     H_    0.284178 0.692399 0.592830 0.213552
H204  H     H_    0.388132 0.731969 0.634929 0.264314
O13   O     O_3   0.950709 0.077613 0.388589 -0.638013
C153  C     C_3   0.870268 0.109200 0.355435 0.342079
H205  H     H_    0.848557 0.105037 0.411028 0.096579
H206  H     H_    0.810340 0.096132 0.272200 0.105521
C154  C     C_3   0.890528 0.169791 0.351975 -1.025837
H207  H     H_    0.918680 0.176171 0.303485 0.258470
H208  H     H_    0.824851 0.193597 0.314533 0.223939
H209  H     H_    0.942588 0.185896 0.435669 0.263602
O14   O     O_3   0.143400 0.911957 0.523628 -0.621726
C155  C     C_3   0.154029 0.854920 0.514568 0.306528
H210  H     H_    0.123896 0.843764 0.428730 0.082857
H211  H     H_    0.121552 0.828449 0.544437 0.110880
C156  C     C_3   0.257942 0.841454 0.579272 -1.005987
H212  H     H_    0.294055 0.847532 0.668320 0.264006
H213  H     H_    0.265991 0.798142 0.565262 0.226510
H214  H     H_    0.291027 0.868072 0.550615 0.262208
O15   O     O_3   0.398138 0.524929 0.344447 -0.621527
C157  C     C_3   0.308574 0.508475 0.250913 0.341854
H215  H     H_    0.262040 0.494401 0.273985 0.092742
H216  H     H_    0.315649 0.476355 0.204552 0.120095
C158  C     C_3   0.260587 0.557042 0.174332 -1.003809
H217  H     H_    0.302875 0.571435 0.145861 0.270568
H218  H     H_    0.189667 0.544778 0.101769 0.221024
H219  H     H_    0.252882 0.590575 0.217596 0.260243
O16   O     O_3   0.726109 0.457478 0.600990 -0.614769
C159  C     C_3   0.756045 0.459105 0.531267 0.383720
H220  H     H_    0.826842 0.477995 0.580432 0.100548
H221  H     H_    0.716928 0.487667 0.461846 0.069626
C160  C     C_3   0.767929 0.403129 0.495921 -1.077047
H222  H     H_    0.700567 0.382510 0.435993 0.270016
H223  H     H_    0.798989 0.408139 0.450921 0.215778
H224  H     H_    0.813817 0.376346 0.568466 0.264615

loop_
_geom_bond_atom_site_label_1
_geom_bond_atom_site_label_2
_ccdc_geom_bond_type
N7    Ni7   S    
C140  H172  S    
C55   C59   S    
C123  C124  S    
C72   H56   S    
O15   C157  S    
C15   C109  A    
C77   C101  A    
N15   N16   A    
C23   O15   S    
C42   C58   S    
C135  H159  S    
C68   H64   S    
N4    Ni4   S    
C126  H133  S    
C121  H121  S    
C52   H32   S    
C11   H95   S    
N29   Ni2   S    
C46   C62   S    
C150  H198  S    
C86   C88   S    
C126  H135  S    
C85   H77   S    
C119  H117  S    
C62   C70   S    
C35   H33   S    
C110  N22   A    
C17   C61   S    
C19   C63   S    
C77   H69   S    
C32   C104  S    
C79   C102  A    
C36   C97   A    
C51   C57   S    
C74   C130  S    
C75   H67   S    
N22   Ni6   S    
C76   C132  S    
C105  H85   S    
C154  H208  S    
C78   C101  A    
C1    H1    S    
C73   C81   S    
C44   C46   S    
C159  H220  S    
C11   C20   A    
C113  H98   S    
C41   H13   S    
C92   O7    S    
N2    Ni2   S    
C144  H184  S    
C111  H91   S    
C24   O16   S    
C48   H28   S    
C108  N20   A    
C134  H156  S    
N26   N29   A    
C130  H146  S    
C147  H191  S    
C24   C32   S    
N21   N22   A    
C160  H224  S    
C26   C118  S    
C79   N11   A    
N19   N20   A    
C74   H66   S    
C29   H10   S    
C127  H136  S    
C37   H35   S    
C38   H36   S    
C52   C58   S    
C14   C107  A    
C63   C71   S    
C140  H174  S    
C7    C19   A    
C118  H113  S    
C148  H192  S    
C142  H179  S    
C147  C148  S    
N8    Ni8   S    
C125  H131  S    
C112  H92   S    
C53   C71   S    
C135  H161  S    
C116  H107  S    
C134  H158  S    
C71   H49   S    
C89   C101  S    
C94   H82   S    
N23   Ni7   S    
C13   C106  A    
C54   H42   S    
C51   H31   S    
C44   H20   S    
C26   H6    S    
O11   C149  S    
C86   H80   S    
C110  H90   S    
C43   H19   S    
C14   C88   S    
C122  H124  S    
C142  H177  S    
C2    H2    S    
C77   N9    A    
C65   H37   S    
C149  H195  S    
C42   H14   S    
C61   C65   S    
C12   N32   A    
C131  H147  S    
N11   Ni8   S    
C66   H62   S    
C78   H70   S    
C145  H185  S    
C152  H202  S    
C16   C111  A    
C53   H41   S    
C138  H167  S    
C39   O2    S    
C111  N23   A    
N27   N32   A    
C51   H59   S    
C56   H44   S    
C93   C103  A    
O12   C151  S    
C158  H217  S    
C91   O6    S    
C55   H43   S    
C21   C31   S    
C113  H97   S    
N13   N14   A    
C82   C89   S    
C64   C68   S    
C48   H22   S    
N26   Ni5   S    
C116  H106  S    
C129  H142  S    
C54   H46   S    
C141  H175  S    
C115  H103  S    
C132  H151  S    
C90   C102  S    
C16   C34   S    
C33   C39   S    
C107  N19   A    
C24   C116  S    
C146  H189  S    
C105  N17   A    
C74   C87   S    
C89   C91   S    
C43   C59   S    
C27   C119  S    
N21   Ni5   S    
N3    N8    A    
C6    N26   A    
C71   H55   S    
C120  H118  S    
C59   C100  S    
C133  H154  S    
C84   C90   S    
N17   N18   A    
C155  H211  S    
C136  H163  S    
C3    N3    A    
C45   H23   S    
C62   C66   S    
C1    N1    A    
N10   Ni5   S    
N6    Ni6   S    
C28   H8    S    
C152  H204  S    
N1    Ni1   S    
C160  H223  S    
C18   C62   S    
C42   C48   S    
N9    N10   A    
C95   N15   A    
C80   C102  A    
N24   Ni8   S    
C124  H128  S    
C155  C156  S    
C117  H110  S    
C26   C33   S    
C137  H166  S    
C8    O12   S    
N4    N7    A    
C131  H149  S    
C13   C87   S    
O2    C123  S    
C41   C47   S    
C51   C67   S    
N5    Ni5   S    
C43   C45   S    
C153  H205  S    
C55   C69   S    
C156  H214  S    
C9    N29   A    
C5    O9    S    
N27   Ni8   S    
C137  C138  S    
C148  H193  S    
C151  H200  S    
C158  H219  S    
C21   C25   S    
C113  H99   S    
C81   C133  S    
C82   C134  S    
C24   C28   S    
C116  H108  S    
N16   Ni3   S    
C138  H169  S    
N2    N5    A    
C121  H122  S    
C49   C59   S    
N28   N31   A    
C115  H105  S    
C50   C60   S    
C4    C100  A    
C10   H94   S    
C150  H197  S    
C107  H87   S    
C14   C108  A    
C6    O10   S    
C75   C131  S    
C55   H47   S    
C119  H116  S    
C79   H71   S    
C80   H72   S    
C69   H53   S    
C70   H54   S    
C3    C99   A    
C9    C18   A    
C30   H11   S    
C121  C122  S    
C139  H170  S    
C120  H120  S    
C94   N14   A    
C72   H50   S    
C37   C100  A    
C160  H222  S    
C50   H30   S    
C25   C33   S    
C155  H210  S    
C154  H207  S    
C142  H178  S    
C76   C84   S    
O6    C139  S    
C28   C120  S    
N30   Ni1   S    
C156  H212  S    
C82   H74   S    
C40   O3    S    
C66   H38   S    
C124  H130  S    
C144  H183  S    
C47   C63   S    
C48   C64   S    
C5    C17   A    
C157  H215  S    
N17   Ni1   S    
C56   C70   S    
C123  H126  S    
C133  H153  S    
C130  H145  S    
C73   C87   S    
C22   C114  S    
C109  N21   A    
C67   H63   S    
C29   H9    S    
C91   O5    S    
C127  H137  S    
C35   C98   A    
C106  H86   S    
C81   C89   S    
C134  H157  S    
C28   C34   S    
C140  H173  S    
C118  H112  S    
C47   H21   S    
C15   C110  A    
C52   H60   S    
C83   C135  S    
C125  H132  S    
C74   C82   S    
C135  H160  S    
N14   Ni1   S    
C143  H180  S    
C126  H134  S    
C7    N27   A    
C127  C128  S    
N3    Ni3   S    
N9    Ni6   S    
C13   C105  A    
C150  H199  S    
N11   N12   A    
C53   C57   S    
C85   H78   S    
C128  H138  S    
N32   Ni3   S    
C56   C60   S    
C70   H52   S    
C136  H164  S    
C125  C126  S    
N25   N30   A    
C122  H123  S    
C68   H40   S    
C114  H102  S    
C159  H221  S    
N15   Ni4   S    
C50   H58   S    
C43   H15   S    
C35   N5    A    
C149  H196  S    
C8    N28   A    
N12   Ni7   S    
C94   C103  A    
C154  H209  S    
C27   H7    S    
C7    O11   S    
C84   H76   S    
C145  H186  S    
C16   C112  A    
O10   C147  S    
O7    C141  S    
C95   H83   S    
C4    H4    S    
C93   H81   S    
C38   C99   A    
C76   H68   S    
C149  C150  S    
C143  H181  S    
N1    N6    A    
C112  N24   A    
C23   C32   S    
C145  C146  S    
C109  H89   S    
C147  H190  S    
C41   C57   S    
C3    H3    S    
C78   N10   A    
C49   H57   S    
C75   C83   S    
C129  H141  S    
C114  H100  S    
C141  H176  S    
C44   C60   S    
C57   C98   S    
C12   C19   A    
C45   C61   S    
C132  H150  S    
C143  C144  S    
N18   Ni2   S    
C96   H84   S    
C56   H48   S    
O4    C127  S    
C22   C26   S    
C118  H114  S    
C47   H27   S    
C146  H188  S    
C22   O14   S    
C9    H93   S    
C37   N7    A    
C141  C142  S    
C30   C32   S    
O3    C125  S    
C60   C99   S    
C20   C64   S    
O14   C155  S    
C85   C91   S    
C136  H162  S    
C86   H79   S    
C8    C20   A    
C49   C65   S    
C34   C40   S    
C12   H96   S    
C122  H125  S    
C152  H203  S    
N19   Ni3   S    
C21   C113  S    
N25   Ni6   S    
C10   C17   A    
C11   N31   A    
C90   C92   S    
O13   C153  S    
C131  H148  S    
N20   Ni4   S    
C106  N18   A    
N31   Ni4   S    
C23   C27   S    
C117  H109  S    
C76   C88   S    
C153  H206  S    
C52   C68   S    
C124  H129  S    
C36   N6    A    
C156  H213  S    
C5    N25   A    
N28   Ni7   S    
C83   H75   S    
C58   C97   S    
C81   H73   S    
C151  H201  S    
N13   Ni2   S    
C85   C87   S    
C27   C34   S    
C6    C18   A    
C63   C67   S    
C2    N2    A    
C22   C31   S    
C158  H218  S    
C67   H39   S    
C153  C154  S    
C1    C97   A    
C114  H101  S    
C21   O13   S    
C129  H143  S    
C96   N16   A    
O1    C121  S    
C115  H104  S    
C31   C103  S    
C108  H88   S    
C132  H152  S    
C73   C129  S    
C148  H194  S    
C151  C152  S    
C29   C39   S    
C45   H25   S    
C119  H115  S    
C30   C40   S    
C42   H18   S    
C50   C66   S    
C23   C115  S    
O9    C145  S    
C36   H34   S    
C30   H12   S    
C10   N30   A    
C139  H171  S    
C120  H119  S    
C133  H155  S    
C40   O4    S    
C95   C104  A    
O8    C143  S    
C54   C58   S    
C128  H140  S    
C61   C69   S    
C83   C90   S    
C44   H16   S    
C65   H61   S    
C69   H51   S    
C38   N8    A    
C25   H5    S    
C80   N12   A    
C25   C117  S    
C49   H29   S    
C139  C140  S    
C92   O8    S    
C53   H45   S    
C4    N4    A    
C46   H26   S    
C96   C104  A    
C73   H65   S    
C29   C31   S    
C86   C92   S    
C144  H182  S    
C41   H17   S    
C137  H165  S    
C146  H187  S    
C128  H139  S    
C157  H216  S    
C39   O1    S    
C123  H127  S    
C64   C72   S    
C130  H144  S    
C117  H111  S    
C159  C160  S    
C46   H24   S    
C75   C88   S    
C54   C72   S    
C84   C136  S    
C2    C98   A    
C138  H168  S    
O16   C159  S    
N23   N24   A    
C93   N13   A    
O5    C137  S    
C15   C33   S    
C157  C158  S    
