data_mof_unit_65872.cif
_audit_creation_date              2012-12-10T16:58:28-0500
_audit_creation_method            fapswitch 2.2
_symmetry_space_group_name_H-M    P1
_symmetry_Int_Tables_number       1
_space_group_crystal_system       triclinic
_cell_length_a                    30.926551
_cell_length_b                    30.544191
_cell_length_c                    24.466267
_cell_angle_alpha                 89.957756
_cell_angle_beta                  127.69254
_cell_angle_gamma                 89.999031
_cell_volume                      18288.1816363

loop_
_atom_site_label
_atom_site_type_symbol
_atom_type_description
_atom_site_fract_x
_atom_site_fract_y
_atom_site_fract_z
_atom_type_partial_charge
C1    C     C_R   0.806769 0.809751 0.495159 0.925097
C2    C     C_R   0.193245 0.809746 0.504865 0.925177
C3    C     C_R   0.306769 0.309752 0.495159 0.925087
C4    C     C_R   0.693245 0.309746 0.504865 0.925183
C5    C     C_R   0.644373 0.747761 0.290070 -0.119103
C6    C     C_R   0.355042 0.747707 0.709952 -0.124525
C7    C     C_R   0.144374 0.247761 0.290070 -0.119090
C8    C     C_R   0.855043 0.247707 0.709952 -0.124531
C9    C     C_R   0.462274 0.747429 0.930819 0.342478
C10   C     C_R   0.533456 0.747404 0.070247 0.334448
C11   C     C_R   0.962276 0.247430 0.930819 0.342485
C12   C     C_R   0.033458 0.247404 0.070247 0.334447
C13   C     C_2   0.887116 0.873126 0.453115 -0.200939
C14   C     C_2   0.113023 0.873119 0.547070 -0.201347
C15   C     C_2   0.387116 0.373126 0.453115 -0.200940
C16   C     C_2   0.613023 0.373118 0.547070 -0.201355
C17   C     C_2   0.916755 0.901137 0.506404 0.056230
C18   C     C_2   0.083307 0.901137 0.493715 0.056469
C19   C     C_2   0.416755 0.401137 0.506404 0.056230
C20   C     C_2   0.583307 0.401137 0.493715 0.056469
C21   C     C_2   0.858099 0.836715 0.456581 -0.161083
C22   C     C_2   0.142035 0.836698 0.543609 -0.161927
C23   C     C_2   0.358099 0.336715 0.456582 -0.161082
C24   C     C_2   0.642035 0.336698 0.543609 -0.161925
C25   C     C_2   0.831915 0.844095 0.483292 -0.281777
C26   C     C_2   0.168134 0.844082 0.516778 -0.281901
C27   C     C_2   0.331915 0.344095 0.483292 -0.281779
C28   C     C_2   0.668134 0.344082 0.516778 -0.281906
C29   C     C_R   0.836722 0.765961 0.746746 -0.245370
C30   C     C_R   0.163371 0.765895 0.253243 -0.245413
C31   C     C_R   0.336736 0.266014 0.746745 -0.245349
C32   C     C_R   0.663376 0.265885 0.253244 -0.245414
C33   C     C_R   0.872313 0.769916 0.818216 -0.162026
C34   C     C_R   0.127803 0.769845 0.181756 -0.161954
C35   C     C_R   0.372329 0.269971 0.818215 -0.162048
C36   C     C_R   0.627809 0.269837 0.181758 -0.161951
C37   C     C_R   0.928221 0.761688 0.854520 0.055501
C38   C     C_R   0.071877 0.761752 0.145457 0.055490
C39   C     C_R   0.428226 0.261690 0.854524 0.055519
C40   C     C_R   0.571880 0.261758 0.145459 0.055494
C41   C     C_R   0.948050 0.749392 0.818331 -0.230330
C42   C     C_R   0.052003 0.749607 0.181666 -0.230151
C43   C     C_R   0.448042 0.249338 0.818342 -0.230348
C44   C     C_R   0.552002 0.249625 0.181667 -0.230150
C45   C     C_R   0.682624 0.749431 0.365348 0.917511
C46   C     C_R   0.317366 0.749361 0.634642 0.916923
C47   C     C_R   0.182624 0.249432 0.365348 0.917517
C48   C     C_R   0.817367 0.249361 0.634642 0.916917
C49   C     C_R   0.912419 0.744331 0.746615 0.204030
C50   C     C_R   0.087607 0.744547 0.253395 0.203965
C51   C     C_R   0.412409 0.244273 0.746627 0.204052
C52   C     C_R   0.587605 0.244561 0.253397 0.203958
C53   C     C_R   0.856164 0.752977 0.710360 -0.073713
C54   C     C_R   0.143881 0.753043 0.289641 -0.073600
C55   C     C_R   0.356164 0.252976 0.710364 -0.073754
C56   C     C_R   0.643882 0.253045 0.289642 -0.073590
C57   C     C_R   0.034547 0.764458 0.069850 0.300183
C58   C     C_R   0.965568 0.764420 0.930117 0.300169
C59   C     C_R   0.534552 0.264465 0.069853 0.300175
C60   C     C_R   0.465573 0.264426 0.930121 0.300160
C61   C     C_2   0.650725 0.584677 0.539610 0.259569
C62   C     C_2   0.349224 0.584783 0.460192 0.259483
C63   C     C_2   0.150732 0.084683 0.539629 0.259603
C64   C     C_2   0.849223 0.084784 0.460189 0.259485
C65   C     C_2   0.595779 0.586868 0.495722 -0.417873
C66   C     C_2   0.404170 0.586866 0.504178 -0.418204
C67   C     C_2   0.095786 0.086862 0.495724 -0.417958
C68   C     C_2   0.904169 0.086865 0.504177 -0.418218
C69   C     C_2   0.681363 0.616620 0.530235 -0.190867
C70   C     C_2   0.318584 0.616699 0.469594 -0.191114
C71   C     C_2   0.181367 0.116623 0.530243 -0.190847
C72   C     C_2   0.818583 0.116700 0.469591 -0.191111
C73   C     C_2   0.662779 0.657652 0.511219 -0.402702
C74   C     C_2   0.337242 0.657676 0.488810 -0.402631
C75   C     C_2   0.162777 0.157653 0.511216 -0.402703
C76   C     C_2   0.837243 0.157676 0.488811 -0.402630
C77   C     C_R   0.439330 0.557982 0.500780 0.957544
C78   C     C_R   0.560651 0.557983 0.499184 0.957520
C79   C     C_R   0.939330 0.057981 0.500780 0.957552
C80   C     C_R   0.060653 0.057981 0.499184 0.957490
C81   C     C_R   0.942257 0.939013 0.501075 0.859376
C82   C     C_R   0.057763 0.939011 0.498967 0.859344
C83   C     C_R   0.442257 0.439013 0.501075 0.859379
C84   C     C_R   0.557764 0.439011 0.498967 0.859360
C85   C     C_R   0.691681 0.690269 0.502421 0.951429
C86   C     C_R   0.308349 0.690271 0.497638 0.954349
C87   C     C_R   0.191680 0.190269 0.502418 0.951437
C88   C     C_R   0.808349 0.190271 0.497638 0.954343
C89   C     C_R   0.817592 0.750633 0.634837 0.890564
C90   C     C_R   0.182423 0.750656 0.365164 0.890643
C91   C     C_R   0.317591 0.250632 0.634839 0.890527
C92   C     C_R   0.682423 0.250656 0.365164 0.890651
C93   C     C_R   0.623327 0.787104 0.253698 -0.329913
C94   C     C_R   0.375781 0.786904 0.746385 -0.320214
C95   C     C_R   0.123339 0.287105 0.253698 -0.329917
C96   C     C_R   0.875788 0.286903 0.746386 -0.320212
C97   C     C_R   0.587029 0.787337 0.181812 0.202713
C98   C     C_R   0.410811 0.787053 0.818307 0.196347
C99   C     C_R   0.087043 0.287339 0.181812 0.202716
C100  C     C_R   0.910819 0.287053 0.818308 0.196344
C101  C     C_R   0.571836 0.747379 0.145686 -0.017552
C102  C     C_R   0.423848 0.747255 0.854769 -0.038243
C103  C     C_R   0.071838 0.247380 0.145686 -0.017554
C104  C     C_R   0.923850 0.247256 0.854769 -0.038241
C105  C     C_R   0.592804 0.707308 0.181779 0.128476
C106  C     C_R   0.401643 0.707320 0.818096 0.123234
C107  C     C_R   0.092794 0.207308 0.181781 0.128476
C108  C     C_R   0.901639 0.207321 0.818097 0.123231
C109  C     C_R   0.628888 0.707467 0.254673 0.146371
C110  C     C_R   0.369080 0.707464 0.745221 0.158597
C111  C     C_R   0.128878 0.207467 0.254674 0.146370
C112  C     C_R   0.869074 0.207464 0.745222 0.158601
H1    H     H_    0.635220 0.817897 0.281415 0.165453
H2    H     H_    0.364367 0.817735 0.718755 0.168995
H3    H     H_    0.135241 0.317899 0.281414 0.165443
H4    H     H_    0.864378 0.317734 0.718755 0.168999
H5    H     H_    0.856027 0.779614 0.844959 0.154382
H6    H     H_    0.144120 0.779428 0.154995 0.154291
H7    H     H_    0.356054 0.279713 0.844953 0.154375
H8    H     H_    0.644129 0.279412 0.154996 0.154289
H9    H     H_    0.991148 0.742822 0.845663 0.151441
H10   H     H_    0.008889 0.743149 0.154340 0.151503
H11   H     H_    0.491131 0.242723 0.845681 0.151434
H12   H     H_    0.508886 0.243176 0.154341 0.151499
H13   H     H_    0.575330 0.608300 0.450884 0.141912
H14   H     H_    0.424597 0.608194 0.549072 0.141813
H15   H     H_    0.075341 0.108283 0.450873 0.141946
H16   H     H_    0.924595 0.108191 0.549075 0.141819
H17   H     H_    0.719675 0.607156 0.540842 0.180547
H18   H     H_    0.280219 0.607267 0.458851 0.180610
H19   H     H_    0.219681 0.107160 0.540856 0.180536
H20   H     H_    0.780217 0.107268 0.458847 0.180609
H21   H     H_    0.626956 0.668494 0.506052 0.161157
H22   H     H_    0.373114 0.668508 0.494091 0.160933
H23   H     H_    0.126950 0.168493 0.506042 0.161163
H24   H     H_    0.873115 0.168507 0.494093 0.160934
H25   H     H_    0.884227 0.876876 0.406820 0.145266
H26   H     H_    0.115966 0.876863 0.593397 0.144757
H27   H     H_    0.384227 0.376876 0.406820 0.145266
H28   H     H_    0.615965 0.376862 0.593396 0.144756
H29   H     H_    0.858323 0.804619 0.437676 0.160848
H30   H     H_    0.141857 0.804594 0.562585 0.160582
H31   H     H_    0.358323 0.304619 0.437676 0.160849
H32   H     H_    0.641856 0.304593 0.562584 0.160583
H33   H     H_    0.826987 0.877324 0.494713 0.167257
H34   H     H_    0.173025 0.877318 0.505292 0.167236
H35   H     H_    0.326987 0.377324 0.494713 0.167258
H36   H     H_    0.673026 0.377318 0.505293 0.167234
H37   H     H_    0.793728 0.772759 0.719843 0.164447
H38   H     H_    0.206384 0.772580 0.280151 0.164326
H39   H     H_    0.293751 0.272854 0.719838 0.164483
H40   H     H_    0.706391 0.272560 0.280152 0.164319
N1    N     N_R   0.488492 0.721603 0.036858 -0.156690
N2    N     N_R   0.453492 0.721717 0.968324 -0.158492
N3    N     N_R   0.988487 0.221612 0.036859 -0.156688
N4    N     N_R   0.953487 0.221726 0.968325 -0.158495
N5    N     N_R   0.507384 0.773198 0.964478 -0.155953
N6    N     N_R   0.542332 0.773315 0.033045 -0.158150
N7    N     N_R   0.007392 0.273191 0.964478 -0.155956
N8    N     N_R   0.042341 0.273308 0.033045 -0.158149
N9    N     N_R   0.020447 0.764586 0.964744 -0.182648
N10   N     N_R   0.979669 0.764789 0.035221 -0.182555
N11   N     N_R   0.520452 0.264562 0.964748 -0.182646
N12   N     N_R   0.479674 0.264826 0.035224 -0.182551
N13   N     N_R   0.054320 0.764687 0.033355 -0.181866
N14   N     N_R   0.945797 0.764854 0.966612 -0.181831
N15   N     N_R   0.554325 0.264664 0.033358 -0.181864
N16   N     N_R   0.445802 0.264890 0.966614 -0.181823
O1    O     O_R   0.820760 0.769680 0.499980 -0.614510
O2    O     O_R   0.179240 0.769680 0.500020 -0.614489
O3    O     O_R   0.320760 0.269680 0.499980 -0.614521
O4    O     O_R   0.679240 0.269680 0.500020 -0.614486
O5    O     O_R   0.483490 0.545220 0.557520 -0.621489
O6    O     O_R   0.516510 0.545220 0.442480 -0.621184
O7    O     O_R   0.983490 0.045220 0.557520 -0.621483
O8    O     O_R   0.016510 0.045220 0.442480 -0.621171
O9    O     O_R   0.926010 0.954760 0.442510 -0.626993
O10   O     O_R   0.073990 0.954760 0.557490 -0.627293
O11   O     O_R   0.426010 0.454760 0.442510 -0.626994
O12   O     O_R   0.573990 0.454760 0.557490 -0.627288
O13   O     O_R   0.983520 0.954760 0.557520 -0.624242
O14   O     O_R   0.016480 0.954760 0.442480 -0.624074
O15   O     O_R   0.483520 0.454760 0.557520 -0.624244
O16   O     O_R   0.516480 0.454760 0.442480 -0.624073
O17   O     O_R   0.769670 0.820760 0.499990 -0.628056
O18   O     O_R   0.230330 0.820760 0.500010 -0.628140
O19   O     O_R   0.269670 0.320760 0.499990 -0.628055
O20   O     O_R   0.730330 0.320760 0.500010 -0.628143
O21   O     O_R   0.724610 0.724460 0.398130 -0.599601
O22   O     O_R   0.275390 0.724460 0.601870 -0.600614
O23   O     O_R   0.224610 0.224460 0.398130 -0.599608
O24   O     O_R   0.775390 0.224460 0.601870 -0.600609
O25   O     O_R   0.673520 0.775530 0.398150 -0.630654
O26   O     O_R   0.326480 0.775530 0.601850 -0.631119
O27   O     O_R   0.173520 0.275530 0.398150 -0.630653
O28   O     O_R   0.826480 0.275530 0.601850 -0.631121
O29   O     O_R   0.730310 0.679220 0.500010 -0.616790
O30   O     O_R   0.269690 0.679220 0.499990 -0.616212
O31   O     O_R   0.230310 0.179220 0.500010 -0.616788
O32   O     O_R   0.769690 0.179220 0.499990 -0.616212
O33   O     O_R   0.679220 0.730290 0.500020 -0.624623
O34   O     O_R   0.320780 0.730290 0.499980 -0.625162
O35   O     O_R   0.179220 0.230290 0.500020 -0.624622
O36   O     O_R   0.820780 0.230290 0.499980 -0.625161
O37   O     O_R   0.826460 0.724450 0.601850 -0.596048
O38   O     O_R   0.173540 0.724450 0.398150 -0.596210
O39   O     O_R   0.326460 0.224450 0.601850 -0.596011
O40   O     O_R   0.673540 0.224450 0.398150 -0.596220
O41   O     O_R   0.775370 0.775520 0.601870 -0.627946
O42   O     O_R   0.224630 0.775520 0.398130 -0.627917
O43   O     O_R   0.275370 0.275520 0.601870 -0.627955
O44   O     O_R   0.724630 0.275520 0.398130 -0.627915
O45   O     O_R   0.425990 0.545230 0.442510 -0.618201
O46   O     O_R   0.574010 0.545230 0.557490 -0.618466
O47   O     O_R   0.925990 0.045230 0.442510 -0.618200
O48   O     O_R   0.074010 0.045230 0.557490 -0.618509
Zn1   Zn    Zn3+2 0.784100 0.715890 0.499990 0.959765
Zn2   Zn    Zn3+2 0.215900 0.715890 0.500010 0.959540
Zn3   Zn    Zn3+2 0.284100 0.215890 0.499990 0.959776
Zn4   Zn    Zn3+2 0.715900 0.215890 0.500010 0.959538
Zn5   Zn    Zn3+2 0.715880 0.784090 0.500010 0.947238
Zn6   Zn    Zn3+2 0.284120 0.784090 0.499990 0.946604
Zn7   Zn    Zn3+2 0.215880 0.284090 0.500010 0.947231
Zn8   Zn    Zn3+2 0.784120 0.284090 0.499990 0.946603
Zn9   Zn    Zn3+2 0.461590 0.499990 0.423210 0.945047
Zn10  Zn    Zn3+2 0.538410 0.499990 0.576790 0.943882
Zn11  Zn    Zn3+2 0.961590 0.999990 0.423210 0.945047
Zn12  Zn    Zn3+2 0.038410 0.999990 0.576790 0.943869
N17   N     N_2   0.933816 0.732297 0.711251 -0.293294
H41   H     H_    0.968011 0.750070 0.726928 0.216242
C113  C     C_3   0.942601 0.685733 0.711699 -0.748143
H42   H     H_    0.975271 0.674333 0.765147 0.222584
H43   H     H_    0.955313 0.678716 0.678857 0.230940
H44   H     H_    0.904372 0.667351 0.690715 0.253550
N18   N     N_2   0.066168 0.732671 0.288781 -0.293349
H45   H     H_    0.032045 0.750582 0.273084 0.216344
C114  C     C_3   0.057196 0.686149 0.288393 -0.748099
H46   H     H_    0.024472 0.674819 0.234962 0.222533
H47   H     H_    0.044467 0.679246 0.321256 0.230962
H48   H     H_    0.095348 0.667618 0.309387 0.253619
N19   N     N_2   0.433796 0.232172 0.711275 -0.293257
H49   H     H_    0.468028 0.249894 0.726967 0.216244
C115  C     C_3   0.442492 0.185592 0.711716 -0.748145
H50   H     H_    0.475132 0.174174 0.765165 0.222585
H51   H     H_    0.455203 0.178525 0.678886 0.230937
H52   H     H_    0.404225 0.167265 0.690716 0.253531
N20   N     N_2   0.566163 0.232697 0.288783 -0.293358
H53   H     H_    0.532046 0.250617 0.273087 0.216345
C116  C     C_3   0.557176 0.186178 0.288394 -0.748098
H54   H     H_    0.524449 0.174851 0.234963 0.222534
H55   H     H_    0.544445 0.179284 0.321257 0.230964
H56   H     H_    0.595322 0.167638 0.309387 0.253623
N21   N     N_2   0.678134 0.552068 0.592745 -0.278758
H57   H     H_    0.674830 0.556948 0.631751 0.246508
C117  C     C_3   0.732165 0.538423 0.617603 -0.819649
H58   H     H_    0.745136 0.509808 0.652462 0.244747
H59   H     H_    0.762019 0.565325 0.647104 0.236553
H60   H     H_    0.731787 0.528413 0.573660 0.246211
N22   N     N_2   0.321817 0.552312 0.406943 -0.278656
H61   H     H_    0.325209 0.557289 0.368022 0.246661
C118  C     C_3   0.267729 0.538739 0.381911 -0.818793
H62   H     H_    0.254752 0.510215 0.346961 0.245006
H63   H     H_    0.237937 0.565721 0.352459 0.236510
H64   H     H_    0.268008 0.528617 0.425755 0.246154
N23   N     N_2   0.178146 0.052093 0.592794 -0.278764
H65   H     H_    0.174780 0.056961 0.631748 0.246556
C119  C     C_3   0.232222 0.038502 0.617760 -0.819662
H66   H     H_    0.245211 0.009908 0.652661 0.244737
H67   H     H_    0.262021 0.065439 0.647247 0.236580
H68   H     H_    0.231916 0.028481 0.573878 0.246207
N24   N     N_2   0.821815 0.052316 0.406934 -0.278654
H69   H     H_    0.825214 0.057294 0.368018 0.246664
C120  C     C_3   0.767722 0.038749 0.381889 -0.818787
H70   H     H_    0.754743 0.010229 0.346932 0.245004
H71   H     H_    0.737937 0.065735 0.352440 0.236512
H72   H     H_    0.767993 0.028624 0.425725 0.246152
N25   N     N_2   0.565532 0.827910 0.146112 -0.291142
H73   H     H_    0.592168 0.853864 0.170938 0.224814
C121  C     C_3   0.511675 0.838221 0.125210 -0.762953
H74   H     H_    0.513083 0.842452 0.171398 0.233159
H75   H     H_    0.482155 0.811914 0.092010 0.249400
H76   H     H_    0.497055 0.869173 0.095088 0.238043
N26   N     N_2   0.430330 0.827729 0.853859 -0.294125
H77   H     H_    0.399180 0.849338 0.838720 0.221462
C122  C     C_3   0.472200 0.847893 0.852881 -0.743307
H78   H     H_    0.455004 0.858277 0.799583 0.223965
H79   H     H_    0.506501 0.824725 0.872348 0.257255
H80   H     H_    0.488466 0.877188 0.886783 0.237673
N27   N     N_2   0.065559 0.327913 0.146111 -0.291142
H81   H     H_    0.092203 0.353862 0.170937 0.224813
C123  C     C_3   0.011704 0.338238 0.125208 -0.762949
H82   H     H_    0.013113 0.342476 0.171397 0.233159
H83   H     H_    0.982176 0.311935 0.092009 0.249399
H84   H     H_    0.997094 0.369189 0.095085 0.238044
N28   N     N_2   0.930345 0.327728 0.853859 -0.294127
H85   H     H_    0.899199 0.349342 0.838720 0.221462
C124  C     C_3   0.972218 0.347885 0.852881 -0.743307
H86   H     H_    0.955024 0.358267 0.799582 0.223964
H87   H     H_    0.006515 0.324712 0.872348 0.257256
H88   H     H_    0.988489 0.377180 0.886782 0.237673
N29   N     N_2   0.576875 0.667173 0.144328 -0.296614
H89   H     H_    0.571730 0.641181 0.166722 0.232169
C125  C     C_3   0.607861 0.655842 0.119953 -0.781930
H90   H     H_    0.651357 0.649947 0.164320 0.225758
H91   H     H_    0.605405 0.682435 0.087167 0.253896
H92   H     H_    0.590770 0.625587 0.088342 0.243144
N30   N     N_2   0.415133 0.667104 0.854889 -0.297795
H93   H     H_    0.427663 0.642639 0.838404 0.228111
C126  C     C_3   0.375257 0.652118 0.863704 -0.758539
H94   H     H_    0.337375 0.640865 0.813934 0.214296
H95   H     H_    0.364336 0.678659 0.884267 0.257525
H96   H     H_    0.392634 0.624371 0.900765 0.244559
N31   N     N_2   0.076853 0.167172 0.144330 -0.296614
H97   H     H_    0.071700 0.141185 0.166725 0.232169
C127  C     C_3   0.107835 0.155828 0.119955 -0.781925
H98   H     H_    0.151330 0.149925 0.164323 0.225757
H99   H     H_    0.105388 0.182416 0.087170 0.253896
H100  H     H_    0.090736 0.125573 0.088345 0.243144
N32   N     N_2   0.915123 0.167106 0.854892 -0.297799
H101  H     H_    0.927650 0.142638 0.838406 0.228111
C128  C     C_3   0.875246 0.152128 0.863707 -0.758536
H102  H     H_    0.837364 0.140872 0.813940 0.214294
H103  H     H_    0.864325 0.178673 0.884265 0.257524
H104  H     H_    0.892622 0.124384 0.900775 0.244563
N33   N     N_2   0.649787 0.667530 0.292712 -0.293456
H105  H     H_    0.658129 0.643539 0.270766 0.227245
C129  C     C_3   0.620456 0.651243 0.317214 -0.767340
H106  H     H_    0.578277 0.641611 0.272944 0.223320
H107  H     H_    0.618494 0.676543 0.348212 0.237906
H108  H     H_    0.641970 0.622172 0.350612 0.242500
N34   N     N_2   0.351571 0.667521 0.706987 -0.292755
H109  H     H_    0.343087 0.642209 0.726831 0.228854
C130  C     C_3   0.384244 0.653706 0.686053 -0.776137
H110  H     H_    0.426294 0.645317 0.732133 0.224834
H111  H     H_    0.386305 0.679922 0.656241 0.238147
H112  H     H_    0.365449 0.624353 0.652501 0.242931
N35   N     N_2   0.149765 0.167530 0.292714 -0.293459
H113  H     H_    0.158100 0.143533 0.270769 0.227249
C131  C     C_3   0.120429 0.151255 0.317216 -0.767368
H114  H     H_    0.078246 0.141631 0.272946 0.223326
H115  H     H_    0.118476 0.176561 0.348215 0.237904
H116  H     H_    0.141933 0.122183 0.350613 0.242504
N36   N     N_2   0.851560 0.167521 0.706989 -0.292751
H117  H     H_    0.843073 0.142212 0.726833 0.228852
C132  C     C_3   0.884230 0.153699 0.686055 -0.776127
H118  H     H_    0.926279 0.145307 0.732135 0.224831
H119  H     H_    0.886295 0.179913 0.656242 0.238145
H120  H     H_    0.865431 0.124346 0.652504 0.242930
N37   N     N_2   0.928822 0.892064 0.571908 -0.295232
H121  H     H_    0.933776 0.919663 0.599507 0.229051
C133  C     C_3   0.971900 0.860288 0.613756 -0.743044
H122  H     H_    0.976418 0.853791 0.661678 0.227658
H123  H     H_    0.011290 0.873002 0.628111 0.233926
H124  H     H_    0.961949 0.828885 0.585508 0.253368
N38   N     N_2   0.071181 0.892064 0.428196 -0.295246
H125  H     H_    0.066186 0.919662 0.400513 0.229120
C134  C     C_3   0.028114 0.860310 0.386469 -0.742277
H126  H     H_    0.023555 0.853808 0.338533 0.227677
H127  H     H_    0.988732 0.873047 0.372135 0.234056
H128  H     H_    0.038107 0.828906 0.414806 0.253313
N39   N     N_2   0.428822 0.392064 0.571908 -0.295235
H129  H     H_    0.433776 0.419663 0.599507 0.229052
C135  C     C_3   0.471901 0.360289 0.613756 -0.743035
H130  H     H_    0.476420 0.353792 0.661679 0.227674
H131  H     H_    0.511291 0.373004 0.628110 0.233926
H132  H     H_    0.461951 0.328886 0.585508 0.253364
N40   N     N_2   0.571182 0.392065 0.428197 -0.295246
H133  H     H_    0.566188 0.419664 0.400514 0.229120
C136  C     C_3   0.528116 0.360311 0.386468 -0.742278
H134  H     H_    0.523557 0.353810 0.338533 0.227674
H135  H     H_    0.488734 0.373048 0.372133 0.234057
H136  H     H_    0.538109 0.328907 0.414804 0.253314

loop_
_geom_bond_atom_site_label_1
_geom_bond_atom_site_label_2
_ccdc_geom_bond_type
C99   C103  A    
C117  H59   S    
N5    N6    A    
C6    C110  A    
C123  H82   S    
C78   O46   A    
N35   H113  S    
C11   N7    A    
C125  H91   S    
C130  H110  S    
C134  H126  S    
C19   N39   S    
C47   O27   A    
C95   C99   A    
O14   Zn11  S    
N24   H69   S    
C29   C33   A    
C100  C104  A    
C60   N11   A    
C62   C70   S    
C84   O12   A    
C59   N12   A    
C89   O37   A    
C6    C94   A    
C70   C74   D    
C111  N35   S    
C86   O34   A    
O26   Zn6   S    
C136  H136  S    
O17   Zn5   S    
C23   H31   S    
O30   Zn2   S    
C100  N28   S    
C41   C49   A    
O21   Zn1   S    
C72   H20   S    
C15   H27   S    
C127  H99   S    
N12   N16   A    
C80   O48   A    
C62   C66   D    
C98   N26   S    
N29   H89   S    
O7    Zn12  S    
N17   H41   S    
C38   C57   S    
C125  H90   S    
C16   C20   D    
O43   Zn7   S    
C82   O10   A    
C83   O15   A    
C2    C26   S    
C105  N29   S    
C132  H120  S    
C63   N23   S    
O28   Zn8   S    
C86   O30   A    
C63   C71   S    
C134  H128  S    
C53   C89   S    
O32   Zn4   S    
C59   N15   A    
C118  H63   S    
C130  H112  S    
C66   C77   S    
C61   N21   S    
C110  N34   S    
N22   C118  S    
C3    O19   A    
C1    O17   A    
N18   C114  S    
C4    O20   A    
C122  H79   S    
C49   C53   A    
C39   C60   S    
C74   H22   S    
C18   C82   S    
C113  H44   S    
C51   C55   A    
C121  H75   S    
C29   H37   S    
C61   C65   D    
C69   H17   S    
C128  H102  S    
N3    N4    A    
C96   H4    S    
C103  C107  A    
N30   C126  S    
N9    N13   A    
C65   H13   S    
C34   H6    S    
N32   C128  S    
N37   H121  S    
O42   Zn6   S    
C133  H122  S    
O33   Zn5   S    
C120  H72   S    
C133  H124  S    
N28   C124  S    
C30   C54   A    
O37   Zn1   S    
C116  H54   S    
O48   Zn12  S    
C21   C25   D    
C32   C36   A    
C123  H83   S    
O6    Zn9   S    
C54   C90   S    
N21   H57   S    
C119  H68   S    
N31   C127  S    
N19   H49   S    
N33   C129  S    
C97   N25   S    
C10   N6    A    
O4    Zn4   S    
C115  H52   S    
C68   C79   S    
N10   N14   A    
N25   H73   S    
C47   O23   A    
C124  H87   S    
C16   H28   S    
C19   C83   S    
C46   O26   A    
C130  H111  S    
C126  H95   S    
C30   C34   A    
C84   O16   A    
O31   Zn3   S    
C91   O43   A    
C129  H107  S    
C89   O41   A    
C66   H14   S    
C31   H39   S    
C107  N31   S    
C32   H40   S    
C135  H130  S    
C128  H104  S    
C22   H30   S    
N27   H81   S    
C88   O36   A    
N23   C119  S    
C73   C85   S    
C42   C50   A    
C75   C87   S    
N38   C134  S    
C20   C84   S    
C135  H132  S    
C92   O44   A    
C93   C97   A    
O44   Zn8   S    
N38   H125  S    
C105  C109  A    
C127  H100  S    
C4    O4    A    
C107  C111  A    
C24   C28   D    
C118  H64   S    
C91   O39   A    
C119  H66   S    
C82   O14   A    
C83   O11   A    
C14   C22   S    
C3    C27   S    
C81   O9    A    
O19   Zn7   S    
C96   C100  A    
O25   Zn5   S    
C120  H71   S    
O47   Zn11  S    
C37   C41   A    
C58   N14   A    
O45   Zn9   S    
C71   H19   S    
C76   H24   S    
C40   C44   A    
C131  H116  S    
C114  H48   S    
N26   H77   S    
C62   N22   S    
O3    Zn3   S    
N22   H61   S    
C136  H135  S    
O1    Zn1   S    
C108  N32   S    
C43   H11   S    
O41   Zn5   S    
C87   O31   A    
N18   H45   S    
C77   O45   A    
C15   C19   D    
N39   C135  S    
C50   C54   A    
C8    C112  A    
C75   H23   S    
C30   H38   S    
C57   N13   A    
C94   C98   A    
C115  H50   S    
C70   H18   S    
C14   C18   D    
C55   C91   S    
C90   O38   A    
C14   H26   S    
C9    C102  S    
C116  H56   S    
C121  H74   S    
C69   C73   D    
C11   C104  S    
C132  H119  S    
C109  N33   S    
C85   O33   A    
N20   C116  S    
O18   Zn6   S    
C117  H60   S    
C127  H98   S    
C134  H127  S    
C51   N19   S    
O16   Zn9   S    
O29   Zn1   S    
O22   Zn2   S    
C10   N1    A    
C87   O35   A    
N35   C131  S    
C125  H92   S    
N29   C125  S    
C45   O25   A    
C28   H36   S    
N30   H93   S    
C12   C103  S    
N28   H85   S    
C5    C45   S    
C44   H12   S    
C33   C37   A    
C108  C112  A    
C7    C47   S    
O11   Zn9   S    
C35   C39   A    
N34   H109  S    
C8    C48   S    
C122  H78   S    
O9    Zn11  S    
N7    N8    A    
C9    N5    A    
O35   Zn7   S    
N40   C136  S    
C93   H1    S    
C12   N8    A    
C2    O2    A    
C85   O29   A    
C31   C35   A    
C52   N20   S    
C64   C68   D    
C104  C108  A    
C77   O5    A    
C65   C78   S    
C10   C101  S    
C67   C80   S    
C133  H123  S    
C13   C17   D    
C88   O32   A    
C21   H29   S    
C129  H106  S    
N17   C113  S    
C27   H35   S    
C98   C102  A    
C119  H67   S    
C43   C51   A    
N31   H97   S    
C118  H62   S    
C5    C109  A    
C24   H32   S    
N36   C132  S    
C7    C111  A    
C17   C81   S    
C49   N17   S    
N33   H105  S    
C36   H8    S    
C48   O24   A    
N32   H101  S    
C106  N30   S    
C22   C26   D    
C31   C55   A    
C58   N9    A    
C32   C56   A    
O40   Zn4   S    
O27   Zn7   S    
N36   H117  S    
C33   H5    S    
N26   C122  S    
C20   N40   S    
C124  H86   S    
O34   Zn6   S    
C35   H7    S    
N40   H133  S    
C8    C96   A    
C81   O13   A    
C72   C76   D    
C3    O3    A    
C94   H2    S    
C126  H94   S    
O38   Zn2   S    
C60   N16   A    
C38   C42   A    
C122  H80   S    
O5    Zn10  S    
C17   N37   S    
C18   N38   S    
C114  H47   S    
C26   H34   S    
C121  H76   S    
C41   H9    S    
C57   N10   A    
C131  H114  S    
C95   H3    S    
C128  H103  S    
C23   C27   D    
N23   H65   S    
C76   C88   S    
O10   Zn12  S    
C37   C58   S    
C79   O47   A    
C16   C24   S    
C40   C59   S    
O36   Zn8   S    
C1    C25   S    
C135  H131  S    
C46   O22   A    
O15   Zn10  S    
C4    C28   S    
O13   Zn12  S    
C101  C105  A    
C63   C67   D    
C116  H55   S    
C13   C21   S    
C79   O7    A    
C36   C40   A    
C123  H84   S    
C80   O8    A    
C113  H43   S    
C112  N36   S    
O23   Zn3   S    
C90   O42   A    
C39   C43   A    
C1    O1    A    
C115  H51   S    
N19   C115  S    
C13   H25   S    
N11   N15   A    
C2    O18   A    
C92   O40   A    
C64   N24   S    
C67   H15   S    
N21   C117  S    
C120  H70   S    
C74   C86   S    
N34   C130  S    
C11   N4    A    
O20   Zn8   S    
C45   O21   A    
C131  H115  S    
C73   H21   S    
C9    N2    A    
N25   C121  S    
C68   H16   S    
C124  H88   S    
O12   Zn10  S    
O24   Zn4   S    
C12   N3    A    
C117  H58   S    
C42   H10   S    
C136  H134  S    
C106  C110  A    
C126  H96   S    
C61   C69   S    
N24   C120  S    
O8    Zn11  S    
C6    C46   S    
C34   C38   A    
C129  H108  S    
C5    C93   A    
N20   H53   S    
C7    C95   A    
N39   H129  S    
O39   Zn3   S    
N1    N2    A    
C99   N27   S    
C71   C75   D    
C44   C52   A    
C29   C53   A    
C15   C23   S    
N27   C123  S    
C48   O28   A    
C102  C106  A    
C64   C72   S    
C50   N18   S    
O46   Zn10  S    
C56   C92   S    
N37   C133  S    
C113  H42   S    
C78   O6    A    
C25   H33   S    
C132  H118  S    
C114  H46   S    
C97   C101  A    
C52   C56   A    
O2    Zn2   S    
