data_mof_unit_42203.cif
_audit_creation_date              2012-10-26T20:18:15-0400
_audit_creation_method            fapswitch 2.2
_symmetry_space_group_name_H-M    P1
_symmetry_Int_Tables_number       1
_space_group_crystal_system       triclinic
_cell_length_a                    23.446816
_cell_length_b                    8.735736
_cell_length_c                    7.420532
_cell_angle_alpha                 102.931076
_cell_angle_beta                  93.954025
_cell_angle_gamma                 92.061664
_cell_volume                      1475.77394424

loop_
_atom_site_label
_atom_site_type_symbol
_atom_type_description
_atom_site_fract_x
_atom_site_fract_y
_atom_site_fract_z
_atom_type_partial_charge
C1    C     C_R   0.498014 0.200115 0.454281 0.562772
C2    C     C_R   0.700719 0.616973 0.428887 0.042300
C3    C     C_R   0.239801 0.382383 0.571571 -0.034482
C4    C     C_R   0.760184 0.617687 0.428330 -0.034477
C5    C     C_R   0.209690 0.499742 0.512386 0.157940
C6    C     C_R   0.790312 0.500391 0.487593 0.157895
C7    C     C_2   0.489904 0.034393 0.432209 0.054370
C8    C     C_2   0.510098 0.965606 0.567788 0.054356
C9    C     C_R   0.391217 0.499308 0.503014 0.547653
C10   C     C_R   0.608783 0.500695 0.496987 0.547660
C11   C     C_R   0.883706 0.616737 0.614695 0.412200
C12   C     C_R   0.501986 0.799885 0.545719 0.562755
C13   C     C_R   0.116298 0.383572 0.385038 0.412215
C14   C     C_R   0.876284 0.387777 0.365934 0.410276
C15   C     C_R   0.123720 0.612275 0.634139 0.410296
C16   C     C_R   0.936057 0.384367 0.367983 0.030859
C17   C     C_R   0.063947 0.615778 0.631962 0.030851
C18   C     C_R   0.969891 0.500779 0.497339 -0.027706
C19   C     C_R   0.030113 0.499434 0.502515 -0.027700
C20   C     C_R   0.943644 0.618450 0.621641 0.031071
C21   C     C_R   0.056359 0.381821 0.378138 0.031071
C22   C     C_R   0.962660 0.267619 0.244580 -0.120082
C23   C     C_R   0.239143 0.619415 0.453753 0.022126
C24   C     C_R   0.037345 0.732553 0.755329 -0.120091
C25   C     C_R   0.022212 0.266365 0.249592 -0.122229
C26   C     C_R   0.977792 0.733910 0.750182 -0.122218
C27   C     C_R   0.760876 0.380740 0.546326 0.022104
C28   C     C_R   0.298643 0.624111 0.454440 0.221749
C29   C     C_R   0.701375 0.375993 0.545636 0.221738
C30   C     C_R   0.329163 0.503157 0.511020 0.011469
C31   C     C_R   0.670838 0.496889 0.488986 0.011462
C32   C     C_R   0.299266 0.383063 0.571045 0.042310
Cu1   Cu    Cu3+1 0.506340 0.517380 0.684380 1.066199
Cu2   Cu    Cu3+1 0.493660 0.482620 0.315620 1.066210
H1    H     H_    0.937593 0.176805 0.143925 0.173566
H2    H     H_    0.544691 0.620588 0.051492 0.265441
H3    H     H_    0.366133 0.756770 0.440732 0.344214
H4    H     H_    0.633901 0.243273 0.559392 0.344237
H5    H     H_    0.062414 0.823329 0.856032 0.173555
H6    H     H_    0.041353 0.174733 0.152493 0.165130
H7    H     H_    0.958653 0.825589 0.847223 0.165134
H8    H     H_    0.215546 0.710501 0.409026 0.180026
H9    H     H_    0.784483 0.289695 0.591114 0.180081
H10   H     H_    0.216763 0.289887 0.616835 0.176035
H11   H     H_    0.783206 0.710171 0.382985 0.176102
H12   H     H_    0.455309 0.379411 0.948508 0.265435
I1    I     I_    0.340772 0.194813 0.654263 -0.240446
I2    I     I_    0.659194 0.805180 0.345619 -0.240474
I3    I     I_    0.436427 0.923726 0.185444 -0.175587
I4    I     I_    0.563577 0.076272 0.814546 -0.175624
N1    N     N_R   0.851461 0.502385 0.488528 -0.401140
N2    N     N_R   0.148541 0.497777 0.511401 -0.401143
N3    N     N_2   0.484110 0.456420 0.038520 -0.233118
N4    N     N_2   0.515890 0.543580 0.961480 -0.233118
O1    O     O_R   0.504120 0.286130 0.619770 -0.505197
O2    O     O_2   0.142206 0.273221 0.265284 -0.469672
O3    O     O_2   0.843160 0.277912 0.242163 -0.463624
O4    O     O_2   0.156845 0.721934 0.758172 -0.463604
O5    O     O_3   0.324786 0.749451 0.401451 -0.637572
O6    O     O_3   0.675249 0.250646 0.598667 -0.637575
O7    O     O_R   0.495880 0.713870 0.380230 -0.505193
O8    O     O_R   0.493410 0.256770 0.308360 -0.470653
O9    O     O_R   0.506590 0.743230 0.691640 -0.470654
O10   O     O_R   0.423230 0.514630 0.655730 -0.492472
O11   O     O_R   0.576770 0.485370 0.344270 -0.492463
O12   O     O_R   0.412530 0.485280 0.344320 -0.481429
O13   O     O_R   0.587470 0.514720 0.655680 -0.481440
O14   O     O_2   0.857797 0.727265 0.734226 -0.469681

loop_
_geom_bond_atom_site_label_1
_geom_bond_atom_site_label_2
_ccdc_geom_bond_type
Cu1   O1    S    
C2    C4    A    
C14   O3    S    
C5    N2    S    
N3    N4    D    
C22   H1    S    
C27   H9    S    
C6    N1    S    
C27   C29   A    
C9    O10   A    
C15   O4    S    
C14   N1    A    
C5    C23   A    
C29   O6    S    
C8    C12   S    
Cu1   O9    S    
C13   O2    S    
C1    O8    A    
Cu2   O12   S    
C28   C30   A    
Cu1   Cu2   S    
C1    O1    A    
C3    C5    A    
C13   C21   A    
C7    C8    D    
C29   C31   A    
C10   O13   A    
C23   C28   A    
C30   C32   A    
C12   O7    A    
C7    I3    S    
H3    O5    S    
C23   H8    S    
C20   C26   A    
C9    C30   S    
Cu1   O10   S    
H4    O6    S    
Cu2   O11   S    
C4    C6    A    
C17   C19   A    
C24   C26   A    
C18   C20   A    
C4    H11   S    
H12   N3    S    
C25   H6    S    
C3    C32   A    
C11   C20   A    
C32   I1    S    
C14   C16   A    
C3    H10   S    
C28   O5    S    
C17   C24   A    
H2    N4    S    
C13   N2    A    
C8    I4    S    
Cu2   O8    S    
C24   H5    S    
C11   N1    A    
C11   O14   S    
Cu1   O13   S    
Cu2   N3    S    
C16   C18   A    
C18   C19   A    
C10   O11   A    
Cu1   N4    S    
C15   C17   A    
C12   O9    A    
C21   C25   A    
C9    O12   A    
C16   C22   A    
C2    I2    S    
C15   N2    A    
C1    C7    S    
C10   C31   S    
Cu2   O7    S    
C6    C27   A    
C26   H7    S    
C2    C31   A    
C19   C21   A    
C22   C25   A    
