data_mof_unit_5846.cif
_audit_creation_date              2013-03-05T15:48:34-0500
_audit_creation_method            fapswitch 2.2
_symmetry_space_group_name_H-M    P1
_symmetry_Int_Tables_number       1
_space_group_crystal_system       triclinic
_cell_length_a                    16.672418
_cell_length_b                    16.672431
_cell_length_c                    43.041129
_cell_angle_alpha                 90.003508
_cell_angle_beta                  89.997822
_cell_angle_gamma                 119.998562
_cell_volume                      10361.3918247

loop_
_atom_site_label
_atom_site_type_symbol
_atom_site_description
_atom_site_fract_x
_atom_site_fract_y
_atom_site_fract_z
_atom_type_partial_charge
O1    O     O_R   0.509640 0.171340 0.784000 -0.494880
O2    O     O_R   0.661700 0.490360 0.716000 -0.491224
O3    O     O_R   0.828660 0.338300 0.784000 -0.494826
O4    O     O_R   0.509640 0.171340 0.716000 -0.491135
O5    O     O_R   0.661700 0.490360 0.784000 -0.494893
O6    O     O_R   0.828660 0.338300 0.716000 -0.491373
O7    O     O_R   0.171340 0.509640 0.284000 -0.489614
O8    O     O_R   0.490360 0.661700 0.216000 -0.499126
O9    O     O_R   0.338300 0.828660 0.284000 -0.489768
O10   O     O_R   0.171340 0.509640 0.216000 -0.499181
O11   O     O_R   0.490360 0.661700 0.284000 -0.489836
O12   O     O_R   0.338300 0.828660 0.216000 -0.499114
O13   O     O_R   0.539230 0.345420 0.781810 -0.485306
O14   O     O_R   0.806190 0.460770 0.718190 -0.491863
O15   O     O_R   0.654580 0.193810 0.781810 -0.485301
O16   O     O_R   0.539230 0.345420 0.718190 -0.491773
O17   O     O_R   0.806190 0.460770 0.781810 -0.485302
O18   O     O_R   0.654580 0.193810 0.718190 -0.491925
O19   O     O_R   0.345420 0.539230 0.281810 -0.490334
O20   O     O_R   0.460770 0.806190 0.218190 -0.487295
O21   O     O_R   0.193810 0.654580 0.281810 -0.490399
O22   O     O_R   0.345420 0.539230 0.218190 -0.487296
O23   O     O_R   0.460770 0.806190 0.281810 -0.490474
O24   O     O_R   0.193810 0.654580 0.218190 -0.487296
C1    C     C_R   0.583589 0.426403 0.794369 0.537566
C2    C     C_R   0.842364 0.416060 0.705651 0.537243
C3    C     C_R   0.573599 0.157188 0.794369 0.537570
C4    C     C_R   0.583902 0.426323 0.705668 0.537192
C5    C     C_R   0.842813 0.416413 0.794370 0.537629
C6    C     C_R   0.573680 0.157579 0.705666 0.537176
C7    C     C_R   0.426314 0.583929 0.294341 0.539516
C8    C     C_R   0.414386 0.839149 0.204763 0.537914
C9    C     C_R   0.157557 0.573670 0.294327 0.539459
C10   C     C_R   0.424764 0.585614 0.204763 0.537912
C11   C     C_R   0.416071 0.842382 0.294345 0.539499
C12   C     C_R   0.160851 0.575235 0.204763 0.537852
Cr1   Cr    Cr6+3 0.530290 0.262330 0.750000 1.060961
Cr2   Cr    Cr6+3 0.732040 0.469710 0.750000 1.060817
Cr3   Cr    Cr6+3 0.737670 0.267960 0.750000 1.060882
Cr4   Cr    Cr6+3 0.262330 0.530290 0.250000 1.058718
Cr5   Cr    Cr6+3 0.469710 0.732040 0.250000 1.058636
Cr6   Cr    Cr6+3 0.267960 0.737670 0.250000 1.058774
O25   O     O_3   0.666667 0.333333 0.750000 -0.262548
O26   O     O_3   0.333333 0.666667 0.250000 -0.265766
H1    H     H_    0.076786 0.347534 0.962750 0.175681
H2    H     H_    0.316176 0.004647 0.528114 0.175630
H3    H     H_    0.652402 0.729286 0.962750 0.175681
H4    H     H_    0.998767 0.313363 0.528342 0.175460
H5    H     H_    0.270735 0.923149 0.962755 0.175678
H6    H     H_    0.688697 0.684019 0.528109 0.175404
H7    H     H_    0.312266 0.996721 0.471849 0.175565
H8    H     H_    0.107382 0.361587 0.018217 0.171038
H9    H     H_    0.684567 0.688046 0.471849 0.175344
H10   H     H_    0.254193 0.892547 0.018221 0.171032
H11   H     H_    0.006806 0.316988 0.472082 0.175509
H12   H     H_    0.638351 0.745824 0.018219 0.171044
C13   C     C_R   0.894836 0.451902 0.823500 -0.022895
C14   C     C_R   0.562485 0.122192 0.674062 -0.018939
C15   C     C_R   0.548099 0.442944 0.823499 -0.022875
C16   C     C_R   0.877712 0.440197 0.674037 -0.019317
C17   C     C_R   0.557065 0.105175 0.823501 -0.022871
C18   C     C_R   0.559778 0.437511 0.674057 -0.018831
C19   C     C_R   0.440224 0.877765 0.325954 -0.019902
C20   C     C_R   0.134645 0.570356 0.171811 -0.032471
C21   C     C_R   0.437530 0.559831 0.325956 -0.019775
C22   C     C_R   0.435723 0.865361 0.171812 -0.032497
C23   C     C_R   0.122206 0.562469 0.325932 -0.019396
C24   C     C_R   0.429638 0.564284 0.171810 -0.032488
C25   C     C_R   0.081020 0.623144 0.025407 0.036963
C26   C     C_R   0.583915 0.987640 0.467456 0.042676
C27   C     C_R   0.376835 0.457884 0.025401 0.036963
C28   C     C_R   0.010378 0.595038 0.467282 0.042690
C29   C     C_R   0.542157 0.919014 0.025405 0.036962
C30   C     C_R   0.403921 0.416306 0.467457 0.042687
C31   C     C_R   0.595833 0.011512 0.532614 0.042718
C32   C     C_R   0.055561 0.612533 0.960276 0.036066
C33   C     C_R   0.415985 0.404286 0.532602 0.042730
C34   C     C_R   0.557009 0.944483 0.960275 0.036066
C35   C     C_R   0.986386 0.583330 0.532432 0.042728
C36   C     C_R   0.387441 0.443040 0.960270 0.036064
C37   C     C_R   0.087533 0.623939 0.058011 0.457747
C38   C     C_R   0.574549 0.971963 0.435213 0.469696
C39   C     C_R   0.376045 0.463598 0.058006 0.457744
C40   C     C_R   0.026233 0.601338 0.435050 0.469187
C41   C     C_R   0.536437 0.912498 0.058009 0.457749
C42   C     C_R   0.397556 0.425711 0.435221 0.469627
C43   C     C_R   0.602168 0.027233 0.564855 0.469644
C44   C     C_R   0.036337 0.602606 0.928215 0.453092
C45   C     C_R   0.425409 0.397911 0.564837 0.469600
C46   C     C_R   0.566304 0.963710 0.928214 0.453091
C47   C     C_R   0.970742 0.574079 0.564677 0.470082
C48   C     C_R   0.397371 0.433746 0.928208 0.453095
O27   O     O_2   0.081529 0.683206 0.072880 -0.458915
O28   O     O_2   0.631176 0.959644 0.421147 -0.464376
O29   O     O_2   0.316791 0.398322 0.072873 -0.458925
O30   O     O_2   0.037486 0.669777 0.420901 -0.465309
O31   O     O_2   0.601716 0.918526 0.072877 -0.458931
O32   O     O_2   0.328597 0.369090 0.421161 -0.464737
O33   O     O_2   0.670911 0.039088 0.578944 -0.464338
O34   O     O_2   0.028793 0.662410 0.914287 -0.472074
O35   O     O_2   0.368568 0.329129 0.578921 -0.464654
O36   O     O_2   0.633665 0.971281 0.914286 -0.472077
O37   O     O_2   0.957744 0.630363 0.578678 -0.463683
O38   O     O_2   0.337576 0.366393 0.914279 -0.472059
N1    N     N_R   0.099301 0.557386 0.073315 -0.372688
N2    N     N_R   0.500157 0.968081 0.419592 -0.376454
N3    N     N_R   0.442591 0.541922 0.073312 -0.372685
N4    N     N_R   0.031516 0.531437 0.419536 -0.376500
N5    N     N_R   0.458103 0.900701 0.073315 -0.372686
N6    N     N_R   0.468027 0.500131 0.419601 -0.376392
N7    N     N_R   0.531928 0.031691 0.580447 -0.376482
N8    N     N_R   0.024100 0.524749 0.912513 -0.367525
N9    N     N_R   0.500089 0.468158 0.580430 -0.376415
N10   N     N_R   0.500668 0.975920 0.912515 -0.367526
N11   N     N_R   0.967675 0.500177 0.580373 -0.376395
N12   N     N_R   0.475223 0.499371 0.912509 -0.367523
C49   C     C_R   0.107330 0.490635 0.056635 0.458132
C50   C     C_R   0.437495 0.985481 0.434928 0.463151
C51   C     C_R   0.509328 0.616708 0.056634 0.458126
C52   C     C_R   0.015433 0.451945 0.434969 0.463383
C53   C     C_R   0.383314 0.892645 0.056636 0.458132
C54   C     C_R   0.548076 0.562837 0.434931 0.463179
C55   C     C_R   0.452081 0.014836 0.565085 0.463435
C56   C     C_R   0.038034 0.459222 0.927599 0.467284
C57   C     C_R   0.563079 0.548016 0.565074 0.463459
C58   C     C_R   0.421195 0.961956 0.927602 0.467290
C59   C     C_R   0.985843 0.437929 0.565116 0.463198
C60   C     C_R   0.540737 0.578837 0.927596 0.467288
O39   O     O_2   0.124062 0.436181 0.070160 -0.478286
O40   O     O_2   0.377323 0.990560 0.420285 -0.480752
O41   O     O_2   0.563774 0.687895 0.070162 -0.478327
O42   O     O_2   0.011556 0.387087 0.420415 -0.480284
O43   O     O_2   0.312119 0.875888 0.070162 -0.478294
O44   O     O_2   0.613265 0.623082 0.420287 -0.480751
O45   O     O_2   0.387010 0.010254 0.579703 -0.480148
O46   O     O_2   0.026905 0.390605 0.913599 -0.470133
O47   O     O_2   0.623598 0.613053 0.579695 -0.480166
O48   O     O_2   0.363692 0.973060 0.913603 -0.470130
O49   O     O_2   0.991548 0.378214 0.579827 -0.480602
O50   O     O_2   0.609347 0.636332 0.913598 -0.470130
C61   C     C_R   0.095735 0.484737 0.024123 0.041821
C62   C     C_R   0.440746 0.994163 0.467349 0.051867
C63   C     C_R   0.515220 0.611015 0.024121 0.041825
C64   C     C_R   0.006733 0.446697 0.467390 0.051906
C65   C     C_R   0.389012 0.904243 0.024124 0.041825
C66   C     C_R   0.553563 0.559534 0.467348 0.051870
C67   C     C_R   0.446688 0.006154 0.532664 0.051849
C68   C     C_R   0.062415 0.469753 0.959301 0.039945
C69   C     C_R   0.559738 0.553463 0.532657 0.051846
C70   C     C_R   0.407347 0.937571 0.959303 0.039949
C71   C     C_R   0.994614 0.441062 0.532700 0.051831
C72   C     C_R   0.530202 0.592686 0.959299 0.039944
C73   C     C_R   0.082007 0.551259 0.008512 -0.029521
C74   C     C_R   0.514596 0.995355 0.483675 -0.024156
C75   C     C_R   0.448707 0.530762 0.008508 -0.029525
C76   C     C_R   0.004059 0.518756 0.483607 -0.024194
C77   C     C_R   0.469275 0.918002 0.008512 -0.029521
C78   C     C_R   0.480961 0.485625 0.483673 -0.024168
C79   C     C_R   0.519088 0.004374 0.516366 -0.024152
C80   C     C_R   0.067398 0.544911 0.975939 -0.029792
C81   C     C_R   0.485546 0.481077 0.516359 -0.024165
C82   C     C_R   0.477536 0.932615 0.975939 -0.029793
C83   C     C_R   0.994980 0.514394 0.516294 -0.024170
C84   C     C_R   0.455054 0.522504 0.975934 -0.029797
C85   C     C_R   0.071696 0.691546 0.009372 -0.117334
C86   C     C_R   0.659109 0.992788 0.483992 -0.108532
C87   C     C_R   0.308440 0.380155 0.009365 -0.117330
C88   C     C_R   0.003707 0.664410 0.483705 -0.108684
C89   C     C_R   0.619898 0.928369 0.009369 -0.117339
C90   C     C_R   0.333927 0.341063 0.483989 -0.108830
C91   C     C_R   0.665595 0.005771 0.516107 -0.108470
C92   C     C_R   0.060246 0.686909 0.977207 -0.118030
C93   C     C_R   0.340479 0.334527 0.516098 -0.108761
C94   C     C_R   0.626714 0.939824 0.977205 -0.118029
C95   C     C_R   0.990663 0.658015 0.515816 -0.108575
C96   C     C_R   0.313074 0.373342 0.977199 -0.118027
C97   C     C_R   0.096146 0.413199 0.006916 -0.111250
C98   C     C_R   0.370253 0.998470 0.483840 -0.101495
C99   C     C_R   0.586746 0.682972 0.006916 -0.111245
C100  C     C_R   0.003866 0.372722 0.483987 -0.101541
C101  C     C_R   0.317051 0.903806 0.006919 -0.111243
C102  C     C_R   0.628371 0.630018 0.483838 -0.101872
C103  C     C_R   0.372202 0.002432 0.516145 -0.101434
C104  C     C_R   0.078621 0.405168 0.975016 -0.108201
C105  C     C_R   0.630451 0.628000 0.516140 -0.101822
C106  C     C_R   0.326544 0.921334 0.975019 -0.108194
C107  C     C_R   0.999836 0.370941 0.516290 -0.101708
C108  C     C_R   0.594776 0.673481 0.975015 -0.108199
C109  C     C_R   0.047219 0.484476 0.126026 0.262016
C110  C     C_R   0.396331 0.854971 0.380411 0.273653
C111  C     C_R   0.515518 0.562760 0.126020 0.262006
C112  C     C_R   0.145517 0.542372 0.380425 0.273812
C113  C     C_R   0.437238 0.952766 0.126027 0.262009
C114  C     C_R   0.458531 0.603796 0.380408 0.273989
C115  C     C_R   0.541995 0.145246 0.619579 0.273404
C116  C     C_R   0.029856 0.490594 0.855961 0.262854
C117  C     C_R   0.603448 0.457976 0.619583 0.273728
C118  C     C_R   0.460764 0.970149 0.855962 0.262854
C119  C     C_R   0.855016 0.396050 0.619599 0.273546
C120  C     C_R   0.509377 0.539264 0.855957 0.262859
C121  C     C_R   0.063872 0.489203 0.158329 -0.118307
C122  C     C_R   0.376059 0.828648 0.349380 -0.118470
C123  C     C_R   0.510795 0.574681 0.158324 -0.118313
C124  C     C_R   0.172046 0.548683 0.349409 -0.118252
C125  C     C_R   0.425310 0.936113 0.158329 -0.118300
C126  C     C_R   0.452424 0.623981 0.349372 -0.118440
C127  C     C_R   0.548070 0.171646 0.650602 -0.117958
C128  C     C_R   0.982297 0.460434 0.827436 -0.112955
C129  C     C_R   0.623666 0.451836 0.650613 -0.117942
C130  C     C_R   0.478156 0.017702 0.827436 -0.112974
C131  C     C_R   0.828867 0.375769 0.650644 -0.118149
C132  C     C_R   0.539545 0.521862 0.827432 -0.112970
C133  C     C_R   0.190599 0.646348 0.152740 -0.157322
C134  C     C_R   0.525784 0.954686 0.333429 -0.146575
C135  C     C_R   0.353635 0.544231 0.152742 -0.157326
C136  C     C_R   0.044366 0.569586 0.333333 -0.146673
C137  C     C_R   0.455800 0.809428 0.152740 -0.157336
C138  C     C_R   0.429094 0.474368 0.333442 -0.146553
C139  C     C_R   0.570490 0.044876 0.666631 -0.145845
C140  C     C_R   0.854041 0.472826 0.848227 -0.149460
C141  C     C_R   0.474540 0.429659 0.666609 -0.145815
C142  C     C_R   0.618769 0.145990 0.848230 -0.149439
C143  C     C_R   0.954177 0.526042 0.666512 -0.145709
C144  C     C_R   0.527190 0.381240 0.848227 -0.149443
C145  C     C_R   0.178561 0.640789 0.120734 -0.111433
C146  C     C_R   0.545421 0.984400 0.364297 -0.079091
C147  C     C_R   0.359189 0.537756 0.120734 -0.111434
C148  C     C_R   0.014555 0.559334 0.364192 -0.079317
C149  C     C_R   0.462281 0.821465 0.120733 -0.111430
C150  C     C_R   0.439208 0.454814 0.364314 -0.079283
C151  C     C_R   0.560410 0.015127 0.635767 -0.078529
C152  C     C_R   0.898047 0.498105 0.876981 -0.100514
C153  C     C_R   0.454966 0.439777 0.635739 -0.078718
C154  C     C_R   0.600047 0.101988 0.876984 -0.100511
C155  C     C_R   0.983771 0.545703 0.635635 -0.078446
C156  C     C_R   0.501903 0.399972 0.876980 -0.100518
C157  C     C_R   0.107432 0.560631 0.106881 0.206730
C158  C     C_R   0.481081 0.935309 0.387957 0.232748
C159  C     C_R   0.439352 0.546804 0.106879 0.206724
C160  C     C_R   0.064368 0.545343 0.387910 0.232276
C161  C     C_R   0.453216 0.892572 0.106881 0.206726
C162  C     C_R   0.454311 0.519142 0.387965 0.232692
C163  C     C_R   0.545758 0.064538 0.612073 0.232395
C164  C     C_R   0.985436 0.506468 0.881427 0.215426
C165  C     C_R   0.519047 0.454336 0.612060 0.232338
C166  C     C_R   0.521044 0.014586 0.881429 0.215424
C167  C     C_R   0.934969 0.481087 0.612011 0.232869
C168  C     C_R   0.493515 0.478984 0.881423 0.215425
H13   H     H_    0.786061 0.465607 0.845662 0.135610
H14   H     H_    0.582686 0.006919 0.684661 0.138466
H15   H     H_    0.534426 0.320488 0.845663 0.135600
H16   H     H_    0.991607 0.576651 0.684480 0.138667
H17   H     H_    0.679515 0.213979 0.845664 0.135594
H18   H     H_    0.424379 0.417551 0.684628 0.138478
H19   H     H_    0.576168 0.992374 0.315431 0.137311
H20   H     H_    0.247282 0.708925 0.162465 0.151004
H21   H     H_    0.416528 0.424001 0.315449 0.137312
H22   H     H_    0.461721 0.752761 0.162464 0.151027
H23   H     H_    0.006054 0.581214 0.315286 0.137092
H24   H     H_    0.291053 0.538321 0.162468 0.151022
H25   H     H_    0.052238 0.740356 0.965764 0.174139
H26   H     H_    0.725213 0.010814 0.527999 0.173409
H27   H     H_    0.259634 0.311884 0.965755 0.174140
H28   H     H_    0.984437 0.712043 0.527619 0.173273
H29   H     H_    0.688180 0.947856 0.965760 0.174146
H30   H     H_    0.285941 0.274875 0.527987 0.173296
H31   H     H_    0.713456 0.987286 0.472123 0.173316
H32   H     H_    0.072328 0.748514 0.021695 0.176167
H33   H     H_    0.274077 0.286716 0.472121 0.173205
H34   H     H_    0.676244 0.927757 0.021690 0.176169
H35   H     H_    0.008068 0.723647 0.471751 0.173305
H36   H     H_    0.251480 0.323813 0.021686 0.176166
H37   H     H_    0.862897 0.509255 0.896224 0.151252
H38   H     H_    0.563447 0.953339 0.630262 0.158973
H39   H     H_    0.490763 0.353683 0.896224 0.151243
H40   H     H_    0.044941 0.610984 0.630062 0.158894
H41   H     H_    0.646336 0.137152 0.896226 0.151249
H42   H     H_    0.390198 0.436837 0.630216 0.158953
H43   H     H_    0.610460 0.045899 0.369831 0.158278
H44   H     H_    0.225868 0.699015 0.106515 0.174765
H45   H     H_    0.435811 0.389849 0.369861 0.158274
H46   H     H_    0.473229 0.774173 0.106515 0.174802
H47   H     H_    0.952394 0.561706 0.369674 0.158312
H48   H     H_    0.300954 0.526825 0.106518 0.174757
H49   H     H_    0.020709 0.430527 0.173060 0.170596
H50   H     H_    0.311175 0.767101 0.343536 0.145353
H51   H     H_    0.569480 0.590207 0.173054 0.170621
H52   H     H_    0.234198 0.546415 0.343609 0.144409
H53   H     H_    0.409767 0.979259 0.173061 0.170622
H54   H     H_    0.455603 0.688783 0.343514 0.145373
H55   H     H_    0.545197 0.233461 0.656417 0.145115
H56   H     H_    0.014160 0.445596 0.808016 0.165205
H57   H     H_    0.688287 0.454591 0.656448 0.145193
H58   H     H_    0.431467 0.985825 0.808016 0.165161
H59   H     H_    0.767604 0.310675 0.656522 0.146122
H60   H     H_    0.554371 0.568550 0.808011 0.165164
N13   N     N_R   0.968859 0.403421 0.113223 0.120377
O51   O     O_R   0.934569 0.324216 0.127506 -0.278827
O52   O     O_R   0.925104 0.410137 0.089225 -0.264968
N14   N     N_R   0.331069 0.798974 0.403964 0.114905
O53   O     O_R   0.242647 0.757058 0.398240 -0.292786
O54   O     O_R   0.359457 0.784011 0.430339 -0.235747
N15   N     N_R   0.596580 0.565474 0.113214 0.120383
O55   O     O_R   0.675788 0.610399 0.127496 -0.278815
O56   O     O_R   0.589872 0.515013 0.089212 -0.264970
N16   N     N_R   0.202025 0.534121 0.404016 0.115360
O57   O     O_R   0.244717 0.488322 0.398376 -0.292512
O58   O     O_R   0.216394 0.577435 0.430376 -0.235488
N17   N     N_R   0.434505 0.031106 0.113225 0.120376
O59   O     O_R   0.389548 0.065360 0.127506 -0.278812
O60   O     O_R   0.484974 0.074876 0.089228 -0.264972
N18   N     N_R   0.467637 0.669038 0.403950 0.115235
O61   O     O_R   0.513663 0.757434 0.398166 -0.292793
O62   O     O_R   0.424492 0.640637 0.430359 -0.235896
N19   N     N_R   0.533244 0.201470 0.595996 0.114956
O63   O     O_R   0.487032 0.243727 0.601657 -0.292440
O64   O     O_R   0.576624 0.216143 0.569638 -0.235865
N20   N     N_R   0.122588 0.505879 0.858574 0.126951
O65   O     O_R   0.151666 0.465268 0.839525 -0.277397
O66   O     O_R   0.181338 0.567177 0.877886 -0.221095
N21   N     N_R   0.668442 0.466628 0.596017 0.115294
O67   O     O_R   0.756869 0.512337 0.601757 -0.292524
O68   O     O_R   0.639769 0.423467 0.569621 -0.236035
N22   N     N_R   0.383341 0.877405 0.858574 0.126951
O69   O     O_R   0.313657 0.848302 0.839524 -0.277411
O70   O     O_R   0.385912 0.818669 0.877886 -0.221086
N23   N     N_R   0.799176 0.330552 0.596073 0.114787
O71   O     O_R   0.757293 0.242181 0.601885 -0.292760
O72   O     O_R   0.784075 0.358674 0.569666 -0.236225
N24   N     N_R   0.494073 0.616700 0.858567 0.126953
O73   O     O_R   0.534671 0.686380 0.839517 -0.277420
O74   O     O_R   0.432775 0.614153 0.877880 -0.221063

loop_
_geom_bond_atom_site_label_1
_geom_bond_atom_site_label_2
_geom_bond_distance
_ccdc_geom_bond_type
C88   C95   1.394885 A    
C38   O28   1.222242 D    
C19   C122  1.398467 A    
C51   C63   1.409325 A    
H11   C100  1.083474 S    
N4    C52   1.383622 Am   
C52   C64   1.401138 A    
C109  C157  1.422809 A    
C147  H48   1.083229 S    
C120  C168  1.419792 A    
N15   O56   1.301312 A    
C33   C45   1.406300 A    
C42   N6    1.383565 Am   
N8    C56   1.386719 Am   
O21   C9    1.288433 A    
O24   Cr6   1.899825 S    
O10   Cr4   2.009793 S    
C68   C80   1.409142 A    
C18   C141  1.397686 A    
O12   Cr6   2.009816 S    
C144  H15   1.083911 S    
C124  H52   1.084748 S    
H5    C106  1.083308 S    
N22   O69   1.301475 A    
C89   C94   1.394380 A    
H7    C98   1.083387 S    
O1    Cr1   2.009825 S    
O3    Cr3   2.009769 S    
N2    C50   1.383590 Am   
C155  H40   1.082722 S    
O7    C9    1.278769 A    
Cr6   O26   1.969653 S    
C93   H30   1.083286 S    
C45   N9    1.383527 Am   
N24   O73   1.301470 A    
C118  N22   1.440121 S    
C10   C24   1.474298 S    
C56   O46   1.222277 D    
C99   C108  1.396190 A    
C102  C105  1.391603 A    
C36   C48   1.407597 A    
C100  C107  1.391566 A    
O14   Cr2   1.899791 S    
C65   C77   1.409919 A    
N6    C162  1.442014 S    
O15   C3    1.289804 A    
N15   O55   1.301424 A    
N16   O57   1.300774 A    
C112  C124  1.393633 A    
O14   C2    1.288465 A    
C48   N12   1.385052 Am   
O15   Cr3   1.899866 S    
C28   C40   1.406319 A    
C57   C69   1.401153 A    
O5    C1    1.282039 A    
C121  H49   1.083047 S    
N14   O53   1.300852 A    
C123  H51   1.083045 S    
C7    C21   1.457100 S    
C142  C154  1.392259 A    
N7    C163  1.442097 S    
C45   O35   1.222259 D    
C138  H21   1.082967 S    
C47   O37   1.222280 D    
C97   C104  1.396194 A    
O23   Cr5   1.899770 S    
Cr2   O25   1.969695 S    
O17   C5    1.289802 A    
C153  C165  1.407028 A    
N9    C165  1.441980 S    
C117  C165  1.415376 A    
C145  H44   1.083229 S    
C17   C130  1.402797 A    
C46   N10   1.385065 Am   
C125  H53   1.083048 S    
C26   C38   1.406358 A    
C41   O31   1.222631 D    
C15   C144  1.397903 A    
C48   O38   1.222622 D    
O21   Cr6   1.899876 S    
N8    C164  1.449904 S    
N21   O67   1.300716 A    
N1    C157  1.449557 S    
C11   C19   1.457222 S    
C12   C20   1.474302 S    
C131  H59   1.084734 S    
C77   C82   1.417874 A    
N6    C54   1.383580 Am   
H1    C104  1.083300 S    
C143  H16   1.083031 S    
H2    C103  1.083383 S    
C64   C76   1.409266 A    
C28   C76   1.410118 A    
C156  C168  1.405589 A    
N5    C53   1.385928 Am   
C136  C148  1.398359 A    
C132  H60   1.083242 S    
C148  C160  1.407134 A    
C22   C137  1.402665 A    
N10   C58   1.386724 Am   
C112  C160  1.415527 A    
C29   C77   1.408915 A    
N18   O61   1.300778 A    
C32   C92   1.406373 A    
C24   C135  1.402660 A    
H8    C97   1.083238 S    
C54   O44   1.223026 D    
N20   O66   1.301446 A    
C59   C71   1.401128 A    
C60   C72   1.409434 A    
C138  C150  1.398316 A    
C64   C100  1.405302 A    
N18   O62   1.301188 A    
C139  H14   1.082964 S    
C51   O41   1.222409 D    
C63   C99   1.406836 A    
C49   O39   1.222413 D    
C35   C47   1.406318 A    
C54   C66   1.401160 A    
C39   O29   1.222627 D    
C89   H34   1.083276 S    
C27   C87   1.406566 A    
C28   C88   1.406501 A    
C23   C136  1.397751 A    
C115  N19   1.437779 S    
C27   C39   1.407056 A    
N17   O60   1.301311 A    
O22   C10   1.288024 A    
C37   N1    1.386146 Am   
C113  C125  1.412270 A    
C20   C133  1.402657 A    
C87   H36   1.083276 S    
C88   H35   1.083372 S    
N23   O72   1.301206 A    
C22   C125  1.401151 A    
C110  C122  1.393679 A    
C55   O45   1.223027 D    
C116  C128  1.410773 A    
C150  C162  1.407044 A    
O2    Cr2   2.009804 S    
C63   C75   1.409912 A    
H10   C101  1.083245 S    
C115  C127  1.393653 A    
O8    C10   1.285254 A    
C62   C74   1.409181 A    
C29   C41   1.407065 A    
C94   H29   1.083280 S    
C148  H47   1.082724 S    
C31   C43   1.406367 A    
C16   C143  1.397897 A    
C120  N24   1.440113 S    
O20   C8    1.288008 A    
C115  C163  1.415390 A    
C141  C153  1.398346 A    
C113  C161  1.422809 A    
C139  C151  1.398394 A    
C70   C106  1.407493 A    
C101  C106  1.396195 A    
C145  C157  1.401084 A    
C66   C78   1.409200 A    
C13   C140  1.397910 A    
C73   C80   1.417871 A    
C60   O50   1.222274 D    
C74   C79   1.413038 A    
H9    C102  1.083389 S    
C58   C70   1.409447 A    
C61   C73   1.409910 A    
C62   C98   1.405208 A    
C135  C147  1.388542 A    
O17   Cr2   1.899869 S    
C38   N2    1.383593 Am   
C19   C134  1.397772 A    
C118  C130  1.410785 A    
C25   C85   1.406565 A    
C133  C145  1.388546 A    
O19   Cr4   1.899863 S    
C122  H50   1.084644 S    
Cr4   O26   1.969697 S    
N22   O70   1.301444 A    
C1    C15   1.470109 S    
C136  H23   1.083001 S    
C140  H13   1.083913 S    
C2    C16   1.457258 S    
C4    C18   1.456966 S    
C20   C121  1.401148 A    
C69   C105  1.405215 A    
C112  N16   1.437783 S    
C110  C158  1.415473 A    
C72   C108  1.407482 A    
O19   C7    1.288497 A    
C34   C46   1.407605 A    
C71   C107  1.405311 A    
C153  H42   1.082617 S    
C56   C68   1.409440 A    
C13   C128  1.402795 A    
N24   O74   1.301445 A    
C61   C97   1.406833 A    
C126  H54   1.084644 S    
C41   N5    1.386152 Am   
C43   N7    1.383560 Am   
C67   C103  1.405208 A    
C130  H58   1.083243 S    
C92   H25   1.083274 S    
C36   C84   1.409645 A    
C78   C81   1.413016 A    
C58   O48   1.222279 D    
N12   C168  1.449903 S    
C76   C83   1.412994 A    
C85   H32   1.083273 S    
N16   O58   1.301185 A    
C86   H31   1.083281 S    
C98   C103  1.391605 A    
O16   Cr1   1.899892 S    
O8    Cr5   2.009694 S    
C52   O42   1.223070 D    
O5    Cr2   2.009709 S    
N1    C49   1.385919 Am   
N3    C51   1.385919 Am   
N14   O54   1.301197 A    
N11   C167  1.442020 S    
C33   C81   1.410047 A    
C70   C82   1.409154 A    
C66   C102  1.405220 A    
N7    C55   1.383594 Am   
H4    C107  1.083473 S    
C127  H55   1.084633 S    
C30   C78   1.410031 A    
C57   O47   1.223022 D    
N3    C159  1.449561 S    
C25   C73   1.408905 A    
C137  H22   1.082045 S    
C151  H38   1.082614 S    
Cr1   O25   1.969696 S    
C49   C61   1.409331 A    
O18   Cr3   1.899835 S    
C50   O40   1.223030 D    
C149  C161  1.401090 A    
N5    C161  1.449570 S    
C27   C75   1.408910 A    
C90   H33   1.083287 S    
N13   O52   1.301312 A    
C113  N17   1.439166 S    
C44   O34   1.222622 D    
C5    C13   1.470123 S    
O23   C11   1.288471 A    
Cr5   O26   1.969692 S    
C69   C81   1.409193 A    
C29   C89   1.406575 A    
C8    C22   1.474320 S    
C142  H17   1.083920 S    
C33   C93   1.406396 A    
C152  C164  1.405597 A    
C119  N23   1.438017 S    
C156  H39   1.082974 S    
C144  C156  1.392257 A    
N23   O71   1.300846 A    
C154  C166  1.405599 A    
N10   C166  1.449914 S    
C149  H46   1.083225 S    
C118  C166  1.419799 A    
C40   N4    1.383623 Am   
C47   N11   1.383574 Am   
C42   O32   1.222263 D    
C16   C131  1.398578 A    
C25   C37   1.407057 A    
C44   N8    1.385057 Am   
N9    C57   1.383571 Am   
O4    Cr1   2.009709 S    
N2    C158  1.442138 S    
O9    C11   1.278760 A    
O6    Cr3   2.009790 S    
C133  H20   1.082043 S    
O10   C12   1.285243 A    
C128  H56   1.083244 S    
C90   C93   1.394882 A    
O16   C4    1.288449 A    
C146  C158  1.407046 A    
C65   C101  1.406843 A    
N13   O51   1.301428 A    
C67   C79   1.409167 A    
C117  N21   1.437880 S    
O20   Cr5   1.899890 S    
O6    C2    1.278783 A    
N17   O59   1.301428 A    
C150  H45   1.082624 S    
O9    Cr6   2.009745 S    
C120  C132  1.410771 A    
C116  C164  1.419795 A    
C26   C86   1.406420 A    
C21   C138  1.397696 A    
C109  N13   1.439166 S    
N11   C59   1.383590 Am   
O3    C5    1.282026 A    
C40   O30   1.222316 D    
C114  N18   1.437959 S    
C23   C124  1.398363 A    
C3    C17   1.470124 S    
C137  C149  1.388559 A    
C17   C142  1.397912 A    
C46   O36   1.222628 D    
N4    C160  1.442101 S    
N21   O68   1.301173 A    
O7    Cr4   2.009739 S    
O18   C6    1.288417 A    
C32   C44   1.407605 A    
O13   Cr1   1.899775 S    
C119  C167  1.415566 A    
C146  H43   1.082632 S    
C85   C92   1.394380 A    
C147  C159  1.401083 A    
C86   C91   1.394932 A    
C154  H41   1.082976 S    
O12   C8    1.285239 A    
C24   C123  1.401148 A    
O13   C1    1.289808 A    
C59   O49   1.223077 D    
C155  C167  1.407081 A    
C43   O33   1.222248 D    
C111  C159  1.422803 A    
C114  C126  1.393703 A    
N19   O64   1.301184 A    
C140  C152  1.392260 A    
C35   C95   1.406521 A    
C36   C96   1.406376 A    
Cr3   O25   1.969651 S    
C21   C126  1.398441 A    
C109  C121  1.412274 A    
C135  H24   1.082039 S    
C91   H26   1.083279 S    
C151  C163  1.407030 A    
N20   O65   1.301466 A    
C95   H28   1.083375 S    
C37   O27   1.222632 D    
C14   C139  1.397750 A    
C96   H27   1.083274 S    
C116  N20   1.440121 S    
C68   C104  1.407479 A    
O22   Cr4   1.899804 S    
C30   C42   1.406286 A    
C72   C84   1.409146 A    
C143  C155  1.398335 A    
C55   C67   1.401152 A    
C34   C82   1.409651 A    
C71   C83   1.409285 A    
C111  C123  1.412278 A    
C31   C91   1.406407 A    
C53   C65   1.409330 A    
C15   C132  1.402787 A    
C9    C23   1.456930 S    
O1    C3    1.282030 A    
C31   C79   1.410036 A    
C141  H18   1.082957 S    
C32   C80   1.409642 A    
C114  C162  1.415443 A    
C134  H19   1.082968 S    
C26   C74   1.410014 A    
C152  H37   1.082973 S    
C35   C83   1.410132 A    
C50   C62   1.401163 A    
C111  N15   1.439170 S    
C75   C84   1.417867 A    
C110  N14   1.437865 S    
O24   C12   1.288004 A    
N19   O63   1.300794 A    
C14   C127  1.398368 A    
C6    C14   1.457071 S    
C18   C129  1.398356 A    
C39   N3    1.386142 Am   
O11   Cr5   2.009818 S    
C119  C131  1.393708 A    
C134  C146  1.398369 A    
C30   C90   1.406405 A    
C117  C129  1.393698 A    
O11   C7    1.278727 A    
N12   C60   1.386715 Am   
C34   C94   1.406383 A    
C129  H57   1.084646 S    
O2    C4    1.278774 A    
C53   O43   1.222416 D    
H3    C108  1.083304 S    
H6    C105  1.083392 S    
O4    C6    1.278818 A    
C87   C96   1.394382 A    
H12   C99   1.083242 S    
