data_mof_unit_35184.cif
_audit_creation_date              2013-03-05T15:49:21-0500
_audit_creation_method            fapswitch 2.2
_symmetry_space_group_name_H-M    P1
_symmetry_Int_Tables_number       1
_space_group_crystal_system       triclinic
_cell_length_a                    23.574288
_cell_length_b                    25.148072
_cell_length_c                    8.653047
_cell_angle_alpha                 89.999515
_cell_angle_beta                  99.290195
_cell_angle_gamma                 90.014003
_cell_volume                      5062.65291971

loop_
_atom_site_label
_atom_site_type_symbol
_atom_site_description
_atom_site_fract_x
_atom_site_fract_y
_atom_site_fract_z
_atom_type_partial_charge
P1    P     P_3+3 0.883430 0.443490 0.026090 0.550215
P2    P     P_3+3 0.883430 0.556510 0.526090 0.556081
P3    P     P_3+3 0.383430 0.943490 0.026090 0.555437
P4    P     P_3+3 0.383430 0.056510 0.526090 0.550513
O1    O     O_2   0.888900 0.426190 0.854560 -0.397766
O2    O     O_2   0.888900 0.573810 0.354560 -0.308688
O3    O     O_2   0.388900 0.926190 0.854560 -0.310203
O4    O     O_2   0.388900 0.073810 0.354560 -0.395986
O5    O     O_3   0.935290 0.474120 0.115310 -0.291590
O6    O     O_3   0.935290 0.525880 0.615310 -0.339487
O7    O     O_3   0.435290 0.974120 0.115310 -0.338952
O8    O     O_3   0.435290 0.025880 0.615310 -0.292613
O9    O     O_3   0.980700 0.380570 0.633410 -0.339358
O10   O     O_3   0.980700 0.619430 0.133410 -0.324239
O11   O     O_3   0.480700 0.880570 0.633410 -0.296346
O12   O     O_3   0.480700 0.119430 0.133410 -0.332350
O13   O     O_2   0.886443 0.333475 0.691673 -0.397060
O14   O     O_2   0.886957 0.668335 0.185720 -0.384738
O15   O     O_2   0.387248 0.832506 0.689208 -0.377995
O16   O     O_2   0.386324 0.166432 0.190636 -0.393550
O17   O     O_3   0.812488 0.472542 0.012729 -0.597300
O18   O     O_3   0.814478 0.525203 0.519960 -0.587694
O19   O     O_3   0.314372 0.974664 0.020138 -0.593274
O20   O     O_3   0.312633 0.027116 0.512783 -0.595027
O21   O     O_3   0.968987 0.269729 0.647726 -0.492308
O22   O     O_3   0.968130 0.734172 0.138678 -0.568522
O23   O     O_3   0.471280 0.768914 0.651318 -0.500929
O24   O     O_3   0.468850 0.230345 0.148300 -0.551947
H1    H     H_    0.016794 0.289329 0.468509 -0.088664
H2    H     H_    0.048008 0.697378 0.155020 0.053825
H3    H     H_    0.519702 0.788426 0.473337 -0.089547
H4    H     H_    0.517257 0.211058 0.970120 -0.021015
C1    C     C_3   0.066950 0.242139 0.644090 -0.456498
C2    C     C_3   0.058993 0.780469 0.202377 -0.309176
C3    C     C_3   0.569407 0.741579 0.650566 -0.482458
C4    C     C_3   0.567397 0.256799 0.150454 -0.323000
H5    H     H_    0.098717 0.235874 0.564112 0.168138
H6    H     H_    0.103540 0.782140 0.175473 0.195084
H7    H     H_    0.601554 0.734940 0.571882 0.168679
H8    H     H_    0.600099 0.262490 0.072986 0.187733
H9    H     H_    0.081876 0.276395 0.721087 0.253435
H10   H     H_    0.063031 0.771982 0.328958 0.231672
H11   H     H_    0.584062 0.776116 0.726642 0.255593
H12   H     H_    0.580972 0.222178 0.227218 0.230972
P5    P     P_3+3 0.116320 0.442910 0.663460 0.479442
P6    P     P_3+3 0.116320 0.557090 0.163460 0.480695
P7    P     P_3+3 0.616320 0.942910 0.663460 0.480798
P8    P     P_3+3 0.616320 0.057090 0.163460 0.479321
P9    P     P_3+3 0.071851 0.331363 0.097688 0.457524
P10   P     P_3+3 0.073321 0.667466 0.597716 0.454265
P11   P     P_3+3 0.571941 0.831463 0.097888 0.458840
P12   P     P_3+3 0.571613 0.168820 0.597804 0.464363
O25   O     O_2   0.110790 0.425640 0.834940 -0.372329
O26   O     O_2   0.110790 0.574360 0.334940 -0.375476
O27   O     O_2   0.610790 0.925640 0.834940 -0.371632
O28   O     O_2   0.610790 0.074360 0.334940 -0.372869
O29   O     O_3   0.018840 0.380480 0.055970 -0.392664
O30   O     O_3   0.018840 0.619520 0.555970 -0.402830
O31   O     O_3   0.518840 0.880480 0.055970 -0.386495
O32   O     O_3   0.518840 0.119520 0.555970 -0.397012
O33   O     O_2   0.114852 0.339223 0.982247 -0.373916
O34   O     O_2   0.112584 0.663731 0.471023 -0.396782
O35   O     O_2   0.614848 0.839221 0.982150 -0.375148
O36   O     O_2   0.614683 0.160937 0.482565 -0.377823
O37   O     O_3   0.174328 0.487989 0.678201 -0.604223
O38   O     O_3   0.173498 0.511138 0.178490 -0.600647
O39   O     O_3   0.673955 0.988347 0.677986 -0.602440
O40   O     O_3   0.674002 0.011731 0.177973 -0.603633
O41   O     O_3   0.039920 0.269706 0.043626 -0.524977
O42   O     O_3   0.042256 0.730825 0.569911 -0.521230
O43   O     O_3   0.540006 0.769785 0.044492 -0.524999
O44   O     O_3   0.539382 0.230301 0.542998 -0.512181
C5    C     C_3   0.982409 0.271535 0.068263 0.461288
C6    C     C_3   0.982420 0.725557 0.527565 0.465666
C7    C     C_3   0.482877 0.771294 0.072441 0.461923
C8    C     C_3   0.481857 0.228298 0.567642 0.512996
H13   H     H_    0.957647 0.301494 0.990374 0.150226
H14   H     H_    0.971884 0.705326 0.413109 0.162101
H15   H     H_    0.457458 0.801243 0.996004 0.148504
H16   H     H_    0.457438 0.197419 0.492588 0.131830
H17   H     H_    0.980475 0.281026 0.192411 -0.008588
H18   H     H_    0.963948 0.702556 0.615734 0.054016
H19   H     H_    0.481808 0.780595 0.197196 -0.006984
H20   H     H_    0.480099 0.220086 0.692673 0.002057
C9    C     C_3   0.953602 0.217886 0.030340 -0.947063
C10   C     C_3   0.954315 0.780102 0.517924 -0.899986
C11   C     C_3   0.454225 0.717544 0.035296 -0.943085
C12   C     C_3   0.452190 0.281245 0.524346 -0.933030
H21   H     H_    0.944824 0.211652 0.901780 0.281820
H22   H     H_    0.973377 0.806008 0.436479 0.265769
H23   H     H_    0.412784 0.716296 0.080662 0.245201
H24   H     H_    0.442395 0.285562 0.395214 0.264077
H25   H     H_    0.981399 0.185228 0.085582 0.259087
H26   H     H_    0.960624 0.798956 0.635471 0.274231
H27   H     H_    0.445196 0.711240 0.906768 0.280419
H28   H     H_    0.479847 0.314847 0.573511 0.296874
C13   C     C_3   0.194602 0.495937 0.333155 0.619531
C14   C     C_3   0.195946 0.502906 0.832880 0.620724
C15   C     C_3   0.694752 0.995947 0.332354 0.619258
C16   C     C_3   0.694598 0.004255 0.832315 0.620466
H29   H     H_    0.158708 0.491588 0.399849 0.152591
H30   H     H_    0.160217 0.508043 0.899826 0.152209
H31   H     H_    0.658740 0.991377 0.398607 0.151103
H32   H     H_    0.658551 0.008737 0.898476 0.150291
C17   C     C_3   0.239404 0.536259 0.413490 -0.613224
C18   C     C_3   0.239853 0.461821 0.913198 -0.603295
C19   C     C_3   0.739518 0.035994 0.414288 -0.611119
C20   C     C_3   0.739473 0.964370 0.914455 -0.601578
H33   H     H_    0.217491 0.573359 0.440772 0.211980
H34   H     H_    0.217204 0.425066 0.939878 0.212856
H35   H     H_    0.717605 0.073076 0.441742 0.213574
H36   H     H_    0.717661 0.927228 0.941975 0.212667
H37   H     H_    0.261000 0.519613 0.526384 0.155341
H38   H     H_    0.261525 0.478133 0.026475 0.150054
H39   H     H_    0.760787 0.019062 0.527119 0.153880
H40   H     H_    0.760675 0.981388 0.027246 0.151140
Ba1   Ba    Ba6+2 0.999910 0.463090 0.844860 1.607365
Ba2   Ba    Ba6+2 0.999910 0.536910 0.344860 1.578884
Ba3   Ba    Ba6+2 0.499910 0.963090 0.844860 1.592887
Ba4   Ba    Ba6+2 0.499910 0.036910 0.344860 1.607976
C21   C     C_3   0.801386 0.526824 0.969809 0.458851
C22   C     C_3   0.798441 0.473615 0.456155 0.481622
C23   C     C_3   0.298314 0.026222 0.955958 0.472394
C24   C     C_3   0.301735 0.972772 0.469869 0.464823
C25   C     C_3   0.748801 0.529219 0.834684 -0.631592
C26   C     C_3   0.733063 0.475202 0.374780 -0.517523
C27   C     C_3   0.233138 0.024376 0.873333 -0.522262
C28   C     C_3   0.248811 0.970208 0.335776 -0.630789
H41   H     H_    0.762386 0.514618 0.728338 0.167770
H42   H     H_    0.731161 0.488746 0.252680 0.168511
H43   H     H_    0.231623 0.009910 0.752335 0.172349
H44   H     H_    0.261920 0.985248 0.229257 0.164370
O45   O     O_3   0.064650 0.525760 0.074400 -0.350691
O46   O     O_3   0.064650 0.474240 0.574400 -0.351477
O47   O     O_3   0.564650 0.025760 0.074400 -0.351101
O48   O     O_3   0.564650 0.974240 0.574400 -0.355234
P13   P     P_3+3 0.933944 0.673448 0.080157 0.456900
P14   P     P_3+3 0.932206 0.328273 0.582622 0.483489
P15   P     P_3+3 0.432308 0.171773 0.082291 0.447924
P16   P     P_3+3 0.433899 0.826766 0.582923 0.526080
C29   C     C_3   0.008296 0.256066 0.546653 0.480203
C30   C     C_3   0.025553 0.734509 0.110178 0.318539
C31   C     C_3   0.511017 0.755228 0.551492 0.474375
C32   C     C_3   0.508919 0.243988 0.049621 0.391366
H45   H     H_    0.911990 0.216780 0.074863 0.244030
H46   H     H_    0.907483 0.776042 0.475364 0.225840
H47   H     H_    0.482280 0.685018 0.090289 0.259714
H48   H     H_    0.411048 0.282863 0.571184 0.222609
H49   H     H_    0.195969 0.649817 0.224347 0.187825
H50   H     H_    0.196008 0.350241 0.723035 0.185630
H51   H     H_    0.696633 0.149313 0.222108 0.187612
H52   H     H_    0.696860 0.850917 0.722103 0.185259
H53   H     H_    0.839701 0.263818 0.394989 0.183929
H54   H     H_    0.842724 0.738764 0.891011 0.166837
H55   H     H_    0.343339 0.760910 0.392204 0.186379
H56   H     H_    0.340248 0.236616 0.894507 0.159538
C33   C     C_R   0.915584 0.365693 0.267865 -0.421833
C34   C     C_R   0.914171 0.632815 0.769536 -0.460517
C35   C     C_R   0.415295 0.866432 0.269550 -0.458518
C36   C     C_R   0.415664 0.134412 0.767551 -0.412009
C37   C     C_R   0.881263 0.376013 0.121561 0.300316
C38   C     C_R   0.879468 0.622669 0.624463 0.256768
C39   C     C_R   0.380121 0.876963 0.124953 0.252252
C40   C     C_R   0.381191 0.123990 0.621544 0.296144
C41   C     C_R   0.835443 0.340887 0.068359 -0.263570
C42   C     C_R   0.834302 0.658272 0.570216 -0.275730
C43   C     C_R   0.334995 0.841272 0.071139 -0.271616
C44   C     C_R   0.335329 0.159081 0.568509 -0.262749
C45   C     C_R   0.821740 0.298641 0.163605 0.045229
C46   C     C_R   0.822150 0.701758 0.663056 0.047076
C47   C     C_R   0.323011 0.797717 0.163972 0.033396
C48   C     C_R   0.321812 0.201463 0.663560 0.076841
C49   C     C_R   0.852415 0.293594 0.316831 -0.220915
C50   C     C_R   0.854000 0.707742 0.814593 -0.269050
C51   C     C_R   0.354872 0.791737 0.315537 -0.246646
C52   C     C_R   0.352744 0.206693 0.816466 -0.291502
C53   C     C_R   0.898324 0.328025 0.371394 0.165292
C54   C     C_R   0.898993 0.672457 0.870189 0.243207
C55   C     C_R   0.400097 0.826820 0.370997 0.206392
C56   C     C_R   0.398564 0.172180 0.870996 0.161806
C57   C     C_R   0.173211 0.653688 0.105902 -0.259496
C58   C     C_R   0.172026 0.345447 0.606358 -0.258912
C59   C     C_R   0.672340 0.154339 0.105855 -0.266362
C60   C     C_R   0.672603 0.845889 0.605803 -0.258474
C61   C     C_R   0.129209 0.617192 0.049749 0.265620
C62   C     C_R   0.127557 0.381606 0.551318 0.278335
C63   C     C_R   0.627680 0.118324 0.051116 0.280263
C64   C     C_R   0.627829 0.881780 0.551158 0.275979
C65   C     C_R   0.115076 0.661748 0.797010 0.262338
C66   C     C_R   0.110255 0.334343 0.302058 0.222303
C67   C     C_R   0.610046 0.165833 0.802225 0.223154
C68   C     C_R   0.610458 0.834498 0.302054 0.223025
C69   C     C_R   0.159448 0.697764 0.852594 -0.196406
C70   C     C_R   0.155292 0.298952 0.356693 -0.284398
C71   C     C_R   0.655149 0.201185 0.856759 -0.244443
C72   C     C_R   0.655627 0.799220 0.356445 -0.282905
C73   C     C_R   0.188827 0.694155 0.007618 0.044896
C74   C     C_R   0.186462 0.304039 0.509386 0.069981
C75   C     C_R   0.686577 0.195895 0.009085 0.050282
C76   C     C_R   0.686997 0.804473 0.508835 0.068776
C77   C     C_1   0.235901 0.730917 0.063503 0.052961
C78   C     C_1   0.233991 0.267638 0.564293 0.039816
C79   C     C_1   0.734067 0.232339 0.063996 0.047823
C80   C     C_1   0.734600 0.768158 0.563564 0.037757
C81   C     C_1   0.773798 0.262662 0.108887 0.056585
C82   C     C_1   0.774360 0.737874 0.608337 0.030167
C83   C     C_1   0.275395 0.761429 0.108939 0.042219
C84   C     C_1   0.273788 0.237376 0.609056 0.038632
C85   C     C_R   0.100054 0.622117 0.896286 -0.502130
C86   C     C_R   0.096340 0.374943 0.400411 -0.436128
C87   C     C_R   0.596240 0.125148 0.900512 -0.452357
C88   C     C_R   0.596465 0.875009 0.400509 -0.437338
H57   H     H_    0.170730 0.728607 0.775599 0.165305
H58   H     H_    0.166398 0.267987 0.279848 0.160503
H59   H     H_    0.666146 0.232246 0.780049 0.163261
H60   H     H_    0.666718 0.768255 0.279579 0.161474
H61   H     H_    0.808550 0.348268 0.956611 0.178767
H62   H     H_    0.807067 0.650701 0.459094 0.180494
H63   H     H_    0.307596 0.848851 0.960286 0.180442
H64   H     H_    0.308297 0.151599 0.457027 0.176194
H65   H     H_    0.951486 0.391528 0.309642 0.189100
H66   H     H_    0.949011 0.605892 0.812091 0.177531
H67   H     H_    0.450028 0.893467 0.312048 0.177359
H68   H     H_    0.451553 0.108572 0.809257 0.187272
H69   H     H_    0.066567 0.594030 0.851992 0.178292
H70   H     H_    0.063048 0.403167 0.355990 0.166249
H71   H     H_    0.562854 0.096979 0.856240 0.168308
H72   H     H_    0.562961 0.903071 0.356375 0.163968
C89   C     C_2   0.284980 0.549310 0.316156 0.654056
H73   H     H_    0.313431 0.518509 0.285937 0.006668
O49   O     O_2   0.291336 0.594838 0.273307 -0.587255
C90   C     C_2   0.285464 0.448072 0.816579 0.623646
H74   H     H_    0.314413 0.478454 0.786427 0.017603
O50   O     O_2   0.291383 0.402391 0.774470 -0.608378
C91   C     C_2   0.785450 0.049172 0.318241 0.652238
H75   H     H_    0.814158 0.018442 0.288932 0.005993
O51   O     O_2   0.791786 0.094706 0.275423 -0.586225
C92   C     C_2   0.785459 0.951316 0.818501 0.625419
H76   H     H_    0.814123 0.982115 0.789305 0.014342
O52   O     O_2   0.791877 0.905809 0.775598 -0.603701
C93   C     C_2   0.852707 0.550048 0.920124 0.514097
H77   H     H_    0.859097 0.543892 0.803361 -0.011995
O53   O     O_2   0.891881 0.565860 0.017352 -0.504553
C94   C     C_2   0.833139 0.455482 0.340228 0.476458
H78   H     H_    0.812526 0.428871 0.251044 0.030421
O54   O     O_2   0.884897 0.462034 0.361640 -0.542317
C95   C     C_2   0.333301 0.044514 0.840741 0.483613
H79   H     H_    0.312746 0.070973 0.751126 0.031453
O55   O     O_2   0.385103 0.038236 0.863010 -0.542609
C96   C     C_2   0.352940 0.949816 0.418806 0.507336
H80   H     H_    0.358639 0.955641 0.301566 -0.009766
O56   O     O_2   0.392611 0.934377 0.515018 -0.511081
C97   C     C_3   0.785015 0.559961 0.107300 -0.834535
H81   H     H_    0.797665 0.602383 0.100655 0.237815
H82   H     H_    0.738193 0.560590 0.109821 0.213006
H83   H     H_    0.805033 0.543822 0.218645 0.273241
C98   C     C_3   0.808622 0.430239 0.581638 -0.879525
H84   H     H_    0.792524 0.390745 0.536806 0.191280
H85   H     H_    0.855264 0.424656 0.607644 0.303138
H86   H     H_    0.790089 0.438231 0.687981 0.269847
C99   C     C_3   0.307864 0.069660 0.081465 -0.877085
H87   H     H_    0.291493 0.109030 0.036416 0.192497
H88   H     H_    0.289270 0.061528 0.187607 0.269060
H89   H     H_    0.354411 0.075649 0.108108 0.304604
C100  C     C_3   0.285924 0.939431 0.607617 -0.835361
H90   H     H_    0.299426 0.897242 0.601807 0.239112
H91   H     H_    0.305413 0.956143 0.718635 0.270913
H92   H     H_    0.239112 0.937921 0.610005 0.216666
C101  C     C_2   0.700361 0.493643 0.868884 0.791501
H93   H     H_    0.675142 0.504439 0.958511 0.030671
O57   O     O_2   0.689351 0.452173 0.796816 -0.614389
C102  C     C_2   0.697119 0.514502 0.447761 0.616053
H94   H     H_    0.667848 0.501149 0.524691 0.044133
O58   O     O_2   0.700755 0.562060 0.421560 -0.572360
C103  C     C_2   0.196888 0.985982 0.948411 0.624268
H95   H     H_    0.171403 0.999630 0.034173 0.039250
O59   O     O_2   0.195856 0.938906 0.913429 -0.560774
C104  C     C_2   0.200257 0.005223 0.372133 0.780309
H96   H     H_    0.174653 0.993334 0.459804 0.033010
O60   O     O_2   0.189695 0.047526 0.304386 -0.619445
C105  C     C_2   0.728212 0.585448 0.794993 0.533049
H97   H     H_    0.758167 0.614501 0.762965 0.037936
O61   O     O_2   0.678581 0.598842 0.797734 -0.588725
C106  C     C_2   0.702900 0.421880 0.361194 0.416551
H98   H     H_    0.691110 0.403007 0.464353 0.087202
O62   O     O_2   0.691048 0.399758 0.234421 -0.554838
C107  C     C_2   0.203086 0.077708 0.855555 0.419944
H99   H     H_    0.190831 0.097373 0.956927 0.076847
O63   O     O_2   0.191784 0.098937 0.727321 -0.559787
C108  C     C_2   0.228646 0.913876 0.295266 0.532377
H100  H     H_    0.258667 0.885327 0.261028 0.035222
O64   O     O_2   0.179321 0.899835 0.299804 -0.573121
C109  C     C_2   0.985648 0.210008 0.443623 0.457672
H101  H     H_    0.012006 0.193223 0.364113 -0.002021
O65   O     O_2   0.938356 0.190953 0.448947 -0.541439
C110  C     C_2   0.027532 0.738107 0.937230 0.515591
H102  H     H_    0.009986 0.705731 0.862976 -0.057355
O66   O     O_2   0.050197 0.775271 0.879852 -0.563496
C111  C     C_2   0.488906 0.708971 0.448588 0.455362
H103  H     H_    0.515484 0.692428 0.369244 -0.000837
O67   O     O_2   0.441782 0.689521 0.453720 -0.542871
C112  C     C_2   0.486247 0.290548 0.949010 0.425088
H104  H     H_    0.441699 0.302643 0.941642 0.052405
O68   O     O_2   0.517197 0.314184 0.871717 -0.579187
C113  C     C_3   0.066383 0.192242 0.744960 -0.677209
H105  H     H_    0.108835 0.187664 0.820776 0.250349
H106  H     H_    0.032955 0.195162 0.820567 0.281905
H107  H     H_    0.058306 0.156276 0.670224 0.235064
C114  C     C_3   0.030617 0.835168 0.171505 -0.690462
H108  H     H_    0.984433 0.833781 0.182739 0.247968
H109  H     H_    0.052425 0.864153 0.258145 0.251503
H110  H     H_    0.034555 0.850001 0.053106 0.279661
C115  C     C_3   0.568298 0.692139 0.752971 -0.625282
H111  H     H_    0.609991 0.688504 0.832810 0.264069
H112  H     H_    0.533604 0.694889 0.824581 0.276096
H113  H     H_    0.561753 0.655791 0.679400 0.237632
C116  C     C_3   0.567183 0.306599 0.251966 -0.685958
H114  H     H_    0.532062 0.304904 0.322311 0.270410
H115  H     H_    0.608746 0.309611 0.332749 0.249015
H116  H     H_    0.561906 0.342894 0.178032 0.257248
C117  C     C_3   0.221258 0.440446 0.330595 -1.034880
H117  H     H_    0.189898 0.412847 0.263342 0.261755
H118  H     H_    0.260170 0.440669 0.274050 0.243803
H119  H     H_    0.233297 0.425118 0.451735 0.260330
C118  C     C_3   0.223945 0.557834 0.830239 -1.030914
H120  H     H_    0.193810 0.585621 0.759657 0.258117
H121  H     H_    0.235121 0.573623 0.951107 0.261034
H122  H     H_    0.263562 0.556611 0.776887 0.245457
C119  C     C_3   0.721309 0.940458 0.328481 -1.034245
H123  H     H_    0.689836 0.913029 0.260897 0.261474
H124  H     H_    0.760145 0.940807 0.271591 0.244159
H125  H     H_    0.733445 0.924852 0.449278 0.260532
C120  C     C_3   0.720985 0.059823 0.828243 -1.028873
H126  H     H_    0.689413 0.087151 0.760651 0.260421
H127  H     H_    0.733113 0.075481 0.948988 0.259187
H128  H     H_    0.759800 0.059577 0.771264 0.246500

loop_
_geom_bond_atom_site_label_1
_geom_bond_atom_site_label_2
_geom_bond_distance
_ccdc_geom_bond_type
C15   H31   1.104404 S    
C16   C120  1.532182 S    
C11   H23   1.110531 S    
P7    O48   1.547824 S    
C91   O51   1.220101 D    
P8    O47   1.547526 S    
C2    H10   1.104838 S    
Ba1   O45   2.788975 S    
P8    Ba4   3.412121 S    
O27   Ba3   2.792950 S    
C120  H126  1.108164 S    
C15   C119  1.532169 S    
C79   C81   1.221422 T    
O38   C13   1.403507 S    
C26   C102  1.505581 S    
C106  H98   1.085984 S    
C45   C81   1.465241 S    
C30   C110  1.507483 S    
C4    C116  1.530188 S    
H53   C49   1.083165 S    
C16   H32   1.104413 S    
C94   H78   1.076236 S    
C43   H63   1.083350 S    
H56   C52   1.083237 S    
C102  H94   1.086382 S    
O42   C6    1.405208 S    
O23   C31   1.415474 S    
C107  O63   1.221419 D    
O24   C32   1.413971 S    
P4    O8    1.542638 S    
C3    C115  1.529442 S    
C13   C17   1.545758 S    
P9    O41   1.753689 S    
P11   O43   1.753063 S    
C5    H17   1.108563 S    
O18   C22   1.436389 S    
C41   C45   1.413534 A    
C92   O52   1.220085 D    
O3    Ba3   2.790426 S    
C40   C44   1.413690 A    
C2    C114  1.534227 S    
C10   H22   1.106854 S    
C43   C47   1.413496 A    
C14   H30   1.104226 S    
C116  H116  1.110055 S    
C89   H73   1.084020 S    
P12   O44   1.754126 S    
O10   P13   1.763349 S    
C48   C84   1.465586 S    
C90   O50   1.220003 D    
C12   H48   1.110633 S    
C44   H64   1.083294 S    
C21   C97   1.551527 S    
O39   C16   1.403675 S    
C110  H102  1.077441 S    
C36   H68   1.081681 S    
C63   C87   1.401884 A    
C101  O57   1.221278 D    
C46   C82   1.465145 S    
C61   C85   1.398732 A    
C4    H12   1.110460 S    
C36   C40   1.411997 A    
C97   H82   1.107633 S    
C46   C50   1.409921 A    
C120  H128  1.107288 S    
C66   C86   1.401660 A    
C27   C103  1.504471 S    
C69   H57   1.083227 S    
Ba3   O48   3.006314 S    
C14   C18   1.546006 S    
Ba4   O47   3.006390 S    
P10   O42   1.754029 S    
P2    O18   1.799010 S    
C64   C88   1.401333 A    
P4    O20   1.811783 S    
H3    C31   1.113960 S    
C27   H43   1.103532 S    
H4    C32   1.114196 S    
P3    O7    1.542343 S    
C25   H41   1.085995 S    
C117  H117  1.108046 S    
O1    Ba1   2.790426 S    
C5    H13   1.111666 S    
C98   H85   1.095253 S    
C96   O56   1.211293 D    
C37   C41   1.413517 A    
C67   C87   1.401896 A    
C34   C38   1.406599 A    
O22   P13   1.762266 S    
C57   C73   1.412571 A    
P2    C38   1.878098 S    
C21   C93   1.468776 S    
O16   P15   1.549238 D    
C17   H37   1.108257 S    
C9    H45   1.110649 S    
O12   Ba4   2.755401 S    
C99   H87   1.110319 S    
C115  H112  1.105140 S    
P9    O29   1.752952 S    
C93   H77   1.056712 S    
C118  H121  1.109920 S    
P10   C65   1.848113 S    
C68   C88   1.401234 A    
C24   C96   1.469095 S    
P12   O32   1.752059 S    
C9    H25   1.109735 S    
C113  H106  1.104962 S    
C11   H27   1.109458 S    
C74   C78   1.465539 S    
C3    H11   1.110636 S    
Ba2   O46   2.789376 S    
C41   H61   1.083300 S    
C28   C108  1.517099 S    
P5    O25   1.571550 D    
C33   H65   1.081708 S    
O5    Ba2   2.789514 S    
C86   H70   1.081859 S    
C34   C54   1.407571 A    
O24   P15   1.754560 S    
O7    Ba4   2.789514 S    
C28   C104  1.516994 S    
C71   C75   1.410215 A    
C114  H109  1.110431 S    
C112  O68   1.220784 D    
C16   C20   1.545366 S    
H54   C50   1.083237 S    
O19   C23   1.437075 S    
P9    C66   1.853549 S    
C1    C29   1.539267 S    
C42   H62   1.083350 S    
P12   C67   1.854179 S    
C21   C25   1.561894 S    
C109  H101  1.084332 S    
O8    Ba3   2.789914 S    
C22   C98   1.530515 S    
C23   C27   1.587263 S    
C76   C80   1.465114 S    
C117  H119  1.109910 S    
H1    C29   1.113903 S    
P1    Ba1   3.410567 S    
C100  H91   1.080723 S    
C5    C9    1.522064 S    
P3    Ba3   3.410567 S    
C7    C11   1.521891 S    
C25   C105  1.516443 S    
C42   C46   1.413443 A    
P5    O37   1.764775 S    
C47   C83   1.465087 S    
P5    Ba1   3.412324 S    
C17   H33   1.110259 S    
C19   H35   1.110312 S    
C8    H16   1.111436 S    
C99   H89   1.094592 S    
H51   C59   1.081611 S    
P3    C39   1.886376 S    
C105  O61   1.221515 D    
C98   H86   1.099027 S    
O9    P14   1.751236 S    
C106  O62   1.221434 D    
O6    Ba1   2.789914 S    
Ba1   Ba2   4.707973 S    
C70   C74   1.410147 A    
C7    H15   1.111767 S    
C110  O66   1.221020 D    
O11   Ba3   2.755258 S    
C35   C39   1.410085 A    
C67   C71   1.407538 A    
C65   C69   1.408175 A    
C52   C56   1.406642 A    
C102  O58   1.222860 D    
C45   C49   1.409773 A    
C104  H96   1.084881 S    
C4    C32   1.541753 S    
P14   C53   1.872808 S    
C48   C52   1.409992 A    
H49   C57   1.081786 S    
C12   H28   1.109201 S    
C103  H95   1.083292 S    
C8    H20   1.108755 S    
P2    Ba2   3.410766 S    
C31   C111  1.505867 S    
H50   C58   1.081278 S    
C11   H47   1.109761 S    
P1    O1    1.571867 D    
C68   C72   1.407508 A    
C60   C76   1.412850 A    
O37   C14   1.404124 S    
P6    O38   1.764499 S    
P3    O3    1.571867 D    
C72   H60   1.083242 S    
C26   H42   1.104074 S    
C24   C100  1.551097 S    
P6    Ba2   3.412121 S    
C108  H100  1.082610 S    
C58   C62   1.411362 A    
C116  H115  1.110530 S    
C38   C42   1.412374 A    
P13   C54   1.870063 S    
C26   C106  1.513331 S    
C91   H75   1.084071 S    
O41   C5    1.406798 S    
C50   C54   1.406977 A    
C71   H59   1.083236 S    
C72   C76   1.410059 A    
C24   C28   1.561930 S    
C120  H127  1.109930 S    
P1    C37   1.891596 S    
C101  H93   1.085168 S    
C75   C79   1.465208 S    
C85   H69   1.082148 S    
C6    H18   1.101558 S    
Ba1   O46   3.006314 S    
C10   H46   1.110687 S    
C95   O55   1.215518 D    
C32   C112  1.504851 S    
P9    O33   1.546400 D    
P10   O30   1.755952 S    
P1    O5    1.542343 S    
P8    C63   1.863297 S    
P12   O36   1.546465 D    
C9    H21   1.109321 S    
C22   C94   1.465739 S    
C96   H80   1.054838 S    
Ba3   O47   2.788975 S    
C20   H36   1.110335 S    
Ba4   O48   2.789376 S    
C17   C89   1.504497 S    
C3    H7    1.110154 S    
C111  H103  1.084466 S    
C59   C63   1.411281 A    
C97   H83   1.081211 S    
C29   C109  1.505805 S    
C107  H99   1.085983 S    
P6    O26   1.571575 D    
C77   C83   1.221341 T    
P11   O35   1.546347 D    
P8    O40   1.763980 S    
C20   C92   1.504394 S    
C62   C86   1.401593 A    
C33   C37   1.412115 A    
O29   Ba1   2.754860 S    
O11   P16   1.755722 S    
H55   C51   1.083108 S    
C92   H76   1.084084 S    
C2    C30   1.546062 S    
O31   Ba3   2.754860 S    
O21   C29   1.415469 S    
C35   C55   1.411610 A    
C70   H58   1.083234 S    
O9    Ba1   2.755258 S    
Ba3   Ba4   4.707973 S    
C15   C19   1.545488 S    
H2    C30   1.112040 S    
C1    H9    1.110875 S    
C20   H40   1.108112 S    
C89   O49   1.220091 D    
C65   C85   1.398103 A    
P6    O45   1.547526 S    
C7    H19   1.108814 S    
C115  H111  1.110179 S    
C97   H81   1.111622 S    
C90   H74   1.083892 S    
O32   Ba4   2.754718 S    
P6    C61   1.855064 S    
C118  H120  1.107311 S    
C1    H5    1.109943 S    
C88   H72   1.081921 S    
C44   C48   1.413784 A    
C113  H105  1.110520 S    
C6    H14   1.105419 S    
C3    C31   1.538408 S    
C27   C107  1.513148 S    
O43   C7    1.406726 S    
P1    O17   1.811704 S    
O14   P13   1.550633 D    
C119  H123  1.108128 S    
P3    O19   1.800329 S    
C58   C74   1.413037 A    
O20   C24   1.428523 S    
P4    O4    1.571842 D    
C114  H108  1.109150 S    
P5    O46   1.547824 S    
C18   H38   1.108281 S    
C103  O59   1.221220 D    
C98   H84   1.110505 S    
O25   Ba1   2.792950 S    
P5    C62   1.863264 S    
O30   Ba2   2.754718 S    
P16   C55   1.877773 S    
P15   C56   1.872471 S    
C10   H26   1.110238 S    
C35   H67   1.081853 S    
C36   C56   1.408033 A    
C12   H24   1.109218 S    
C94   O54   1.215407 D    
O15   P16   1.550097 D    
O10   Ba2   2.755401 S    
P4    C40   1.891823 S    
C73   C77   1.465008 S    
O13   P14   1.549254 D    
H52   C60   1.081623 S    
C100  H90   1.111231 S    
C8    C12   1.522584 S    
P7    Ba3   3.412324 S    
C34   H66   1.082208 S    
C87   H71   1.081844 S    
O28   Ba4   2.792519 S    
P2    O2    1.571842 D    
C28   H44   1.086291 S    
P7    O39   1.763987 S    
C4    H8    1.109478 S    
C13   C117  1.532228 S    
C99   H88   1.098849 S    
C57   C61   1.411128 A    
C115  H113  1.110350 S    
C51   C55   1.407016 A    
C14   C118  1.532555 S    
C117  H118  1.107190 S    
C105  H97   1.082701 S    
C47   C51   1.410245 A    
C59   C75   1.412978 A    
C60   C64   1.411245 A    
C25   C101  1.516797 S    
C93   O53   1.211508 D    
C22   C26   1.588219 S    
C118  H122  1.107041 S    
C39   C43   1.411995 A    
C49   C53   1.406589 A    
C113  H107  1.110273 S    
C119  H124  1.107298 S    
O44   C8    1.407277 S    
C33   C53   1.408170 A    
C6    C10   1.519894 S    
C111  O67   1.221066 D    
C19   H39   1.108138 S    
Ba2   O45   3.006390 S    
C80   C82   1.221358 T    
O26   Ba2   2.792519 S    
P10   O34   1.547589 D    
C119  H125  1.109929 S    
C104  O60   1.220805 D    
O12   P15   1.751471 S    
P11   O31   1.752787 S    
C1    C113  1.529806 S    
P2    O6    1.542638 S    
O4    Ba4   2.790851 S    
P7    O27   1.571550 D    
C18   H34   1.110101 S    
C114  H110  1.108183 S    
P8    O28   1.571575 D    
C19   C91   1.504452 S    
C112  H104  1.085380 S    
C2    H6    1.112510 S    
C95   H79   1.075969 S    
O23   P16   1.753766 S    
O21   P14   1.754894 S    
O40   C15   1.403742 S    
C109  O65   1.221080 D    
C23   C95   1.466679 S    
C23   C99   1.531137 S    
C69   C73   1.409754 A    
C18   C90   1.505037 S    
C108  O64   1.221839 D    
O17   C21   1.427826 S    
C116  H114  1.104767 S    
C100  H92   1.107739 S    
C66   C70   1.407562 A    
P4    Ba4   3.410766 S    
C78   C84   1.221628 T    
P7    C64   1.861878 S    
O22   C30   1.414623 S    
O2    Ba2   2.790851 S    
C13   H29   1.103924 S    
P11   C68   1.852957 S    
