data_mof_unit_48312.cif
_audit_creation_date              2013-03-05T15:52:32-0500
_audit_creation_method            fapswitch 2.2
_symmetry_space_group_name_H-M    P1
_symmetry_Int_Tables_number       1
_space_group_crystal_system       triclinic
_cell_length_a                    6.959967
_cell_length_b                    20.480735
_cell_length_c                    24.416996
_cell_angle_alpha                 89.695287
_cell_angle_beta                  90.537511
_cell_angle_gamma                 89.359239
_cell_volume                      3480.10456258

loop_
_atom_site_label
_atom_site_type_symbol
_atom_site_description
_atom_site_fract_x
_atom_site_fract_y
_atom_site_fract_z
_atom_type_partial_charge
O1    O     O_R   0.507310 0.423620 0.460450 -0.595290
O2    O     O_R   0.170760 0.556060 0.437190 -0.579753
O3    O     O_R   0.004040 0.576380 0.539550 -0.575753
C1    C     C_R   0.338447 0.576351 0.421398 1.010048
O4    O     O_R   0.177350 0.422870 0.454070 -0.596690
O5    O     O_R   0.010680 0.442240 0.556560 -0.596712
C2    C     C_R   0.346219 0.398728 0.443852 0.909863
O6    O     O_R   0.500670 0.557760 0.443440 -0.571222
O7    O     O_3   0.340380 0.506510 0.533610 -0.277966
V1    V     V_3+5 0.064130 0.498790 0.493770 1.194863
O8    O     O_R   0.681170 0.443940 0.562810 -0.598191
C3    C     C_R   0.850994 0.423902 0.578650 0.961835
O9    O     O_R   0.674570 0.577130 0.545930 -0.585447
C4    C     C_R   0.842620 0.601048 0.556651 1.043484
V2    V     V_3+5 0.564560 0.501210 0.506230 1.195096
O10   O     O_3   0.838170 0.493490 0.466390 -0.272659
C5    C     C_R   0.976650 0.838683 0.910362 -0.095500
C6    C     C_R   0.846700 0.663371 0.587087 -0.310684
C7    C     C_R   0.044667 0.722979 0.904031 -0.177110
C8    C     C_R   0.034789 0.779893 0.934803 -0.167319
C9    C     C_R   0.928698 0.840195 0.854188 -0.244638
C10   C     C_R   0.940641 0.782730 0.821422 0.107254
C11   C     C_R   0.999786 0.723914 0.847849 0.186711
C12   C     C_R   0.899153 0.781540 0.763545 0.060685
C13   C     C_R   0.918692 0.721888 0.733294 0.094934
C14   C     C_R   0.977457 0.665086 0.762262 -0.200500
C15   C     C_R   0.016325 0.666265 0.818119 -0.247547
C16   C     C_R   0.838927 0.838027 0.734957 -0.214736
C17   C     C_R   0.800491 0.837104 0.679158 -0.187224
C18   C     C_R   0.819141 0.779731 0.648256 0.098684
C19   C     C_R   0.878392 0.720954 0.675211 0.088999
C20   C     C_R   0.778125 0.780363 0.590902 0.123461
C21   C     C_R   0.787239 0.721504 0.560978 0.351069
C22   C     C_R   0.893497 0.663413 0.643065 -0.299696
H1    H     H_    0.061480 0.621277 0.838290 0.131097
H2    H     H_    0.935661 0.616932 0.660387 0.124817
H3    H     H_    0.753557 0.882736 0.660715 0.145465
H4    H     H_    0.090433 0.678054 0.924151 0.115420
H5    H     H_    0.074044 0.778187 0.977847 0.110192
H6    H     H_    0.887906 0.887104 0.837360 0.101218
H7    H     H_    0.995686 0.618303 0.743079 0.129231
H8    H     H_    0.818762 0.884469 0.754636 0.129203
C23   C     C_3   0.772993 0.259470 0.803090 -0.397711
C24   C     C_3   0.120759 0.241119 0.779766 -0.406678
C25   C     C_3   0.100115 0.290084 0.731055 -0.483332
H9    H     H_    0.795652 0.359197 0.771140 0.152627
H10   H     H_    0.810307 0.285085 0.841773 0.155189
H11   H     H_    0.234498 0.204298 0.770440 0.157184
H12   H     H_    0.167809 0.267687 0.817112 0.163604
H13   H     H_    0.140177 0.339775 0.745082 0.175345
H14   H     H_    0.202592 0.276226 0.698292 0.161215
C26   C     C_1   0.863488 0.378205 0.624193 -0.280610
C27   C     C_3   0.927632 0.206488 0.790686 0.387117
C28   C     C_3   0.756440 0.310111 0.755520 -0.383151
C29   C     C_3   0.891451 0.291038 0.707750 0.380339
C30   C     C_3   0.844969 0.219955 0.688470 0.165641
C31   C     C_3   0.866364 0.170821 0.737560 -0.432709
C32   C     C_1   0.875480 0.339334 0.661896 -0.082380
C33   C     C_1   0.946894 0.159489 0.837280 -0.085035
C34   C     C_1   0.960338 0.121289 0.875435 -0.285383
H15   H     H_    0.729645 0.144592 0.744975 0.173577
H16   H     H_    0.975833 0.132879 0.727330 0.137415
H17   H     H_    0.631137 0.236077 0.809204 0.156002
H18   H     H_    0.604858 0.314046 0.741050 0.164017
H19   H     H_    0.952541 0.205972 0.656994 0.117278
C35   C     C_3   0.595577 0.718992 0.278949 -0.376637
C36   C     C_3   0.278313 0.683736 0.239528 -0.469953
C37   C     C_3   0.298494 0.733222 0.190168 0.558342
H20   H     H_    0.695258 0.741098 0.196286 0.191069
H21   H     H_    0.665067 0.671280 0.269250 0.163975
H22   H     H_    0.124518 0.674627 0.248892 0.161033
H23   H     H_    0.339779 0.634929 0.229251 0.167566
C38   C     C_1   0.475665 0.878943 0.124951 -0.192325
C39   C     C_3   0.380248 0.708888 0.291907 0.244736
C40   C     C_3   0.620194 0.766504 0.229830 -0.511271
C41   C     C_3   0.422485 0.794517 0.209737 0.160500
C42   C     C_3   0.326224 0.829824 0.261561 0.452375
C43   C     C_3   0.288073 0.775782 0.306729 -0.472856
C44   C     C_1   0.456450 0.841239 0.163223 0.049475
C45   C     C_1   0.359766 0.661114 0.338035 0.013941
C46   C     C_1   0.346962 0.622305 0.375792 -0.223883
H24   H     H_    0.342474 0.791375 0.347602 0.204406
H25   H     H_    0.131557 0.767804 0.312072 0.197688
H26   H     H_    0.670903 0.738763 0.315583 0.203865
H27   H     H_    0.719046 0.806275 0.241305 0.232988
C47   C     C_R   0.467715 0.160192 0.090447 -0.245149
C48   C     C_R   0.351435 0.337717 0.412311 -0.093249
C49   C     C_R   0.485052 0.277787 0.094104 -0.163724
C50   C     C_R   0.477090 0.220564 0.063977 -0.223472
C51   C     C_R   0.460423 0.157028 0.148422 0.261009
C52   C     C_R   0.443777 0.216216 0.179458 -0.037528
C53   C     C_R   0.470815 0.276185 0.151282 0.169432
C54   C     C_R   0.400270 0.218761 0.236929 0.062971
C55   C     C_R   0.420188 0.278770 0.266492 0.067045
C56   C     C_R   0.466466 0.335586 0.236752 -0.189253
C57   C     C_R   0.484313 0.334512 0.180207 -0.210317
C58   C     C_R   0.320819 0.164996 0.264598 -0.083482
C59   C     C_R   0.282648 0.166886 0.320203 -0.229008
C60   C     C_R   0.314041 0.223392 0.350345 0.161930
C61   C     C_R   0.382452 0.280596 0.324218 0.106079
C62   C     C_R   0.268348 0.223745 0.406178 -0.155472
C63   C     C_R   0.284453 0.280621 0.436629 -0.163921
C64   C     C_R   0.403618 0.337595 0.356839 -0.245131
H28   H     H_    0.510285 0.380065 0.158828 0.122441
H29   H     H_    0.455026 0.382977 0.340325 0.100756
H30   H     H_    0.241909 0.280384 0.479211 0.111006
H31   H     H_    0.222618 0.124015 0.339537 0.157913
H32   H     H_    0.501137 0.323736 0.072479 0.117010
H33   H     H_    0.486258 0.223190 0.019736 0.121358
H34   H     H_    0.480228 0.382726 0.255586 0.122949
H35   H     H_    0.276018 0.121664 0.243458 0.192122
H36   H     H_    0.214645 0.180235 0.426032 0.123624
O11   O     O_R   0.323590 0.942280 0.056590 -0.573362
O12   O     O_R   0.647030 0.077140 0.045940 -0.587021
O13   O     O_R   0.813570 0.057750 0.943430 -0.597893
C65   C     C_R   0.477843 0.100898 0.056627 1.035952
O14   O     O_R   0.653510 0.943950 0.062820 -0.582569
O15   O     O_R   0.820100 0.923600 0.960440 -0.597590
C66   C     C_R   0.485721 0.923852 0.078720 1.031821
O16   O     O_R   0.317060 0.076430 0.039590 -0.582067
O17   O     O_3   0.483830 0.993520 0.966410 -0.293876
V3    V     V_3+5 0.760140 0.001200 0.006230 1.208407
O18   O     O_R   0.149560 0.922820 0.954030 -0.597986
C67   C     C_R   0.981411 0.899095 0.943102 0.912735
O19   O     O_R   0.143080 0.056020 0.937150 -0.599771
C68   C     C_R   0.973227 0.076049 0.921303 0.968360
V4    V     V_3+5 0.259690 0.998730 0.993720 1.193689
O20   O     O_3   0.986120 0.006480 0.033580 -0.243223
C69   C     C_3   0.729225 0.843966 0.561496 -0.890776
H37   H     H_    0.718590 0.839128 0.516429 0.285793
H38   H     H_    0.589806 0.863503 0.576363 0.242300
H39   H     H_    0.844131 0.880050 0.569222 0.230010
C70   C     C_3   0.646034 0.213811 0.660861 -1.044953
H40   H     H_    0.528886 0.222993 0.690424 0.256911
H41   H     H_    0.630253 0.248360 0.625899 0.259806
H42   H     H_    0.629149 0.163614 0.644631 0.257180
C71   C     C_3   0.393023 0.696679 0.141260 -0.996725
H43   H     H_    0.295741 0.658506 0.125078 0.248885
H44   H     H_    0.424719 0.730620 0.106998 0.243804
H45   H     H_    0.526943 0.670364 0.153334 0.233251
C72   C     C_3   0.096057 0.754219 0.169685 -0.971805
H46   H     H_    0.007849 0.771413 0.203928 0.248401
H47   H     H_    0.103526 0.793098 0.137933 0.268781
H48   H     H_    0.018073 0.712235 0.151749 0.235931
N1    N     N_R   0.732025 0.720130 0.504138 0.222593
O21   O     O_R   0.852052 0.698932 0.467577 -0.410163
O22   O     O_R   0.555804 0.734009 0.489632 -0.404538
C73   C     C_3   0.459840 0.882423 0.286569 -0.798278
H49   H     H_    0.584495 0.860724 0.309024 0.237553
H50   H     H_    0.512976 0.916027 0.254392 0.275813
H51   H     H_    0.379693 0.912259 0.316832 0.256346
N2    N     N_R   0.145049 0.864758 0.247123 0.232185
O23   O     O_R   0.013005 0.872535 0.284050 -0.420248
O24   O     O_R   0.137506 0.903391 0.204648 -0.360165
N3    N     N_R   0.498962 0.095323 0.174820 0.211276
O25   O     O_R   0.638385 0.089863 0.210495 -0.375336
O26   O     O_R   0.399865 0.044003 0.162059 -0.410967

loop_
_geom_bond_atom_site_label_1
_geom_bond_atom_site_label_2
_geom_bond_distance
_ccdc_geom_bond_type
C24   H12   1.112887 S    
C13   C19   1.443375 A    
C29   C30   1.568661 S    
C40   C41   1.558853 S    
C62   C63   1.390289 A    
C38   C66   1.454995 S    
C70   H40   1.109176 S    
N3    O26   1.301229 A    
C4    C6    1.480824 S    
O2    C1    1.304259 A    
C56   C57   1.387683 A    
C73   H51   1.111527 S    
C1    O6    1.298553 A    
C58   C59   1.386558 A    
C27   C33   1.490449 S    
O16   V4    1.992747 S    
C23   H17   1.113203 S    
O18   C67   1.298140 A    
C42   C43   1.584588 S    
C62   H36   1.083996 S    
C71   H44   1.110147 S    
C14   C15   1.388332 A    
C54   C55   1.436018 A    
O13   C68   1.298288 A    
C16   C17   1.386243 A    
C73   H50   1.110437 S    
O17   V4    1.704764 S    
O14   C66   1.304405 A    
O5    C3    1.298316 A    
C18   C19   1.423986 A    
C58   H35   1.076711 S    
C25   H14   1.112575 S    
V2    O10   2.151131 S    
C35   C39   1.550523 S    
C50   H33   1.083814 S    
C53   C57   1.394607 A    
C5    C8    1.395182 A    
C30   C31   1.565883 S    
C47   C65   1.473584 S    
C36   H23   1.113692 S    
O15   V3    1.990706 S    
C5    C67   1.477161 S    
C3    C26   1.451000 S    
O11   C66   1.297937 A    
O8    V2    1.970655 S    
C43   H25   1.112124 S    
C40   H27   1.107543 S    
C2    C48   1.471570 S    
C1    C46   1.456245 S    
C49   C53   1.400788 A    
C70   H42   1.110841 S    
C41   C44   1.503319 S    
C63   H30   1.083718 S    
O1    V2    1.989523 S    
C11   C15   1.393510 A    
O7    V1    2.154383 S    
C22   H2    1.076284 S    
C69   H39   1.110493 S    
C33   C34   1.215623 T    
O13   V3    1.957654 S    
C39   C45   1.496882 S    
O9    C4    1.298054 A    
C37   C71   1.559594 S    
C24   C27   1.551439 S    
C42   N2    1.481572 S    
C20   C69   1.517836 S    
N1    O22   1.301351 A    
C23   C27   1.552764 S    
C30   C70   1.540989 S    
C26   C32   1.215536 T    
C71   H45   1.108184 S    
C36   C37   1.578870 S    
C31   H16   1.113169 S    
C41   C42   1.608647 S    
C47   C51   1.418131 A    
C72   H48   1.111634 S    
C52   C53   1.419789 A    
O4    C2    1.296894 A    
C8    H5    1.083737 S    
C27   C31   1.550726 S    
C15   H1    1.084470 S    
C13   C14   1.412851 A    
C56   H34   1.076426 S    
C61   C64   1.424944 A    
C5    C9    1.408657 A    
C59   H31   1.084372 S    
C65   O16   1.297098 A    
C72   H47   1.110360 S    
C7    C11   1.404042 A    
O14   V3    1.963749 S    
C17   C18   1.405258 A    
C7    H4    1.084006 S    
C52   C54   1.439442 A    
C48   C63   1.395466 A    
C43   H24   1.113731 S    
C23   C28   1.555667 S    
O18   V4    1.993113 S    
C60   C61   1.420032 A    
O9    V2    1.993071 S    
C55   C61   1.436762 A    
H9    C28   1.113046 S    
C38   C44   1.218374 T    
C19   C22   1.422885 A    
C37   C72   1.546337 S    
C64   H29   1.077345 S    
C36   C39   1.550030 S    
O15   C67   1.300069 A    
C12   C13   1.436809 A    
C6    C22   1.402112 A    
C42   C73   1.554649 S    
O17   V3    2.154470 S    
O3    C4    1.300057 A    
C21   N1    1.437101 S    
C48   C64   1.405600 A    
C60   C62   1.402821 A    
N2    O24   1.301436 A    
O6    V2    1.961238 S    
C57   H28   1.084402 S    
O19   C68   1.301691 A    
C10   C12   1.440116 A    
V4    O20   2.151150 S    
O2    V1    1.963822 S    
C54   C58   1.409769 A    
N1    O21   1.301267 A    
C24   C25   1.556210 S    
O19   V4    1.970726 S    
C69   H37   1.107224 S    
C28   C29   1.553459 S    
O1    C2    1.299102 A    
C12   C16   1.405863 A    
C45   C46   1.218588 T    
C47   C50   1.394606 A    
O5    V1    1.957489 S    
O12   C65   1.298362 A    
O8    C3    1.301518 A    
C31   H15   1.113759 S    
O11   V4    1.961579 S    
C37   C41   1.603696 S    
C71   H43   1.111706 S    
C20   C21   1.414076 A    
C7    C8    1.391580 A    
C34   C68   1.451245 S    
O7    V2    1.705807 S    
O4    V1    1.995313 S    
O3    V1    1.990588 S    
V1    O10   1.707893 S    
C72   H46   1.099052 S    
C18   C20   1.426531 A    
C51   C52   1.437169 A    
C35   H21   1.113064 S    
C9    H6    1.077019 S    
C28   H18   1.111376 S    
C25   H13   1.113124 S    
C49   H32   1.084021 S    
C35   C40   1.552378 S    
C16   H8    1.076299 S    
H20   C40   1.104993 S    
C36   H22   1.114217 S    
C73   H49   1.109367 S    
V3    O20   1.707708 S    
C55   C56   1.410278 A    
C6    C21   1.403992 A    
C35   H26   1.112976 S    
O12   V3    1.995450 S    
C24   H11   1.113127 S    
C49   C50   1.388360 A    
C25   C29   1.554703 S    
C59   C60   1.392981 A    
C39   C43   1.552247 S    
C29   C32   1.492549 S    
C17   H3    1.081147 S    
N3    O25   1.301383 A    
C70   H41   1.109756 S    
C10   C11   1.418646 A    
N2    O23   1.302596 A    
C51   N3    1.437009 S    
C9    C10   1.428703 A    
C23   H10   1.112878 S    
C30   H19   1.114265 S    
C14   H7    1.075492 S    
C69   H38   1.110375 S    
