data_mof_unit_57083.cif
_audit_creation_date              2013-03-05T16:32:18-0500
_audit_creation_method            fapswitch 2.2
_symmetry_space_group_name_H-M    P1
_symmetry_Int_Tables_number       1
_space_group_crystal_system       triclinic
_cell_length_a                    15.859772
_cell_length_b                    10.832361
_cell_length_c                    9.610121
_cell_angle_alpha                 90.755166
_cell_angle_beta                  89.70703
_cell_angle_gamma                 91.295789
_cell_volume                      1650.42230515

loop_
_atom_site_label
_atom_site_type_symbol
_atom_site_description
_atom_site_fract_x
_atom_site_fract_y
_atom_site_fract_z
_atom_type_partial_charge
O1    O     O_R   0.500000 0.319640 0.618810 -0.534342
O2    O     O_R   0.500010 0.319680 0.381230 -0.580855
C1    C     C_R   0.499658 0.262584 0.499489 0.787747
O3    O     O_R   0.379430 0.499990 0.618840 -0.572692
O4    O     O_R   0.379440 0.500030 0.381260 -0.513654
C2    C     C_R   0.340348 0.499777 0.500339 0.821744
Cu1   Cu    Cu3+1 0.500000 0.499980 0.640670 0.993820
Cu2   Cu    Cu3+1 0.500000 0.500020 0.359330 1.003186
O5    O     O_R   0.499990 0.680320 0.618770 -0.591634
O6    O     O_R   0.500000 0.680360 0.381190 -0.596671
O7    O     O_R   0.620560 0.499970 0.618740 -0.573932
O8    O     O_R   0.620570 0.500010 0.381160 -0.542578
C3    C     C_R   0.502405 0.737448 0.500546 0.790704
C4    C     C_R   0.659615 0.499270 0.499605 0.812671
C5    C     C_3   0.047000 0.409047 0.608559 -0.483947
C6    C     C_3   0.048902 0.462528 0.354878 -0.349820
C7    C     C_3   0.951250 0.462080 0.354370 -0.371441
H1    H     H_    0.924458 0.314283 0.585279 0.183670
H2    H     H_    0.068945 0.314372 0.583553 0.188006
H3    H     H_    0.073697 0.526627 0.274094 0.210882
H4    H     H_    0.071118 0.368630 0.326839 0.160123
H5    H     H_    0.926698 0.368159 0.325558 0.172342
H6    H     H_    0.929068 0.526821 0.274069 0.184097
C8    C     C_1   0.749312 0.499273 0.498973 -0.148186
C9    C     C_3   0.082726 0.501780 0.500456 0.234909
C10   C     C_3   0.949344 0.409154 0.608743 -0.385364
C11   C     C_3   0.917112 0.500567 0.499497 0.257045
C12   C     C_3   0.952328 0.631578 0.535730 -0.430213
C13   C     C_3   0.050578 0.632834 0.538655 0.396934
C14   C     C_1   0.824915 0.499757 0.499010 -0.077774
C15   C     C_1   0.175019 0.500743 0.500986 -0.040117
C16   C     C_1   0.250627 0.500143 0.500943 -0.115045
H7    H     H_    0.071893 0.654239 0.647352 0.066817
H8    H     H_    0.927916 0.662051 0.639125 0.124191
H9    H     H_    0.070607 0.433915 0.714389 0.187402
H10   H     H_    0.926062 0.435646 0.714205 0.180790
H11   H     H_    0.929633 0.698354 0.457967 0.189596
C17   C     C_R   0.526146 0.067454 0.617108 0.066938
C18   C     C_R   0.497271 0.129058 0.500553 -0.075334
C19   C     C_R   0.466731 0.060430 0.386332 -0.213916
H12   H     H_    0.444265 0.105037 0.295127 0.147129
C20   C     C_R   0.467589 0.932220 0.387190 -0.213751
H13   H     H_    0.443182 0.881395 0.297703 0.160744
C21   C     C_R   0.501769 0.870902 0.500765 -0.043523
C22   C     C_R   0.531188 0.939698 0.615404 0.041781
C23   C     C_3   0.618807 0.946070 0.675300 0.241123
C24   C     C_3   0.610364 0.085426 0.683658 -0.257589
H14   H     H_    0.623738 0.902350 0.779110 0.094976
H15   H     H_    0.656146 0.137515 0.617003 0.159487
C25   C     C_R   0.566393 0.549808 0.073779 0.179160
N1    N     N_R   0.500530 0.500930 0.147930 -0.266872
C26   C     C_R   0.437130 0.441420 0.075203 0.489723
C27   C     C_R   0.437199 0.441116 0.926206 -0.041448
N2    N     N_R   0.500530 0.500890 0.852020 -0.242718
C28   C     C_R   0.566592 0.549477 0.926903 0.208679
C29   C     C_3   0.597602 0.680259 0.923940 -0.564094
C30   C     C_3   0.596766 0.680672 0.082092 0.302883
H16   H     H_    0.661903 0.688773 0.878286 0.207166
H17   H     H_    0.550006 0.742239 0.879919 0.181972
H18   H     H_    0.548971 0.742270 0.130367 0.100175
O9    O     O_3   0.680069 0.914140 0.573947 -0.570238
C31   C     C_3   0.725791 0.812216 0.618325 -0.340069
H19   H     H_    0.683107 0.731361 0.636046 0.172402
H20   H     H_    0.762321 0.835601 0.714008 0.163169
H21   H     H_    0.771244 0.786649 0.535293 0.189259
C32   C     C_2   0.603578 0.136822 0.829697 0.854973
O10   O     O_2   0.646413 0.227433 0.863495 -0.592392
O11   O     O_R   0.548523 0.081603 0.925899 -0.779937
H22   H     H_    0.550867 0.123921 0.020559 0.320831
O12   O     O_3   0.367208 0.397232 0.147352 -0.540897
C33   C     C_3   0.359437 0.267464 0.136534 -0.268434
H23   H     H_    0.338953 0.232099 0.239282 0.167786
H24   H     H_    0.418682 0.221223 0.104660 0.139481
H25   H     H_    0.308486 0.241304 0.062497 0.179410
C34   C     C_2   0.364717 0.381573 0.855293 0.927934
O13   O     O_2   0.295703 0.429582 0.861612 -0.604681
O14   O     O_R   0.373438 0.266736 0.789731 -0.756252
H26   H     H_    0.318825 0.234625 0.746793 0.307921
O15   O     O_3   0.678554 0.688309 0.139486 -0.547247
C35   C     C_3   0.697441 0.811859 0.177657 -0.270463
H27   H     H_    0.656093 0.842624 0.264766 0.193583
H28   H     H_    0.691947 0.874504 0.087346 0.159116
H29   H     H_    0.763546 0.818097 0.214717 0.185267
O16   O     O_3   0.083613 0.719850 0.442221 -0.568638
C36   C     C_3   0.092832 0.837499 0.505826 -0.341428
H30   H     H_    0.143329 0.837531 0.585704 0.167205
H31   H     H_    0.032492 0.868591 0.552711 0.155177
H32   H     H_    0.111916 0.905064 0.425188 0.196060

loop_
_geom_bond_atom_site_label_1
_geom_bond_atom_site_label_2
_geom_bond_distance
_ccdc_geom_bond_type
C9    C15   1.464078 S    
C32   O11   1.399150 S    
C28   C29   1.489655 S    
C6    H4    1.113246 S    
C30   O15   1.412402 S    
C2    C16   1.423032 S    
H1    C10   1.113191 S    
Cu1   Cu2   2.703717 S    
C24   H15   1.114509 S    
C27   N2    1.382684 A    
C21   C22   1.398094 A    
Cu1   O7    1.922563 S    
C10   C11   1.549155 S    
C7    H6    1.113236 S    
C12   C13   1.558376 S    
C35   H29   1.109303 S    
C36   H30   1.112184 S    
O4    C2    1.298732 A    
O7    C4    1.298941 A    
C5    C9    1.550846 S    
C13   H7    1.119333 S    
C29   C30   1.519801 S    
C4    C8    1.422563 S    
O5    C3    1.300867 A    
C17   C22   1.387889 A    
C31   H20   1.112661 S    
C23   C24   1.519531 S    
C6    C7    1.548672 S    
O12   C33   1.410822 S    
C24   C32   1.507248 S    
Cu2   O8    1.924753 S    
C19   C20   1.389324 A    
C32   O10   1.222339 D    
C12   H8    1.113272 S    
C11   C14   1.462081 S    
C27   C34   1.471318 S    
C20   C21   1.402783 A    
O3    Cu1   1.924756 S    
C5    H9    1.113205 S    
C36   H31   1.112853 S    
C9    C13   1.557920 S    
C23   H14   1.113821 S    
C23   O9    1.417390 S    
N1    C26   1.371526 A    
C7    C11   1.548950 S    
O16   C36   1.411057 S    
C13   O16   1.420402 S    
O3    C2    1.299293 A    
C18   C19   1.399925 A    
C33   H24   1.114405 S    
O11   H22   1.013721 S    
C30   H18   1.116322 S    
O14   H26   1.013774 S    
O1    C1    1.295432 A    
C5    H2    1.113293 S    
C34   O13   1.223278 D    
C31   H19   1.109201 S    
O4    Cu2   1.922566 S    
C15   C16   1.199298 T    
C6    H3    1.112748 S    
C25   N1    1.362566 A    
C34   O14   1.396334 S    
Cu2   N1    2.031707 S    
C17   C24   1.491535 S    
C10   H10   1.113190 S    
C19   H12   1.072762 S    
O8    C4    1.298789 A    
C20   H13   1.083409 S    
C26   C27   1.431832 A    
C36   H32   1.109200 S    
C6    C9    1.551613 S    
Cu1   O5    1.967571 S    
N2    C28   1.365793 A    
C31   H21   1.109236 S    
O1    Cu1   1.962016 S    
C25   C30   1.488103 S    
O2    Cu2   1.967571 S    
C25   C28   1.411446 A    
C35   H27   1.113013 S    
C5    C10   1.548808 S    
O6    C3    1.296236 A    
C33   H25   1.108922 S    
C7    H5    1.113162 S    
C29   H17   1.110507 S    
O2    C1    1.300939 A    
C33   H23   1.108312 S    
C17   C18   1.395867 A    
C12   H11   1.113557 S    
C35   H28   1.113694 S    
C29   H16   1.110499 S    
O9    C31   1.406581 S    
C8    C14   1.198943 T    
C26   O12   1.384380 S    
C1    C18   1.446217 S    
O15   C35   1.409076 S    
C22   C23   1.506618 S    
Cu2   O6    1.962016 S    
C11   C12   1.549295 S    
Cu1   N2    2.031053 S    
C3    C21   1.445868 S    
