data_mof_unit_60917.cif
_audit_creation_date              2012-12-10T17:00:05-0500
_audit_creation_method            fapswitch 2.2
_symmetry_space_group_name_H-M    P1
_symmetry_Int_Tables_number       1
_space_group_crystal_system       triclinic
_cell_length_a                    15.162171
_cell_length_b                    15.141678
_cell_length_c                    10.08035
_cell_angle_alpha                 89.996121
_cell_angle_beta                  88.664729
_cell_angle_gamma                 90.021555
_cell_volume                      2313.62532314

loop_
_atom_site_label
_atom_site_type_symbol
_atom_type_description
_atom_site_fract_x
_atom_site_fract_y
_atom_site_fract_z
_atom_type_partial_charge
C1    C     C_R   0.385620 0.877548 0.501028 0.935980
C2    C     C_2   0.746784 0.187195 0.403708 0.407376
C3    C     C_2   0.246387 0.312357 0.403299 0.398470
C4    C     C_2   0.246784 0.687195 0.403708 0.407376
C5    C     C_2   0.678756 0.808563 0.492594 0.226491
C6    C     C_2   0.678890 0.191346 0.492508 0.231499
C7    C     C_2   0.178756 0.308563 0.492594 0.226491
C8    C     C_2   0.178890 0.691346 0.492508 0.231499
C9    C     C_2   0.307659 0.238868 0.393918 -0.240797
C10   C     C_2   0.308163 0.760633 0.394135 -0.245565
C11   C     C_2   0.807659 0.738868 0.393918 -0.240797
C12   C     C_R   0.385572 0.122405 0.501012 0.935360
C13   C     C_2   0.808163 0.260633 0.394135 -0.245565
C14   C     C_2   0.334402 0.201105 0.505012 -0.258869
C15   C     C_2   0.334566 0.798744 0.505146 -0.262203
C16   C     C_2   0.834402 0.701105 0.505012 -0.258869
C17   C     C_2   0.834566 0.298744 0.505146 -0.262203
C18   C     C_2   0.544666 0.945613 0.925368 0.129245
C19   C     C_2   0.044666 0.445613 0.925368 0.129245
C20   C     C_2   0.558357 0.960171 0.071228 0.138029
C21   C     C_2   0.058357 0.460171 0.071228 0.138029
C22   C     C_R   0.885620 0.377548 0.501028 0.935981
C23   C     C_R   0.885572 0.622405 0.501012 0.935360
C24   C     C_R   0.617949 0.119312 0.498612 0.860278
C25   C     C_R   0.617935 0.880678 0.498623 0.862642
C26   C     C_R   0.117949 0.619312 0.498612 0.860278
C27   C     C_R   0.117935 0.380678 0.498623 0.862642
C28   C     C_2   0.746387 0.812357 0.403299 0.398470
H1    H     H_    0.329294 0.215998 0.296283 0.178430
H2    H     H_    0.075215 0.388263 0.879205 0.051940
H3    H     H_    0.617040 0.932622 0.114680 0.095033
H4    H     H_    0.117040 0.432622 0.114680 0.095033
H5    H     H_    0.810973 0.875392 0.264069 0.341154
H6    H     H_    0.811761 0.123580 0.265574 0.340897
H7    H     H_    0.310973 0.375392 0.264069 0.341154
H8    H     H_    0.311761 0.623580 0.265574 0.340897
H9    H     H_    0.607080 0.742230 0.621406 0.335776
H10   H     H_    0.606864 0.258149 0.620220 0.339677
H11   H     H_    0.107080 0.242230 0.621406 0.335776
H12   H     H_    0.330072 0.783232 0.296476 0.178861
H13   H     H_    0.106864 0.758149 0.620220 0.339677
H14   H     H_    0.474470 0.119215 0.828207 0.370286
H15   H     H_    0.974470 0.619215 0.828207 0.370286
H16   H     H_    0.380673 0.019436 0.175908 0.375318
H17   H     H_    0.880672 0.519436 0.175908 0.375318
H18   H     H_    0.829294 0.715998 0.296283 0.178430
H19   H     H_    0.830072 0.283232 0.296476 0.178861
H20   H     H_    0.318657 0.229329 0.601934 0.190377
H21   H     H_    0.318572 0.770739 0.602144 0.193357
H22   H     H_    0.818657 0.729329 0.601934 0.190377
H23   H     H_    0.818572 0.270739 0.602144 0.193357
H24   H     H_    0.575215 0.888263 0.879205 0.051940
N1    N     N_2   0.501330 0.000000 0.852150 0.079196
N2    N     N_2   0.001330 0.500000 0.852150 0.079196
N3    N     N_2   0.501360 0.000000 0.147810 0.071610
N4    N     N_2   0.001360 0.500000 0.147810 0.071610
O1    O     O_R   0.409520 0.909540 0.613040 -0.611226
O2    O     O_R   0.590440 0.909540 0.613100 -0.654798
O3    O     O_R   0.090440 0.590460 0.613100 -0.638701
O4    O     O_R   0.090440 0.409540 0.613100 -0.654798
O5    O     O_R   0.590480 0.090460 0.386960 -0.563188
O6    O     O_R   0.590480 0.909540 0.386960 -0.588614
O7    O     O_R   0.090480 0.590460 0.386960 -0.563188
O8    O     O_R   0.090480 0.409540 0.386960 -0.588614
O9    O     O_3   0.757494 0.884900 0.320825 -0.755221
O10   O     O_3   0.758026 0.114353 0.321902 -0.742359
O11   O     O_3   0.257494 0.384901 0.320825 -0.755221
O12   O     O_R   0.409520 0.090460 0.613040 -0.630532
O13   O     O_3   0.258026 0.614353 0.321901 -0.742359
O14   O     O_3   0.662182 0.733486 0.568029 -0.793928
O15   O     O_3   0.662157 0.266695 0.567203 -0.788637
O16   O     O_3   0.162182 0.233486 0.568029 -0.793928
O17   O     O_3   0.162157 0.766695 0.567203 -0.788637
O18   O     O_3   0.492366 0.081648 0.902990 -0.620940
O19   O     O_3   0.992366 0.581648 0.902990 -0.620940
O20   O     O_3   0.419649 0.004580 0.099315 -0.629830
O21   O     O_3   0.919649 0.504580 0.099315 -0.629830
O22   O     O_R   0.909520 0.409540 0.613040 -0.611226
O23   O     O_R   0.909520 0.590460 0.613040 -0.630532
O24   O     O_R   0.409560 0.909540 0.386900 -0.627799
O25   O     O_R   0.409560 0.090460 0.386900 -0.634290
O26   O     O_R   0.909560 0.409540 0.386900 -0.627799
O27   O     O_R   0.909560 0.590460 0.386900 -0.634290
O28   O     O_R   0.590440 0.090460 0.613100 -0.638701
Zn1   Zn    Zn3+2 0.499970 1.000000 0.650990 0.994803
Zn2   Zn    Zn3+2 0.999970 0.500000 0.650990 0.994803
Zn3   Zn    Zn3+2 0.500030 0.000000 0.349010 1.025412
Zn4   Zn    Zn3+2 0.000030 0.500000 0.349010 1.025412

loop_
_geom_bond_atom_site_label_1
_geom_bond_atom_site_label_2
_ccdc_geom_bond_type
C24   O5    A    
O7    Zn4   S    
C8    C26   S    
N1    O18   S    
C26   O7    A    
C17   H23   S    
H5    O9    S    
C12   O12   A    
C23   O27   A    
C22   O26   A    
C19   C21   S    
C16   H22   S    
O24   Zn3   S    
C3    C7    D    
C27   O4    A    
N4    Zn4   S    
C7    C27   S    
C10   H12   S    
C4    C8    D    
H16   O20   S    
C2    C13   S    
O5    Zn3   S    
C18   N1    D    
H11   O16   S    
C1    C15   S    
C26   O3    A    
C9    H1    S    
O22   Zn2   S    
O27   Zn4   S    
H9    O14   S    
O12   Zn1   S    
H6    O10   S    
C2    C6    D    
C20   N3    D    
C4    O13   S    
H15   O19   S    
C6    O15   S    
C21   H4    S    
H14   O18   S    
C18   H24   S    
O28   Zn1   S    
C22   O22   A    
C7    O16   S    
N2    Zn2   S    
O4    Zn2   S    
C14   H20   S    
N4    O21   S    
C9    C14   D    
C5    O14   S    
C3    C9    S    
C1    O1    A    
C5    C28   D    
C11   C16   D    
H7    O11   S    
C6    C24   S    
O25   Zn3   S    
C5    C25   S    
N3    O20   S    
C19   N2    D    
C12   C14   S    
C16   C23   S    
C25   O2    A    
C4    C10   S    
O2    Zn1   S    
H8    O13   S    
C13   H19   S    
H10   O15   S    
C3    O11   S    
C2    O10   S    
C21   N4    D    
N1    Zn1   S    
O6    Zn3   S    
C17   C22   S    
C13   C17   D    
C10   C15   D    
C28   O9    S    
C24   O28   A    
O3    Zn2   S    
C11   C28   S    
O26   Zn4   S    
C8    O17   S    
O1    Zn1   S    
C12   O25   A    
C18   C20   S    
C25   O6    A    
C15   H21   S    
N3    Zn3   S    
C27   O8    A    
H13   O17   S    
N2    O19   S    
C1    O24   A    
C11   H18   S    
H17   O21   S    
C23   O23   A    
C19   H2    S    
O8    Zn4   S    
O23   Zn2   S    
C20   H3    S    
