data_mof_unit_66613.cif
_audit_creation_date              2013-03-05T15:58:40-0500
_audit_creation_method            fapswitch 2.2
_symmetry_space_group_name_H-M    P1
_symmetry_Int_Tables_number       1
_space_group_crystal_system       triclinic
_cell_length_a                    8.231532
_cell_length_b                    13.1253
_cell_length_c                    15.14204
_cell_angle_alpha                 97.517733
_cell_angle_beta                  97.708788
_cell_angle_gamma                 99.465624
_cell_volume                      1579.42477495

loop_
_atom_site_label
_atom_site_type_symbol
_atom_site_description
_atom_site_fract_x
_atom_site_fract_y
_atom_site_fract_z
_atom_type_partial_charge
P1    P     P_3+3 0.998770 0.403620 0.291990 0.475578
O1    O     O_2   0.827930 0.435360 0.277760 -0.359112
O2    O     O_3   0.100310 0.439010 0.391180 -0.425306
O3    O     O_3   0.625610 0.634200 0.333270 -0.396309
O4    O     O_2   0.714713 0.555637 0.185292 -0.313319
O5    O     O_3   0.951594 0.266732 0.266596 -0.541557
O6    O     O_3   0.671369 0.749055 0.196953 -0.423458
H1    H     H_    0.713477 0.855642 0.313506 0.130797
C1    C     C_3   0.586357 0.914628 0.203471 -0.832500
H2    H     H_    0.555004 0.979076 0.249513 0.206419
H3    H     H_    0.698848 0.944580 0.175635 0.311506
P2    P     P_3+3 0.687370 0.751000 0.571300 0.475447
P3    P     P_3+3 0.101293 0.823647 0.375995 0.517758
O7    O     O_2   0.857120 0.766320 0.543890 -0.383293
O8    O     O_3   0.056570 0.691100 0.379020 -0.359439
O9    O     O_2   0.971010 0.871428 0.424158 -0.352420
O10   O     O_3   0.728498 0.795744 0.686006 -0.554350
O11   O     O_3   0.041570 0.834615 0.263730 -0.472353
C2    C     C_3   0.164002 0.803374 0.216244 0.229479
H4    H     H_    0.185934 0.724273 0.227311 0.036994
H5    H     H_    0.279508 0.862259 0.237298 0.052107
C3    C     C_3   0.107321 0.800089 0.116589 -0.080090
H6    H     H_    0.989660 0.741986 0.096608 0.171698
C4    C     C_3   0.251295 0.781030 0.667699 0.246219
H7    H     H_    0.375909 0.784366 0.646824 0.122080
H8    H     H_    0.152456 0.745758 0.609332 0.122575
C5    C     C_3   0.222786 0.888670 0.701183 -0.081615
H9    H     H_    0.296565 0.919342 0.768959 0.181889
H10   H     H_    0.088719 0.885676 0.704573 0.093277
Ba1   Ba    Ba6+2 0.843760 0.550230 0.455610 1.580249
C6    C     C_3   0.939490 0.221292 0.344857 0.359728
H11   H     H_    0.810836 0.217298 0.358931 0.080242
H12   H     H_    0.028847 0.263301 0.404929 0.136001
C7    C     C_3   0.975712 0.111185 0.327759 -0.845256
H13   H     H_    0.889199 0.065458 0.268552 0.268975
H14   H     H_    0.960472 0.071849 0.387419 0.225787
H15   H     H_    0.105236 0.113999 0.313817 0.270057
C8    C     C_3   0.776323 0.720405 0.734918 0.299723
H16   H     H_    0.893903 0.698880 0.716814 0.067291
H17   H     H_    0.675991 0.649901 0.722989 0.103891
C9    C     C_3   0.801964 0.771723 0.833440 -0.016600
H18   H     H_    0.686342 0.799936 0.847055 0.280818
P4    P     P_3+3 0.190950 0.596470 0.708020 0.453337
O12   O     O_2   0.361790 0.564680 0.722290 -0.353002
O13   O     O_3   0.089410 0.561080 0.608830 -0.411347
O14   O     O_3   0.564100 0.365890 0.666740 -0.351668
O15   O     O_3   0.248040 0.729586 0.741240 -0.608738
P5    P     P_3+3 0.097120 0.173911 0.623832 0.515239
O16   O     O_3   0.601940 0.368260 0.453780 -0.395350
O17   O     O_3   0.133140 0.308990 0.620990 -0.366276
O18   O     O_2   0.221026 0.137185 0.565114 -0.280696
O19   O     O_3   0.180780 0.151005 0.732843 -0.500511
Ba2   Ba    Ba6+2 0.346080 0.449860 0.544400 1.572366
P6    P     P_3+3 0.591935 0.623821 0.217802 0.537895
C10   C     C_3   0.615833 0.824868 0.254082 0.454445
H19   H     H_    0.499613 0.794363 0.279087 -0.049040
H20   H     H_    0.483118 0.887117 0.145990 0.279977
O20   O     O_3   0.587770 0.631830 0.546230 -0.398857
C11   C     C_3   0.412894 0.285181 0.271767 0.387904
H21   H     H_    0.309836 0.311831 0.303368 0.093578
H22   H     H_    0.520480 0.350951 0.281190 0.122744
C12   C     C_3   0.351796 0.252208 0.171057 -0.851536
H23   H     H_    0.236585 0.191733 0.159840 0.309957
H24   H     H_    0.323481 0.320453 0.139791 0.189063
H25   H     H_    0.449141 0.220071 0.137992 0.273839
P7    P     P_3+3 0.508713 0.232928 0.426036 0.426928
O21   O     O_2   0.332600 0.233710 0.456170 -0.368491
O22   O     O_3   0.461456 0.199760 0.308367 -0.567329
H26   H     H_    0.201767 0.774887 0.076847 0.061998
C13   C     C_3   0.093218 0.187534 0.801690 0.478132
H27   H     H_    0.967979 0.137708 0.793200 0.058954
C14   C     C_3   0.188237 0.186017 0.897501 -0.113276
H28   H     H_    0.322568 0.205575 0.900077 0.161332
H29   H     H_    0.165115 0.248470 0.949063 0.112957
P8    P     P_3+3 0.602607 0.390596 0.785392 0.475467
C15   C     C_3   0.640465 0.204473 0.818849 0.352938
H30   H     H_    0.765356 0.238511 0.858209 0.049048
O23   O     O_2   0.486287 0.461666 0.819605 -0.379533
O24   O     O_3   0.531876 0.276231 0.825983 -0.530878
C16   C     C_3   0.564971 0.112495 0.862384 0.006141
H31   H     H_    0.437929 0.080535 0.825211 0.173312
H32   H     H_    0.555722 0.142698 0.933363 0.124873
C17   C     C_R   0.370057 0.564633 0.169134 0.167928
H33   H     H_    0.333707 0.524374 0.299780 0.166077
C18   C     C_R   0.111093 0.468523 0.205264 0.304532
C19   C     C_R   0.913568 0.491415 0.769246 -0.503170
C20   C     C_R   0.816163 0.452791 0.830117 0.239129
C21   C     C_R   0.879636 0.461413 0.922114 -0.257508
C22   C     C_R   0.048848 0.505672 0.955281 0.054142
C23   C     C_R   0.146428 0.547469 0.891361 -0.085758
C24   C     C_R   0.123898 0.509494 0.048701 0.032090
C25   C     C_R   0.294669 0.560236 0.076979 -0.189002
C26   C     C_R   0.380556 0.606453 0.012074 0.322144
C27   C     C_R   0.306003 0.601312 0.923577 -0.182235
C28   C     C_R   0.036358 0.462701 0.114138 -0.206727
C29   C     C_R   0.275861 0.520724 0.230666 -0.496495
C30   C     C_R   0.079231 0.538233 0.796898 0.284898
H34   H     H_    0.910090 0.420164 0.095962 0.152142
H35   H     H_    0.859096 0.485071 0.699152 0.172249
H36   H     H_    0.795689 0.430350 0.964919 0.171770
H37   H     H_    0.379312 0.640053 0.879468 0.206698
C31   C     C_R   0.781265 0.174600 0.527321 -0.501046
C32   C     C_R   0.421094 0.810463 0.463156 -0.487666
C33   C     C_R   0.393223 0.982063 0.426351 -0.176125
C34   C     C_R   0.324299 0.876775 0.424493 0.256853
C35   C     C_R   0.584160 0.847460 0.509201 0.306822
C36   C     C_R   0.653960 0.957610 0.514259 0.012212
C37   C     C_R   0.556072 0.025225 0.471667 -0.003991
C38   C     C_R   0.620299 0.135374 0.480128 0.236631
C39   C     C_R   0.880160 0.110876 0.567751 0.182701
C40   C     C_R   0.814472 0.003625 0.563357 -0.154225
H38   H     H_    0.315445 0.030460 0.395313 0.164662
H39   H     H_    0.887367 0.957561 0.600301 0.188992
H40   H     H_    0.831180 0.257090 0.532189 0.162230
H41   H     H_    0.365465 0.729406 0.461218 0.159311
N1    N     N_R   0.270640 0.955524 0.638612 0.248504
O25   O     O_R   0.427879 0.983491 0.636663 -0.431151
O26   O     O_R   0.165969 0.948180 0.565761 -0.395961
C41   C     C_3   0.949098 0.862861 0.854411 -0.551922
H42   H     H_    0.067065 0.835034 0.846031 0.214088
H43   H     H_    0.931481 0.923691 0.811592 0.243771
H44   H     H_    0.959951 0.898466 0.925314 0.319392
C42   C     C_3   0.830732 0.696108 0.896809 -0.898559
H45   H     H_    0.726780 0.628479 0.880471 0.285981
H46   H     H_    0.952183 0.674216 0.892946 0.238620
H47   H     H_    0.837297 0.735639 0.966062 0.330366
C43   C     C_3   0.077145 0.300273 0.800105 -0.915158
H48   H     H_    0.985382 0.307966 0.743109 0.223295
H49   H     H_    0.029060 0.327786 0.860553 0.186449
H50   H     H_    0.199801 0.349046 0.798823 0.313697
N2    N     N_R   0.142946 0.088128 0.930341 0.233459
O27   O     O_R   0.246282 0.023144 0.931405 -0.410834
O28   O     O_R   0.037303 0.085079 0.986896 -0.316603
C44   C     C_3   0.651508 0.170541 0.719646 -0.699411
H51   H     H_    0.734685 0.231323 0.695400 0.167111
H52   H     H_    0.703677 0.098822 0.708804 0.235115
H53   H     H_    0.527564 0.162255 0.677927 0.315209
N3    N     N_R   0.659577 0.028414 0.862683 0.229662
O29   O     O_R   0.710910 0.001291 0.939650 -0.306179
O30   O     O_R   0.639255 0.960058 0.790106 -0.418268
N4    N     N_R   0.549171 0.657452 0.031189 0.244703
O31   O     O_R   0.662883 0.600002 0.026106 -0.414917
O32   O     O_R   0.584017 0.755464 0.021802 -0.378482
N5    N     N_R   0.081279 0.903430 0.100118 0.288139
O33   O     O_R   0.930867 0.923063 0.088291 -0.301646
O34   O     O_R   0.208093 0.980271 0.112897 -0.334236

loop_
_geom_bond_atom_site_label_1
_geom_bond_atom_site_label_2
_geom_bond_distance
_ccdc_geom_bond_type
C13   C43   1.510142 S    
P7    O22   1.752390 S    
C20   C21   1.403691 A    
C14   H29   1.114211 S    
C26   C27   1.385265 A    
C16   H31   1.105629 S    
C5    H10   1.106123 S    
C7    H15   1.110019 S    
O2    Ba2   2.838196 S    
C9    H18   1.110867 S    
Ba1   O13   2.837607 S    
P5    C39   1.875747 S    
C2    H4    1.112499 S    
C15   O24   1.404958 S    
O6    C10   1.406387 S    
C10   H19   1.108940 S    
C44   H53   1.106537 S    
C28   H34   1.077010 S    
C42   H45   1.103288 S    
C37   C38   1.438063 A    
C17   C25   1.438906 A    
P3    O11   1.736444 S    
O8    Ba1   2.805896 S    
P1    Ba1   3.446365 S    
C2    H5    1.102494 S    
C4    H8    1.110629 S    
O11   C2    1.397856 S    
N4    O32   1.301852 A    
C8    H16   1.110209 S    
C7    H13   1.103828 S    
C18   C29   1.393680 A    
C16   N3    1.451690 S    
C42   H46   1.091425 S    
C35   C36   1.453340 A    
N1    O25   1.291386 A    
P1    O1    1.527246 D    
H33   C29   1.081643 S    
C19   C30   1.384328 A    
C39   C40   1.412053 A    
O14   P8    1.759116 S    
C12   H24   1.109424 S    
O12   Ba2   2.885087 S    
P4    Ba2   3.446914 S    
P5    O18   1.534929 D    
C27   H37   1.079278 S    
P2    O10   1.728067 S    
C36   C37   1.448575 A    
C6    H12   1.108292 S    
C13   H27   1.108007 S    
C1    C10   1.521362 S    
C22   C24   1.456691 A    
C1    H2    1.110836 S    
C3    H26   1.110831 S    
C7    H14   1.108828 S    
P2    O20   1.613122 S    
C5    N1    1.423656 S    
P5    O17   1.756016 S    
P7    O21   1.578289 D    
O13   Ba2   2.956590 S    
C11   H21   1.110706 S    
C8    H17   1.111723 S    
O7    Ba1   2.951128 S    
H1    C10   1.105857 S    
P6    C17   1.872102 S    
C23   C27   1.376720 A    
C41   H43   1.107791 S    
P1    C18   1.914279 S    
Ba1   Ba2   4.526782 S    
C11   H22   1.110074 S    
O17   Ba2   2.806506 S    
O16   P7    1.786183 S    
P1    O5    1.753977 S    
P4    C30   1.900295 S    
O4    P6    1.542836 D    
C2    C3    1.511302 S    
C4    H7    1.108987 S    
C8    C9    1.526315 S    
N5    O34   1.301070 A    
C24   C25   1.434880 A    
C33   H38   1.079553 S    
C15   C44   1.529013 S    
C19   C20   1.391491 A    
C14   H28   1.087454 S    
C42   H47   1.097706 S    
C44   H52   1.099505 S    
P2    Ba1   3.490404 S    
C9    C41   1.522990 S    
P1    O2    1.588446 S    
O2    Ba1   2.955764 S    
C32   H41   1.081848 S    
P4    O12   1.527569 D    
C43   H49   1.087473 S    
C12   H23   1.110047 S    
C31   H40   1.082210 S    
C11   O22   1.405175 S    
P4    O13   1.588447 S    
C6    H11   1.102217 S    
Ba2   O20   2.840476 S    
C4    C5    1.503893 S    
C6    C7    1.519547 S    
C40   H39   1.075313 S    
C15   H30   1.107498 S    
C19   H35   1.082313 S    
C1    H3    1.103617 S    
C21   H36   1.077259 S    
N3    O30   1.297681 A    
P3    C34   1.865095 S    
Ba1   O16   2.841078 S    
P2    O7    1.500054 D    
P3    O8    1.725969 S    
C32   C34   1.404068 A    
C31   C39   1.400454 A    
N2    O27   1.299941 A    
C33   C37   1.410835 A    
C26   N4    1.412176 S    
C14   N2    1.447892 S    
C41   H44   1.099219 S    
P8    C20   1.810854 S    
C11   C12   1.521745 S    
C23   C30   1.444622 A    
C12   H25   1.110944 S    
O3    P6    1.716858 S    
C4    O15   1.376759 S    
C36   C40   1.421169 A    
C15   C16   1.532812 S    
N5    O33   1.299600 A    
N2    O28   1.299405 A    
C33   C34   1.400035 A    
C41   H42   1.109063 S    
C44   H51   1.097468 S    
O1    Ba1   2.884662 S    
C9    C42   1.492419 S    
C43   H50   1.107016 S    
N4    O31   1.298834 A    
P2    C35   1.913071 S    
C18   C28   1.420368 A    
P4    O15   1.721362 S    
O16   Ba2   2.932299 S    
C17   C29   1.410241 A    
Ba1   O20   2.933199 S    
O14   Ba2   2.856573 S    
C25   C26   1.426533 A    
C16   H32   1.112866 S    
N1    O26   1.287785 A    
O5    C6    1.402512 S    
C32   C35   1.403422 A    
C1    H20   1.108394 S    
O10   C8    1.386641 S    
P7    C38   1.900910 S    
Ba2   O21   2.951414 S    
P8    O23   1.534828 D    
O19   C13   1.421477 S    
N3    O29   1.299802 A    
C24   C28   1.443429 A    
P5    O19   1.783898 S    
C21   C22   1.414085 A    
P3    O9    1.544870 D    
C3    N5    1.455243 S    
C5    H9    1.108326 S    
C3    H6    1.108710 S    
C31   C38   1.398812 A    
C13   C14   1.557298 S    
O6    P6    1.751208 S    
C22   C23   1.444126 A    
P8    O24   1.737805 S    
O3    Ba1   2.857218 S    
C43   H48   1.094798 S    
