data_mof_unit_8221.cif
_audit_creation_date              2012-12-11T17:14:04-0500
_audit_creation_method            fapswitch 2.2
_symmetry_space_group_name_H-M    P1
_symmetry_Int_Tables_number       1
_space_group_crystal_system       triclinic
_cell_length_a                    18.231458
_cell_length_b                    7.156582
_cell_length_c                    13.067425
_cell_angle_alpha                 89.999409
_cell_angle_beta                  71.894041
_cell_angle_gamma                 90.000014
_cell_volume                      1620.54692984

loop_
_atom_site_label
_atom_site_type_symbol
_atom_type_description
_atom_site_fract_x
_atom_site_fract_y
_atom_site_fract_z
_atom_type_partial_charge
O1    O     O_R   0.453880 0.506200 0.150010 -0.539124
O2    O     O_R   0.546120 0.006200 0.849990 -0.539121
O3    O     O_R   0.604080 0.177770 0.007280 -0.531191
O4    O     O_R   0.395920 0.677770 0.992720 -0.531187
C1    C     C_R   0.636595 0.343996 0.998138 0.778461
C2    C     C_R   0.363405 0.843995 0.001861 0.778465
O5    O     O_R   0.458010 0.176640 0.159130 -0.529880
O6    O     O_R   0.541990 0.676640 0.840870 -0.529888
O7    O     O_R   0.399010 0.004010 0.002930 -0.532231
O8    O     O_R   0.600990 0.504010 0.997070 -0.532236
C3    C     C_R   0.442351 0.346261 0.201863 0.755854
C4    C     C_R   0.557648 0.846262 0.798137 0.755853
O9    O     O_3   0.480810 0.338440 0.948570 -0.367124
O10   O     O_3   0.519190 0.838440 0.051430 -0.367125
V1    V     V_3+5 0.503560 0.064490 0.009540 1.573276
V2    V     V_3+5 0.496440 0.564490 0.990460 1.573268
C5    C     C_R   0.573358 0.941615 0.504197 -0.000056
C6    C     C_R   0.426641 0.441623 0.495801 -0.000054
C7    C     C_R   0.587460 0.864225 0.679540 -0.095751
C8    C     C_R   0.412538 0.364224 0.320459 -0.095760
C9    C     C_R   0.949136 0.856634 0.387441 -0.095288
C10   C     C_R   0.050865 0.356603 0.612556 -0.095276
C11   C     C_R   0.914959 0.883186 0.499705 -0.077293
C12   C     C_R   0.085040 0.383188 0.500295 -0.077298
C13   C     C_R   0.834365 0.915024 0.542246 0.013516
C14   C     C_R   0.165634 0.415052 0.457755 0.013515
C15   C     C_R   0.785271 0.887539 0.477018 0.061033
C16   C     C_R   0.214727 0.387557 0.522982 0.061042
C17   C     C_R   0.819603 0.866881 0.364170 -0.036796
C18   C     C_R   0.180396 0.366890 0.635829 -0.036818
C19   C     C_R   0.702481 0.883792 0.521079 0.102755
C20   C     C_R   0.297516 0.383810 0.478919 0.102785
C21   C     C_R   0.655407 0.919837 0.454137 0.021711
C22   C     C_R   0.344591 0.419856 0.545861 0.021684
C23   C     C_R   0.692606 0.918392 0.340564 -0.075861
C24   C     C_R   0.307393 0.418407 0.659434 -0.075875
C25   C     C_R   0.770168 0.864192 0.299043 -0.097440
C26   C     C_R   0.229832 0.364196 0.700955 -0.097418
C27   C     C_R   0.665954 0.834350 0.629558 -0.167606
C28   C     C_R   0.334043 0.334361 0.370442 -0.167617
C29   C     C_R   0.541341 0.933432 0.618607 -0.057661
C30   C     C_R   0.458657 0.433432 0.381391 -0.057664
C31   C     C_R   0.901923 0.858183 0.319492 -0.121351
C32   C     C_R   0.098077 0.358181 0.680507 -0.121332
H1    H     H_    0.698984 0.775984 0.677826 0.105270
H2    H     H_    0.301009 0.276001 0.322177 0.105279
C33   C     C_1   0.215469 0.857936 0.003965 -0.127911
C34   C     C_1   0.784531 0.357936 0.996034 -0.127885
C35   C     C_1   0.282642 0.851637 0.003545 -0.165713
C36   C     C_1   0.717358 0.351637 0.996454 -0.165724
O11   O     O_R   0.899030 0.205490 0.002790 -0.522293
O12   O     O_R   0.100970 0.705490 0.997210 -0.522291
O13   O     O_R   0.042000 0.536370 0.840840 -0.536884
O14   O     O_R   0.958000 0.036370 0.159160 -0.536880
C37   C     C_R   0.059813 0.368308 0.798547 0.738568
C38   C     C_R   0.940187 0.868306 0.201452 0.738583
O15   O     O_R   0.895930 0.535070 0.992690 -0.540385
O16   O     O_R   0.104070 0.035070 0.007310 -0.540384
O17   O     O_R   0.953870 0.707520 0.150040 -0.513742
O18   O     O_R   0.046130 0.207520 0.849960 -0.513731
C39   C     C_R   0.864710 0.366446 0.996810 0.790901
C40   C     C_R   0.135290 0.866446 0.003190 0.790912
O19   O     O_3   0.019200 0.374340 0.051340 -0.368179
O20   O     O_3   0.980800 0.874340 0.948660 -0.368182
V3    V     V_3+5 0.996440 0.648350 0.990470 1.598828
V4    V     V_3+5 0.003560 0.148350 0.009530 1.598827
C41   C     C_2   0.457918 0.982728 0.672890 0.864673
O21   O     O_2   0.423544 0.085134 0.628725 -0.547767
O22   O     O_R   0.417423 0.908899 0.772919 -0.669950
H3    H     H_    0.361646 0.951598 0.797590 0.303612
C42   C     C_2   0.542082 0.482718 0.327108 0.864738
O23   O     O_2   0.576457 0.585123 0.371271 -0.547755
O24   O     O_R   0.582577 0.408871 0.227085 -0.669941
H4    H     H_    0.638355 0.451563 0.202415 0.303608
C43   C     C_2   0.655195 0.972836 0.259469 0.474134
H5    H     H_    0.657120 0.117451 0.234977 0.090448
O25   O     O_2   0.626492 0.856212 0.215378 -0.508768
C44   C     C_2   0.344806 0.472853 0.740523 0.474100
H6    H     H_    0.342924 0.617487 0.764963 0.090498
O26   O     O_2   0.373471 0.356219 0.784660 -0.508771
C45   C     C_2   0.518023 0.960749 0.441370 0.876985
O27   O     O_2   0.522582 0.092515 0.381399 -0.577280
O28   O     O_R   0.455585 0.838751 0.459299 -0.651744
H7    H     H_    0.420742 0.870395 0.414501 0.305764
C46   C     C_2   0.481976 0.460745 0.558627 0.876922
O29   O     O_2   0.477424 0.592512 0.618593 -0.577303
O30   O     O_R   0.544411 0.338738 0.540698 -0.651743
H8    H     H_    0.579256 0.370375 0.585494 0.305760
C47   C     C_2   0.034469 0.829095 0.338410 0.728855
O31   O     O_2   0.080409 0.922765 0.367352 -0.535404
O32   O     O_R   0.062269 0.699023 0.255651 -0.657312
H9    H     H_    0.120326 0.704986 0.222274 0.287432
C48   C     C_2   0.965536 0.328998 0.661584 0.728831
O33   O     O_2   0.919585 0.422604 0.632627 -0.535396
O34   O     O_R   0.937751 0.198936 0.744354 -0.657325
H10   H     H_    0.879694 0.204863 0.777731 0.287436
C49   C     C_2   0.804657 0.009992 0.648450 0.354830
H11   H     H_    0.818389 0.957611 0.718019 0.100287
O35   O     O_2   0.764269 0.149217 0.658567 -0.523013
C50   C     C_2   0.195339 0.510050 0.351557 0.354796
H12   H     H_    0.181602 0.457717 0.281986 0.100358
O36   O     O_2   0.235732 0.649265 0.341454 -0.523027
C51   C     C_2   0.963570 0.883277 0.572759 0.389990
H13   H     H_    0.017897 0.957294 0.551893 0.116613
O37   O     O_2   0.943068 0.799603 0.658307 -0.512766
C52   C     C_2   0.036428 0.383319 0.427247 0.390043
H14   H     H_    0.982093 0.457282 0.448140 0.116662
O38   O     O_2   0.056941 0.299772 0.341659 -0.512758
C53   C     C_2   0.792854 0.776604 0.191864 0.772286
O39   O     O_2   0.796043 0.606521 0.185909 -0.558540
O40   O     O_R   0.803211 0.886732 0.100047 -0.664778
H15   H     H_    0.809398 0.810673 0.032617 0.300869
C54   C     C_2   0.207146 0.276593 0.808132 0.772353
O41   O     O_2   0.203936 0.106510 0.814081 -0.558542
O42   O     O_R   0.196808 0.386700 0.899952 -0.664757
H16   H     H_    0.190620 0.310628 0.967379 0.300878

loop_
_geom_bond_atom_site_label_1
_geom_bond_atom_site_label_2
_ccdc_geom_bond_type
O16   C40   A    
O30   H8    S    
O19   V3    S    
C48   O33   D    
C15   C17   A    
O24   H4    S    
O34   H10   S    
O1    C3    A    
O2    C4    A    
C33   C40   S    
C45   O27   D    
C33   C35   T    
C9    C47   S    
C46   O29   D    
C28   H2    S    
C23   C43   S    
C23   C25   A    
C12   C14   A    
C53   O40   S    
C8    C28   A    
C44   O26   D    
C52   H14   S    
O42   H16   S    
C18   C26   A    
C30   C42   S    
C49   O35   D    
C9    C31   A    
O16   V4    S    
C11   C51   S    
O40   H15   S    
O11   C39   A    
C19   C21   A    
C47   O32   S    
O13   V3    S    
C25   C53   S    
C27   H1    S    
C34   C36   T    
O19   V4    S    
O18   V4    S    
O6    V2    S    
C37   O18   A    
C17   C31   A    
C18   C32   A    
C5    C21   A    
C2    O7    A    
C1    O8    A    
C45   O28   S    
C49   H11   S    
O13   C37   A    
O14   C38   A    
C3    C8    S    
C6    C46   S    
C46   O30   S    
C15   C19   A    
C41   O21   D    
C16   C20   A    
C29   C41   S    
O32   H9    S    
C42   O24   S    
C26   C54   S    
C44   H6    S    
C41   O22   S    
O11   V4    S    
O20   V4    S    
O4    V2    S    
O5    C3    A    
C43   H5    S    
C14   C50   S    
C43   O25   D    
O28   H7    S    
O6    C4    A    
C50   O36   D    
C51   O37   D    
O1    V2    S    
O2    V1    S    
C6    C22   A    
C7    C27   A    
C13   C49   S    
C9    C11   A    
C10   C48   S    
C10   C12   A    
C1    C36   S    
O4    C2    A    
C12   C52   S    
C24   C26   A    
C20   C28   A    
O3    V1    S    
C54   O41   D    
C10   C32   A    
O15   V3    S    
O3    C1    A    
C8    C30   A    
O15   C39   A    
O14   V4    S    
C13   C15   A    
C14   C16   A    
C24   C44   S    
C38   O17   A    
O20   V3    S    
C6    C30   A    
O7    V1    S    
C16   C18   A    
O12   C40   A    
C53   O39   D    
O17   V3    S    
C32   C37   S    
C34   C39   S    
C52   O38   D    
C4    C7    S    
O5    V1    S    
C50   H12   S    
C21   C23   A    
C22   C24   A    
C19   C27   A    
C5    C45   S    
C11   C13   A    
C2    C35   S    
O22   H3    S    
C5    C29   A    
C31   C38   S    
C42   O23   D    
C48   O34   S    
O9    V2    S    
C17   C25   A    
C51   H13   S    
O10   V1    S    
O8    V2    S    
C47   O31   D    
O12   V3    S    
C7    C29   A    
C20   C22   A    
C54   O42   S    
