data_mof_unit_51278.cif
_audit_creation_date              2013-03-05T15:59:10-0500
_audit_creation_method            fapswitch 2.2
_symmetry_space_group_name_H-M    P1
_symmetry_Int_Tables_number       1
_space_group_crystal_system       triclinic
_cell_length_a                    12.616217
_cell_length_b                    12.996872
_cell_length_c                    15.758507
_cell_angle_alpha                 91.036864
_cell_angle_beta                  102.745551
_cell_angle_gamma                 81.986985
_cell_volume                      2495.45277186

loop_
_atom_site_label
_atom_site_type_symbol
_atom_site_description
_atom_site_fract_x
_atom_site_fract_y
_atom_site_fract_z
_atom_type_partial_charge
O1    O     O_R   0.366740 0.627160 0.478850 -0.607758
O2    O     O_R   0.544830 0.662520 0.507140 -0.610685
C1    C     C_R   0.438513 0.691862 0.491059 0.930867
O3    O     O_R   0.410920 0.482310 0.608710 -0.580708
O4    O     O_R   0.589010 0.517670 0.637000 -0.594701
C2    C     C_R   0.501425 0.499142 0.661495 0.930125
Zn1   Zn    Zn3+2 0.381090 0.476390 0.481110 1.026838
Zn2   Zn    Zn3+2 0.618910 0.523610 0.518890 0.998792
O5    O     O_R   0.455170 0.337480 0.492860 -0.600463
O6    O     O_R   0.633260 0.372840 0.521150 -0.645162
O7    O     O_R   0.410990 0.482330 0.363000 -0.604628
O8    O     O_R   0.589080 0.517690 0.391290 -0.613030
C3    C     C_R   0.561304 0.308509 0.510842 0.926673
C4    C     C_R   0.499221 0.499092 0.338634 0.905895
C5    C     C_3   0.407936 0.569712 0.936681 0.122609
C6    C     C_3   0.618567 0.529156 0.971771 0.088805
C7    C     C_3   0.622683 0.528745 0.073099 0.403654
H1    H     H_    0.402552 0.646379 0.062668 0.275779
H2    H     H_    0.685542 0.470996 0.957851 0.187969
C8    C     C_1   0.498864 0.495844 0.249800 -0.051005
C9    C     C_3   0.509034 0.495014 0.918742 -0.204937
C10   C     C_3   0.408589 0.567690 0.034658 -0.457320
C11   C     C_3   0.510045 0.494359 0.084972 -0.068058
C12   C     C_3   0.499557 0.383625 0.047980 -0.467829
C13   C     C_3   0.503107 0.380940 0.949176 0.487459
C14   C     C_1   0.502811 0.494062 0.175289 0.138402
C15   C     C_1   0.506816 0.496448 0.826486 0.175961
C16   C     C_1   0.504522 0.497749 0.750844 0.050700
H3    H     H_    0.420710 0.360996 0.056894 0.238848
H4    H     H_    0.331857 0.539334 0.902312 0.200332
H5    H     H_    0.332345 0.538515 0.042780 0.204179
H6    H     H_    0.562743 0.325459 0.087744 0.266130
C17   C     C_R   0.662004 0.085844 0.660692 -0.026048
H7    H     H_    0.701323 0.240111 0.658060 0.192102
H8    H     H_    0.709250 0.073633 0.726714 0.222712
C18   C     C_R   0.599110 0.201018 0.536028 -0.144670
C19   C     C_R   0.311885 0.836432 0.411110 -0.238003
C20   C     C_R   0.288734 0.941393 0.386526 0.353859
C21   C     C_R   0.359769 0.009438 0.428550 -0.137890
C22   C     C_R   0.449841 0.974133 0.497238 0.028342
C23   C     C_R   0.455578 0.875127 0.533557 -0.059334
C24   C     C_R   0.530736 0.036715 0.533510 -0.023844
C25   C     C_R   0.594620 0.014002 0.619042 -0.058709
C26   C     C_R   0.584555 0.923704 0.663035 0.199771
C27   C     C_R   0.517210 0.852464 0.619750 0.189949
C28   C     C_R   0.547230 0.123648 0.488064 0.241619
C29   C     C_R   0.660553 0.180384 0.620687 -0.213494
C30   C     C_R   0.397716 0.802605 0.482071 -0.087833
H9    H     H_    0.265748 0.780413 0.373261 0.197801
H10   H     H_    0.343135 0.090313 0.408617 0.179733
C31   C     C_R   0.093448 0.334938 0.389053 -0.219219
H11   H     H_    0.259527 0.320482 0.373874 0.177280
H12   H     H_    0.886903 0.303427 0.367534 0.200569
H13   H     H_    0.073289 0.271556 0.345539 0.209770
N1    N     N_R   0.222200 0.444690 0.455710 -0.129633
C32   C     C_R   0.798839 0.629203 0.603939 -0.077329
C33   C     C_R   0.905999 0.647051 0.637226 0.303374
C34   C     C_R   0.992051 0.590232 0.605759 0.199779
C35   C     C_R   0.966876 0.521181 0.534826 -0.144307
C36   C     C_R   0.856910 0.500115 0.509077 0.170349
C37   C     C_R   0.045014 0.470581 0.489302 0.037841
C38   C     C_R   0.016214 0.389298 0.430747 0.141042
C39   C     C_R   0.909988 0.364623 0.412666 -0.170624
C40   C     C_R   0.830879 0.421365 0.449392 -0.099845
C41   C     C_R   0.149192 0.500445 0.495558 0.046923
C42   C     C_R   0.197780 0.363048 0.403937 0.037492
N2    N     N_R   0.776960 0.554780 0.543830 -0.153939
H14   H     H_    0.174134 0.568428 0.529719 0.177988
H15   H     H_    0.732873 0.670297 0.630063 0.213233
H16   H     H_    0.749800 0.401287 0.430431 0.212496
N3    N     N_R   0.635972 0.907803 0.753467 0.246413
O9    O     O_R   0.742190 0.887821 0.778020 -0.264248
O10   O     O_R   0.576167 0.910762 0.811247 -0.198405
N4    N     N_R   0.524227 0.127204 0.393992 0.196010
O11   O     O_R   0.501133 0.215144 0.351253 -0.395358
O12   O     O_R   0.541831 0.042145 0.351291 -0.303938
N5    N     N_R   0.197841 0.977432 0.316080 0.234399
O13   O     O_R   0.131525 0.914119 0.277652 -0.303774
O14   O     O_R   0.179661 0.074157 0.290364 -0.353108
N6    N     N_R   0.400451 0.675887 0.902576 0.272735
O15   O     O_R   0.343148 0.699323 0.824428 -0.225877
O16   O     O_R   0.435919 0.750567 0.952336 -0.222542
N7    N     N_R   0.500406 0.765007 0.667442 0.208971
O17   O     O_R   0.581850 0.713281 0.722303 -0.319492
O18   O     O_R   0.401350 0.745004 0.664099 -0.320455
N8    N     N_R   0.102232 0.591668 0.654622 0.213710
O19   O     O_R   0.161357 0.505866 0.688080 -0.331003
O20   O     O_R   0.142268 0.678960 0.668960 -0.259853
Cl1   Cl    Cl    0.930652 0.732971 0.724672 -0.357225
Cl2   Cl    Cl    0.650896 0.646498 0.929906 -0.291709
N9    N     N_R   0.640343 0.632099 0.110764 0.263979
O21   O     O_R   0.735317 0.663659 0.117189 -0.211209
O22   O     O_R   0.570309 0.686450 0.149169 -0.346002
N10   N     N_R   0.717644 0.453235 0.116878 0.205469
O23   O     O_R   0.811978 0.451395 0.095610 -0.276962
O24   O     O_R   0.717691 0.409013 0.190342 -0.377255
Cl3   Cl    Cl    0.379972 0.333864 0.889697 -0.467274
N11   N     N_R   0.597140 0.307704 0.932562 0.228145
O25   O     O_R   0.600182 0.279599 0.853309 -0.345584
O26   O     O_R   0.679266 0.271436 0.995019 -0.301592

loop_
_geom_bond_atom_site_label_1
_geom_bond_atom_site_label_2
_geom_bond_distance
_ccdc_geom_bond_type
C6    Cl2   1.804449 S    
C6    C9    1.566155 S    
C7    N9    1.484098 S    
Zn1   N1    2.053922 S    
N5    O13   1.301600 A    
Zn1   O7    1.983828 S    
C19   C20   1.398016 A    
N4    O12   1.301861 A    
C18   C29   1.396894 A    
C20   C21   1.400618 A    
O7    C4    1.301234 A    
N8    O20   1.301322 A    
C1    C30   1.457833 S    
C32   C33   1.388116 A    
C26   N3    1.435177 S    
C24   C28   1.411856 A    
C11   C14   1.446257 S    
O5    C3    1.308019 A    
C12   H3    1.113765 S    
C23   C30   1.407969 A    
C5    C10   1.542860 S    
C2    C16   1.400274 S    
C5    N6    1.473136 S    
C36   N2    1.360878 A    
C6    C7    1.586211 S    
C11   C12   1.554773 S    
C18   C28   1.395919 A    
C40   H16   1.067929 S    
N9    O21   1.302393 A    
C22   C24   1.409645 A    
C9    C15   1.448307 S    
C35   C36   1.420508 A    
O1    Zn1   1.942836 S    
C27   N7    1.438818 S    
C31   C38   1.397871 A    
O3    Zn1   1.964530 S    
C34   N8    1.435256 S    
N1    C41   1.349251 A    
N5    O14   1.301627 A    
C35   C37   1.425891 A    
C10   H5    1.114994 S    
C17   C25   1.406507 A    
C4    C8    1.398801 S    
C12   C13   1.567115 S    
C3    C18   1.444824 S    
O3    C2    1.299052 A    
N4    O11   1.301245 A    
C21   C22   1.415406 A    
N3    O10   1.301383 A    
N8    O19   1.301468 A    
C34   C35   1.429077 A    
O1    C1    1.301415 A    
C31   C42   1.384129 A    
C25   C26   1.408511 A    
C12   H6    1.108307 S    
C38   C39   1.388553 A    
N9    O22   1.300928 A    
C19   H9    1.083457 S    
N7    O17   1.300631 A    
Zn2   O8    1.964530 S    
C41   H14   1.074730 S    
N10   O23   1.302723 A    
C7    C11   1.597368 S    
C19   C30   1.402538 A    
N10   O24   1.301635 A    
C33   Cl1   1.759175 S    
C13   Cl3   1.807761 S    
C22   C23   1.403921 A    
N7    O18   1.301216 A    
O8    C4    1.298556 A    
C32   H15   1.080116 S    
N11   O26   1.301965 A    
C17   C29   1.387151 A    
C24   C25   1.422033 A    
C28   N4    1.446682 S    
N1    C42   1.354749 A    
H11   C42   1.081934 S    
C26   C27   1.408968 A    
C5    H4    1.113117 S    
Zn1   O5    1.905924 S    
C9    C13   1.583093 S    
H1    C10   1.106053 S    
O2    Zn2   1.905923 S    
N6    O15   1.300517 A    
O6    C3    1.300454 A    
O4    Zn2   1.983831 S    
C7    N10   1.485404 S    
C20   N5    1.440189 S    
C32   N2    1.354599 A    
C36   C40   1.400928 A    
C31   H13   1.083747 S    
O2    C1    1.311367 A    
N3    O9    1.300299 A    
H12   C39   1.084419 S    
C33   C34   1.403803 A    
O4    C2    1.301435 A    
C8    C14   1.185825 T    
C6    H2    1.109585 S    
C17   H8    1.081163 S    
N6    O16   1.302261 A    
C37   C38   1.422445 A    
C39   C40   1.381717 A    
C37   C41   1.404101 A    
C13   N11   1.481612 S    
C5    C9    1.566281 S    
C21   H10   1.081163 S    
Zn2   N2    2.041628 S    
Zn2   O6    1.942837 S    
N11   O25   1.302076 A    
C15   C16   1.186335 T    
C23   C27   1.421575 A    
C10   C11   1.553953 S    
H7    C29   1.084027 S    
