data_mof_unit_31391.cif
_audit_creation_date              2013-03-05T16:10:28-0500
_audit_creation_method            fapswitch 2.2
_symmetry_space_group_name_H-M    P1
_symmetry_Int_Tables_number       1
_space_group_crystal_system       triclinic
_cell_length_a                    10.670609
_cell_length_b                    9.838508
_cell_length_c                    14.989361
_cell_angle_alpha                 90.624962
_cell_angle_beta                  89.556458
_cell_angle_gamma                 89.806411
_cell_volume                      1573.47596971

loop_
_atom_site_label
_atom_site_type_symbol
_atom_site_description
_atom_site_fract_x
_atom_site_fract_y
_atom_site_fract_z
_atom_type_partial_charge
O1    O     O_R   0.316770 0.614620 0.499990 -0.613875
O2    O     O_R   0.683230 0.385380 0.500010 -0.613876
O3    O     O_R   0.683230 0.614620 0.500010 -0.601442
O4    O     O_R   0.316770 0.385380 0.499990 -0.601444
C1    C     C_R   0.260150 0.500167 0.499854 0.955094
C2    C     C_R   0.739850 0.499833 0.500147 0.955091
O5    O     O_R   0.499980 0.614680 0.367850 -0.618642
O6    O     O_R   0.500020 0.385320 0.632150 -0.618642
O7    O     O_R   0.500020 0.614680 0.632150 -0.609947
O8    O     O_R   0.499980 0.385320 0.367850 -0.609947
C3    C     C_R   0.492854 0.499342 0.326913 0.927381
C4    C     C_R   0.507146 0.500658 0.673087 0.927377
Zn1   Zn    Zn3+2 0.500000 0.653120 0.500000 0.987590
Zn2   Zn    Zn3+2 0.500000 0.346880 0.500000 0.987589
C5    C     C_R   0.585343 0.400843 0.814561 0.142298
C6    C     C_R   0.414656 0.599156 0.185439 0.142301
C7    C     C_R   0.519201 0.503073 0.768796 -0.063396
C8    C     C_R   0.480800 0.496927 0.231204 -0.063396
C9    C     C_R   0.459456 0.609178 0.814604 -0.257361
C10   C     C_R   0.540544 0.390822 0.185396 -0.257362
C11   C     C_R   0.452267 0.609059 0.906323 0.111866
C12   C     C_R   0.547732 0.390941 0.093677 0.111867
C13   C     C_R   0.506142 0.501083 0.953514 0.033744
C14   C     C_R   0.493857 0.498917 0.046486 0.033744
C15   C     C_R   0.572770 0.395902 0.907947 0.107955
C16   C     C_R   0.427228 0.604097 0.092052 0.107954
C17   C     C_R   0.388504 0.713896 0.950975 -0.177366
C18   C     C_R   0.611494 0.286103 0.049024 -0.177366
C19   C     C_R   0.376059 0.711764 0.042965 -0.197559
C20   C     C_R   0.623938 0.288234 0.957034 -0.197559
H1    H     H_    0.414580 0.690594 0.778439 0.191192
H2    H     H_    0.585420 0.309406 0.221561 0.191192
H3    H     H_    0.347490 0.797446 0.914595 0.163651
H4    H     H_    0.652506 0.202552 0.085404 0.163650
H5    H     H_    0.327424 0.796079 0.074771 0.167819
H6    H     H_    0.672571 0.203918 0.925229 0.167819
C21   C     C_R   0.065935 0.441062 0.426973 0.098003
C22   C     C_R   0.934064 0.558939 0.573028 0.098003
C23   C     C_R   0.936048 0.440854 0.427187 0.128634
C24   C     C_R   0.063952 0.559142 0.572815 0.128631
C25   C     C_R   0.872204 0.499594 0.500216 -0.205629
C26   C     C_R   0.127795 0.500404 0.499786 -0.205626
C27   C     C_R   0.582973 0.072494 0.551086 -0.051074
C28   C     C_R   0.417027 0.927506 0.448914 -0.051073
C29   C     C_R   0.417133 0.071386 0.448829 -0.046966
C30   C     C_R   0.582867 0.928614 0.551171 -0.046965
H7    H     H_    0.649494 0.127394 0.591753 0.137463
H8    H     H_    0.350506 0.872606 0.408247 0.137462
H9    H     H_    0.350962 0.125402 0.407870 0.160040
H10   H     H_    0.649039 0.874598 0.592129 0.160042
N1    N     N_R   0.500000 0.857200 0.500000 -0.086372
N2    N     N_R   0.500000 0.142800 0.500000 -0.086372
C31   C     C_3   0.673749 0.303426 0.765868 -0.855808
H11   H     H_    0.764511 0.297901 0.801399 0.247675
H12   H     H_    0.631321 0.200674 0.762045 0.234599
H13   H     H_    0.699010 0.337337 0.697882 0.252229
C32   C     C_3   0.326250 0.696573 0.234132 -0.855806
H14   H     H_    0.235485 0.702090 0.198603 0.247678
H15   H     H_    0.300993 0.662667 0.302119 0.252232
H16   H     H_    0.368673 0.799328 0.237949 0.234597
I1    I     I_    0.168749 0.356874 0.315556 -0.345316
I2    I     I_    0.831250 0.643147 0.684440 -0.345313
I3    I     I_    0.836140 0.358268 0.315686 -0.316479
I4    I     I_    0.163860 0.641724 0.684317 -0.316481

loop_
_geom_bond_atom_site_label_1
_geom_bond_atom_site_label_2
_geom_bond_distance
_ccdc_geom_bond_type
C4    C7    1.441305 S    
C21   I1    2.148037 S    
C13   C14   1.399130 A    
C3    C8    1.441306 S    
C20   H6    1.081377 S    
C17   C19   1.384619 A    
C23   I3    2.143335 S    
C19   H5    1.081378 S    
C24   C26   1.402979 A    
C24   I4    2.143330 S    
C29   H9    1.081297 S    
O6    C4    1.286897 A    
O3    C2    1.279016 A    
C9    H1    1.084291 S    
C18   C20   1.384618 A    
C11   C17   1.395680 A    
C18   H4    1.084269 S    
C21   C23   1.385967 A    
O4    Zn2   1.990275 S    
C12   C18   1.395678 A    
C31   H11   1.110334 S    
C17   H3    1.084270 S    
C22   C24   1.385967 A    
C32   H14   1.110337 S    
O2    C2    1.279671 A    
C16   C19   1.407435 A    
C10   H2    1.084293 S    
O1    C1    1.279674 A    
C5    C31   1.519603 S    
C28   N1    1.366242 A    
C6    C8    1.413533 A    
C9    C11   1.376368 A    
C14   C16   1.419482 A    
O5    C3    1.286896 A    
C8    C10   1.393100 A    
C6    C32   1.519603 S    
C31   H12   1.110159 S    
C11   C13   1.406391 A    
C6    C16   1.406569 A    
O2    Zn2   1.992785 S    
C27   C30   1.415583 A    
C12   C14   1.406392 A    
C27   N2    1.366240 A    
C5    C15   1.406567 A    
C32   H15   1.107354 S    
O7    C4    1.286829 A    
O8    Zn2   2.020673 S    
O5    Zn1   2.012570 S    
C13   C15   1.419483 A    
O1    Zn1   1.992787 S    
C28   C29   1.415584 A    
C1    C26   1.412310 S    
C23   C25   1.402982 A    
C22   C25   1.402728 A    
O8    C3    1.286829 A    
C31   H13   1.107352 S    
C21   C26   1.402724 A    
C5    C7    1.413532 A    
C30   H10   1.081296 S    
C15   C20   1.407436 A    
C32   H16   1.110161 S    
O7    Zn1   2.020672 S    
O6    Zn2   2.012568 S    
C29   N2    1.366308 A    
C7    C9    1.393100 A    
Zn1   N1    2.007843 S    
C27   H7    1.081337 S    
C30   N1    1.366306 A    
Zn2   N2    2.007843 S    
C28   H8    1.081338 S    
C10   C12   1.376367 A    
O4    C1    1.279013 A    
C22   I2    2.148064 S    
C2    C25   1.412309 S    
O3    Zn1   1.990273 S    
