data_mof_unit_42060.cif
_audit_creation_date              2012-12-10T17:27:57-0500
_audit_creation_method            fapswitch 2.2
_symmetry_space_group_name_H-M    P1
_symmetry_Int_Tables_number       1
_space_group_crystal_system       triclinic
_cell_length_a                    10.629435
_cell_length_b                    12.05541
_cell_length_c                    12.843386
_cell_angle_alpha                 94.532229
_cell_angle_beta                  91.782636
_cell_angle_gamma                 85.000034
_cell_volume                      1633.90421048

loop_
_atom_site_label
_atom_site_type_symbol
_atom_type_description
_atom_site_fract_x
_atom_site_fract_y
_atom_site_fract_z
_atom_type_partial_charge
C1    C     C_R   0.498338 0.523062 0.700342 0.941723
C2    C     C_R   0.561301 0.626862 0.863047 -0.288090
C3    C     C_R   0.462994 0.454186 0.866411 -0.097173
C4    C     C_R   0.739342 0.499035 0.502131 0.940195
C5    C     C_R   0.485195 0.452977 0.972725 -0.133504
C6    C     C_R   0.550676 0.539674 0.026272 -0.060279
C7    C     C_R   0.573659 0.535515 0.133933 0.338021
C8    C     C_R   0.455636 0.369217 0.133371 0.351618
C9    C     C_R   0.443603 0.365557 0.025428 0.350282
C10   C     C_R   0.378682 0.955208 0.402043 0.234918
C11   C     C_R   0.385917 0.839384 0.416051 0.525848
C12   C     C_R   0.932824 0.453059 0.406421 -0.094163
C13   C     C_R   0.553960 0.858237 0.540958 0.418278
C14   C     C_R   0.544792 0.975774 0.534119 -0.114808
C15   C     C_R   0.455954 0.024770 0.463989 -0.131967
C16   C     C_R   0.506841 0.476306 0.299609 1.028811
C17   C     C_R   0.446050 0.142495 0.459351 0.009658
C18   C     C_R   0.614163 0.161308 0.583497 0.660404
C19   C     C_R   0.622957 0.045531 0.594648 -0.262333
C20   C     C_R   0.260376 0.500628 0.494687 1.065667
C21   C     C_R   0.867118 0.402503 0.320211 -0.168156
C22   C     C_R   0.927868 0.369284 0.227207 0.407749
C23   C     C_R   0.871845 0.494639 0.498919 -0.220624
C24   C     C_R   0.052154 0.392476 0.216145 -0.216095
C25   C     C_R   0.117376 0.448038 0.298999 0.510074
C26   C     C_R   0.061485 0.467098 0.398857 -0.072289
C27   C     C_3   0.856976 0.500178 0.741486 -0.223264
C28   C     C_3   0.819373 0.200161 0.612074 -0.264701
C29   C     C_3   0.183518 0.791223 0.411625 -0.176804
C30   C     C_3   0.214895 0.565423 0.201750 -0.251179
C31   C     C_3   0.763228 0.726468 0.988256 -0.115174
C32   C     C_R   0.936214 0.538946 0.587047 0.468911
C33   C     C_R   0.065112 0.542873 0.583264 0.243452
C34   C     C_R   0.126957 0.504916 0.490828 -0.267506
C35   C     C_R   0.514855 0.457757 0.187444 -0.332826
C36   C     C_R   0.504055 0.537918 0.812004 -0.123836
C37   C     C_R   0.588585 0.627813 0.970015 0.572253
Cl1   Cl    Cl    0.369946 0.252930 0.958207 -0.483179
Cl2   Cl    Cl    0.276699 0.009828 0.303642 -0.496410
Cl3   Cl    Cl    0.661886 0.795951 0.630295 -0.554229
Cl4   Cl    Cl    0.844824 0.305835 0.121656 -0.547231
Cl5   Cl    Cl    0.147741 0.596273 0.695580 -0.583640
Cl6   Cl    Cl    0.683630 0.618988 0.203261 -0.554912
Cl7   Cl    Cl    0.388891 0.264587 0.198256 -0.444640
H1    H     H_    0.588021 0.693894 0.819360 0.224339
H2    H     H_    0.829759 0.192427 0.525633 0.168031
H3    H     H_    0.857371 0.121930 0.646263 0.176932
H4    H     H_    0.878495 0.266805 0.643852 0.180651
H5    H     H_    0.131182 0.869256 0.388141 0.195631
H6    H     H_    0.191700 0.793446 0.498530 0.163620
H7    H     H_    0.125375 0.721843 0.385312 0.187829
H8    H     H_    0.126951 0.622514 0.210412 0.174834
H9    H     H_    0.216004 0.519525 0.123304 0.161438
H10   H     H_    0.295206 0.618382 0.205839 0.242305
H11   H     H_    0.765183 0.752484 0.907293 0.172653
H12   H     H_    0.414582 0.388925 0.823614 0.219097
H13   H     H_    0.821680 0.645984 0.995477 0.148670
H14   H     H_    0.807393 0.790825 0.040249 0.220735
H15   H     H_    0.376655 0.183176 0.408643 0.226095
H16   H     H_    0.691352 0.011565 0.650212 0.212811
H17   H     H_    0.768581 0.388065 0.323808 0.177399
H18   H     H_    0.096750 0.371117 0.141761 0.211113
H19   H     H_    0.947048 0.448691 0.756219 0.181811
H20   H     H_    0.782887 0.446445 0.710004 0.170936
H21   H     H_    0.824801 0.539651 0.817951 0.182218
N1    N     N_R   0.523130 0.207800 0.519340 -0.159538
N2    N     N_R   0.476870 0.792180 0.480660 -0.186102
O1    O     O_R   0.506170 0.421690 0.658830 -0.601620
O2    O     O_3   0.692928 0.229972 0.640815 -0.587041
O3    O     O_3   0.302201 0.772237 0.363340 -0.566569
O4    O     O_3   0.231177 0.490261 0.281442 -0.628265
O5    O     O_3   0.638169 0.720742 0.020371 -0.543734
O6    O     O_R   0.491330 0.609320 0.646410 -0.571431
O7    O     O_R   0.690660 0.406170 0.506210 -0.637751
O8    O     O_R   0.675810 0.593790 0.493790 -0.536998
O9    O     O_R   0.508670 0.390680 0.353590 -0.591897
O10   O     O_R   0.493830 0.578310 0.341170 -0.548690
O11   O     O_R   0.324190 0.406210 0.506210 -0.626023
O12   O     O_R   0.309340 0.593830 0.493790 -0.582297
O13   O     O_3   0.872256 0.585140 0.674638 -0.545233
Zn1   Zn    Zn3+2 0.509910 0.374720 0.508290 1.028363
Zn2   Zn    Zn3+2 0.490090 0.625280 0.491710 1.096826

loop_
_geom_bond_atom_site_label_1
_geom_bond_atom_site_label_2
_ccdc_geom_bond_type
C28   H3    S    
C28   O2    S    
O11   Zn1   S    
C30   O4    S    
C11   O3    S    
C29   H5    S    
C30   H10   S    
C12   C23   A    
C28   H2    S    
C17   N1    A    
O1    Zn1   S    
O10   Zn2   S    
C31   H14   S    
C18   C19   A    
C10   C15   A    
C16   C35   S    
C13   N2    A    
C5    C6    A    
C22   Cl4   S    
C1    O1    A    
C16   O10   A    
C4    O8    A    
C26   C34   A    
C8    C9    A    
C13   Cl3   S    
C25   O4    S    
C7    Cl6   S    
C4    O7    A    
C20   C34   S    
C18   O2    S    
C13   C14   A    
C11   N2    A    
C29   H6    S    
C2    H1    S    
C30   H9    S    
C24   C25   A    
C27   O13   S    
C27   H20   S    
C4    C23   S    
C25   C26   A    
C12   C21   A    
C12   C26   A    
C10   Cl2   S    
C8    C35   A    
C5    C9    A    
C27   H21   S    
C32   O13   S    
C3    H12   S    
C33   C34   A    
C6    C37   A    
C27   H19   S    
C17   H15   S    
C31   O5    S    
C22   C24   A    
C33   Cl5   S    
O7    Zn1   S    
O6    Zn2   S    
C29   O3    S    
C29   H7    S    
C2    C36   A    
C21   H17   S    
C15   C17   A    
C30   H8    S    
C28   H4    S    
C24   H18   S    
C20   O12   A    
C16   O9    A    
C7    C35   A    
C14   C19   A    
C8    Cl7   S    
C3    C5    A    
O9    Zn1   S    
O12   Zn2   S    
O8    Zn2   S    
C6    C7    A    
C19   H16   S    
C18   N1    A    
C20   O11   A    
C1    O6    A    
C23   C32   A    
C31   H13   S    
C32   C33   A    
N1    Zn1   S    
C2    C37   A    
C3    C36   A    
C9    Cl1   S    
C10   C11   A    
N2    Zn2   S    
C37   O5    S    
C14   C15   A    
C31   H11   S    
C21   C22   A    
C1    C36   S    
