data_mof_unit_7640.cif
_audit_creation_date              2012-12-10T17:51:23-0500
_audit_creation_method            fapswitch 2.2
_symmetry_space_group_name_H-M    P1
_symmetry_Int_Tables_number       1
_space_group_crystal_system       triclinic
_cell_length_a                    14.811712
_cell_length_b                    15.005905
_cell_length_c                    17.236615
_cell_angle_alpha                 107.634874
_cell_angle_beta                  73.198372
_cell_angle_gamma                 116.542551
_cell_volume                      3212.71708412

loop_
_atom_site_label
_atom_site_type_symbol
_atom_type_description
_atom_site_fract_x
_atom_site_fract_y
_atom_site_fract_z
_atom_type_partial_charge
C1    C     C_R   0.118999 0.687782 0.514315 0.793199
C2    C     C_R   0.880863 0.312344 0.485282 0.791034
C3    C     C_R   0.185706 0.796482 0.525992 -0.048514
C4    C     C_R   0.812950 0.204221 0.471711 -0.048525
C5    C     C_R   0.213604 0.971520 0.592088 -0.206491
C6    C     C_R   0.782230 0.030175 0.400754 -0.193373
C7    C     C_R   0.146802 0.870436 0.571258 -0.180978
C8    C     C_R   0.850247 0.130085 0.423829 -0.185857
C9    C     C_R   0.290255 0.826367 0.495072 -0.224319
C10   C     C_R   0.708234 0.175969 0.501854 -0.256858
C11   C     C_R   0.357815 0.928384 0.509888 0.070339
C12   C     C_R   0.639020 0.074587 0.484875 0.060254
C13   C     C_R   0.320792 0.000826 0.566013 0.071582
C14   C     C_R   0.675247 0.001549 0.428063 0.105939
C15   C     C_R   0.463295 0.957352 0.476227 -0.020001
C16   C     C_R   0.532951 0.046932 0.517728 -0.046692
C17   C     C_R   0.494411 0.107006 0.589426 0.067905
C18   C     C_R   0.501783 0.898637 0.403642 0.065228
C19   C     C_R   0.391477 0.096656 0.600168 0.054351
C20   C     C_R   0.603308 0.906985 0.393519 0.039650
C21   C     C_R   0.284892 0.321910 0.360526 0.056335
C22   C     C_R   0.711321 0.675275 0.637561 0.070052
C23   C     C_R   0.991138 0.506463 0.652590 0.812227
C24   C     C_R   0.009879 0.495264 0.347126 0.809743
C25   C     C_R   0.203096 0.352923 0.387265 0.032092
C26   C     C_R   0.796101 0.648603 0.610351 -0.058908
C27   C     C_R   0.291748 0.492100 0.484811 0.275801
C28   C     C_R   0.706569 0.501075 0.518265 0.324330
C29   C     C_R   0.370883 0.456619 0.469196 -0.072427
C30   C     C_R   0.624367 0.532860 0.533370 -0.137654
C31   C     C_R   0.373017 0.376908 0.399306 0.055209
C32   C     C_R   0.622290 0.614534 0.601422 0.121317
C33   C     C_R   0.452125 0.503878 0.516732 0.083832
C34   C     C_R   0.542165 0.483627 0.486651 0.055819
C35   C     C_R   0.549268 0.418961 0.408748 -0.292822
C36   C     C_R   0.444576 0.568220 0.595005 -0.272821
C37   C     C_R   0.465168 0.360500 0.368531 0.154440
C38   C     C_R   0.529293 0.628371 0.633994 0.163244
C39   C     C_R   0.991747 0.520111 0.739704 -0.006076
C40   C     C_R   0.015288 0.491684 0.259916 -0.024998
C41   C     C_R   0.080086 0.588717 0.773506 0.147446
C42   C     C_R   0.926396 0.465764 0.228982 0.146094
C43   C     C_R   0.079063 0.600248 0.857112 -0.231897
C44   C     C_R   0.934828 0.465535 0.146339 -0.193705
C45   C     C_R   0.991080 0.543885 0.906462 0.110807
C46   C     C_R   0.030857 0.493519 0.094529 0.177469
C47   C     C_R   0.902106 0.478752 0.873698 -0.166812
C48   C     C_R   0.118605 0.515715 0.124159 -0.162742
C49   C     C_R   0.902280 0.467209 0.790446 -0.258735
C50   C     C_R   0.110884 0.514726 0.206415 -0.269148
C51   C     C_2   0.993218 0.549798 0.992257 0.062763
C52   C     C_2   0.038844 0.498452 0.008932 0.098279
Cu1   Cu    Cu3+1 0.916740 0.524770 0.521640 0.956457
Cu2   Cu    Cu3+1 0.083260 0.475230 0.478360 0.928731
H1    H     H_    0.864574 0.695127 0.637088 0.137636
H2    H     H_    0.135761 0.310526 0.358586 0.153590
H3    H     H_    0.620990 0.413724 0.376208 0.152809
H4    H     H_    0.372158 0.571773 0.628746 0.173000
H5    H     H_    0.180066 0.534405 0.228731 0.162684
H6    H     H_    0.833485 0.415609 0.765183 0.145666
H7    H     H_    0.833590 0.435527 0.912174 0.143287
H8    H     H_    0.193169 0.536028 0.084206 0.149923
H9    H     H_    0.866030 0.444087 0.122715 0.152819
H10   H     H_    0.147122 0.652086 0.883332 0.129255
H11   H     H_    0.680044 0.234575 0.536012 0.170559
H12   H     H_    0.320030 0.768801 0.464013 0.135391
H13   H     H_    0.931402 0.150642 0.399127 0.151399
H14   H     H_    0.065475 0.849318 0.595356 0.144782
H15   H     H_    0.180371 0.023905 0.633115 0.130883
H16   H     H_    0.815021 0.979412 0.356430 0.129640
N1    N     N_R   0.208390 0.438070 0.445820 -0.216969
N2    N     N_R   0.791610 0.561930 0.554180 -0.179456
O1    O     O_R   0.020090 0.662480 0.528530 -0.589612
O2    O     O_R   0.979910 0.337520 0.471470 -0.593858
O3    O     O_R   0.160710 0.620650 0.491980 -0.599996
O4    O     O_R   0.839290 0.379350 0.508020 -0.552589
O5    O     O_R   0.921540 0.523360 0.633990 -0.584560
O6    O     O_R   0.078460 0.476640 0.366010 -0.595193
O7    O     O_R   0.062170 0.481520 0.597440 -0.571182
O8    O     O_R   0.937830 0.518480 0.402560 -0.545292
N3    N     N_3   0.169609 0.648815 0.723841 -0.625382
H17   H     H_    0.184153 0.725494 0.749863 0.215944
H18   H     H_    0.231656 0.635305 0.727215 0.207260
N4    N     N_3   0.827188 0.438170 0.280550 -0.613546
H19   H     H_    0.780514 0.364992 0.253954 0.199966
H20   H     H_    0.795595 0.488314 0.281046 0.217783
C53   C     C_3   0.553214 0.158500 0.661597 -0.400499
C54   C     C_3   0.489220 0.122066 0.742213 -0.333669
C55   C     C_3   0.553167 0.168280 0.810609 -0.866501
H21   H     H_    0.618943 0.144828 0.792337 0.256066
H22   H     H_    0.582523 0.252633 0.823326 0.251723
H23   H     H_    0.504855 0.141421 0.868169 0.244809
H24   H     H_    0.422471 0.143883 0.764278 0.222473
H25   H     H_    0.460160 0.037748 0.730991 0.222199
H26   H     H_    0.620809 0.138652 0.647629 0.210759
H27   H     H_    0.584542 0.242326 0.670891 0.181179
C56   C     C_3   0.446605 0.847806 0.329150 -0.407874
C57   C     C_3   0.420379 0.922451 0.304381 -0.330563
C58   C     C_3   0.371688 0.873241 0.226941 -0.857437
H28   H     H_    0.425565 0.849572 0.173886 0.251179
H29   H     H_    0.299686 0.805692 0.238023 0.256663
H30   H     H_    0.353139 0.928770 0.210963 0.244360
H31   H     H_    0.365622 0.947844 0.355151 0.229733
H32   H     H_    0.491441 0.990517 0.292180 0.217302
H33   H     H_    0.496382 0.821077 0.274383 0.203382
H34   H     H_    0.376606 0.778961 0.339114 0.185173
N5    N     N_3   0.478292 0.290238 0.292941 -0.627274
H35   H     H_    0.538981 0.330577 0.251282 0.216214
H36   H     H_    0.498756 0.238397 0.305460 0.217531
N6    N     N_3   0.516937 0.698096 0.710268 -0.550284
H37   H     H_    0.493736 0.748790 0.699139 0.222221
H38   H     H_    0.458199 0.656938 0.752479 0.202117
N7    N     N_3   0.693657 0.398222 0.479896 -0.564711
H39   H     H_    0.616947 0.347242 0.486948 0.191700
H40   H     H_    0.730815 0.393077 0.418450 0.246732
N8    N     N_3   0.308799 0.592947 0.530528 -0.617045
H41   H     H_    0.244080 0.593640 0.574439 0.286778
H42   H     H_    0.329188 0.639362 0.488889 0.225543
N9    N     N_3   0.273626 0.233484 0.295557 -0.606789
H43   H     H_    0.286651 0.180751 0.314194 0.248730
H44   H     H_    0.325229 0.254592 0.241947 0.255360
N10   N     N_3   0.717733 0.765006 0.700255 -0.549306
H45   H     H_    0.733142 0.756789 0.752616 0.216381
H46   H     H_    0.779779 0.826882 0.678717 0.208549
N11   N     N_3   0.093596 0.444626 0.944228 -0.607564
H47   H     H_    0.155433 0.496542 0.911609 0.214175
H48   H     H_    0.044388 0.391426 0.903683 0.229394
N12   N     N_3   0.944436 0.608682 0.057897 -0.611475
H49   H     H_    0.910407 0.638944 0.032930 0.222619
H50   H     H_    0.002044 0.670610 0.086603 0.220094
C59   C     C_3   0.352511 0.180135 0.650046 -0.409582
C60   C     C_3   0.433363 0.289552 0.665733 -0.342099
C61   C     C_3   0.385590 0.367248 0.685974 -0.849583
H51   H     H_    0.354981 0.361686 0.632221 0.259526
H52   H     H_    0.322411 0.354230 0.740402 0.254139
H53   H     H_    0.444863 0.445003 0.700848 0.249726
H54   H     H_    0.466339 0.302431 0.720198 0.223772
H55   H     H_    0.495038 0.303566 0.610479 0.224474
H56   H     H_    0.301540 0.180449 0.613801 0.206728
H57   H     H_    0.304655 0.160145 0.709990 0.179255
C62   C     C_3   0.633543 0.818184 0.343361 -0.427541
C63   C     C_3   0.555865 0.716256 0.367357 -0.338645
C64   C     C_3   0.590760 0.630040 0.319315 -0.835338
H58   H     H_    0.605165 0.626052 0.251674 0.249667
H59   H     H_    0.661781 0.641433 0.337637 0.254520
H60   H     H_    0.529719 0.556793 0.332943 0.253903
H61   H     H_    0.547203 0.721942 0.434768 0.234206
H62   H     H_    0.479527 0.696332 0.353911 0.211250
H63   H     H_    0.642906 0.813587 0.276171 0.190211
H64   H     H_    0.707658 0.828525 0.354934 0.203010

loop_
_geom_bond_atom_site_label_1
_geom_bond_atom_site_label_2
_ccdc_geom_bond_type
C15   C18   A    
C53   C54   S    
C29   C33   A    
C64   H60   S    
C26   N2    A    
C2    C4    S    
C25   H2    S    
C4    C8    A    
C26   H1    S    
C56   C57   S    
C62   H63   S    
C39   C41   A    
Cu1   Cu2   S    
C21   C31   A    
C49   H6    S    
C22   C32   A    
C51   N12   S    
C35   C37   A    
N4    H20   S    
C37   N5    S    
C36   H4    S    
C40   C50   A    
C27   C29   A    
C45   C51   S    
C60   H55   S    
C57   H31   S    
C46   C52   S    
C33   C36   A    
N8    H41   S    
C6    H16   S    
C34   C35   A    
C45   C47   A    
N6    H37   S    
C5    H15   S    
C59   H57   S    
C24   C40   S    
C7    H14   S    
Cu2   O2    S    
C11   C15   A    
C24   O8    A    
Cu2   N1    S    
C12   C16   A    
C60   C61   S    
C53   H26   S    
C62   H64   S    
C61   H53   S    
N5    H35   S    
C25   N1    A    
C18   C56   S    
C32   C38   A    
C55   H22   S    
C5    C13   A    
C2    O2    A    
C56   H33   S    
C27   N8    S    
C40   C42   A    
N12   H49   S    
C41   C43   A    
C28   N2    A    
C42   C44   A    
C20   C62   S    
N3    H18   S    
C44   C46   A    
C43   H10   S    
C22   N10   S    
C54   H25   S    
N9    H44   S    
C44   H9    S    
C19   C59   S    
C46   C48   A    
C15   C16   A    
C30   C34   A    
C51   C52   D    
C1    O3    A    
C63   H62   S    
Cu1   O8    S    
C42   N4    S    
N4    H19   S    
C47   C49   A    
C5    C7    A    
C13   C19   A    
C16   C17   A    
C6    C8    A    
C60   H54   S    
N3    H17   S    
C31   C37   A    
C27   N1    A    
N7    H40   S    
C1    C3    S    
Cu1   O5    S    
C3    C9    A    
C14   C20   A    
C6    C14   A    
C61   H51   S    
C43   C45   A    
C48   H8    S    
C58   H28   S    
C52   N11   S    
C41   N3    S    
C53   H27   S    
C33   C34   A    
C23   O5    A    
C55   H23   S    
C48   C50   A    
C9    C11   A    
C10   C12   A    
C56   H34   S    
C24   O6    A    
C58   H29   S    
C12   C14   A    
N11   H47   S    
Cu1   O4    S    
C38   N6    S    
C50   H5    S    
C4    C10   A    
C59   C60   S    
C2    O4    A    
N11   H48   S    
N7    H39   S    
C10   H11   S    
C64   H59   S    
C21   C25   A    
C54   H24   S    
C39   C49   A    
C17   C53   S    
C63   H61   S    
Cu1   O1    S    
N12   H50   S    
C47   H7    S    
N9    H43   S    
C3    C7    A    
C35   H3    S    
C1    O1    A    
C28   C30   A    
N10   H45   S    
C29   C31   A    
C62   C63   S    
C9    H12   S    
C30   C32   A    
C11   C13   A    
N5    H36   S    
C23   C39   S    
C36   C38   A    
C17   C19   A    
N8    H42   S    
C18   C20   A    
N6    H38   S    
C59   H56   S    
C28   N7    S    
Cu2   O7    S    
Cu2   O3    S    
C58   H30   S    
C54   C55   S    
C8    H13   S    
C21   N9    S    
C57   C58   S    
C22   C26   A    
C61   H52   S    
C63   C64   S    
C23   O7    A    
C55   H21   S    
Cu1   N2    S    
N10   H46   S    
C57   H32   S    
C64   H58   S    
Cu2   O6    S    
