data_mof_unit_38902.cif
_audit_creation_date              2013-03-05T15:42:34-0500
_audit_creation_method            fapswitch 2.2
_symmetry_space_group_name_H-M    P1
_symmetry_Int_Tables_number       1
_space_group_crystal_system       triclinic
_cell_length_a                    10.946925
_cell_length_b                    10.937814
_cell_length_c                    9.757281
_cell_angle_alpha                 89.269246
_cell_angle_beta                  89.168994
_cell_angle_gamma                 90.08643
_cell_volume                      1168.07266767

loop_
_atom_site_label
_atom_site_type_symbol
_atom_site_description
_atom_site_fract_x
_atom_site_fract_y
_atom_site_fract_z
_atom_type_partial_charge
O1    O     O_R   0.500020 0.321960 0.617040 -0.640094
O2    O     O_R   0.499980 0.321920 0.382900 -0.520781
C1    C     C_R   0.497985 0.265468 0.500602 0.887239
O3    O     O_R   0.319670 0.500020 0.617100 -0.611016
O4    O     O_R   0.319630 0.499980 0.382950 -0.572306
C2    C     C_R   0.262557 0.499318 0.500476 0.826160
Cu1   Cu    Cu3+1 0.500020 0.500020 0.638630 0.952833
Cu2   Cu    Cu3+1 0.499980 0.499980 0.361370 1.037383
O5    O     O_R   0.500020 0.678080 0.617100 -0.595741
O6    O     O_R   0.499980 0.678040 0.382960 -0.574852
O7    O     O_R   0.680370 0.500020 0.617050 -0.598270
O8    O     O_R   0.680330 0.499980 0.382900 -0.553554
C3    C     C_R   0.506598 0.734101 0.499098 0.768888
C4    C     C_R   0.737381 0.498541 0.499309 0.905561
C5    C     C_R   0.123445 0.294026 0.624668 -0.127583
C6    C     C_R   0.064535 0.225466 0.728177 0.644371
C7    C     C_R   0.938924 0.233082 0.742144 -0.204033
H1    H     H_    0.892156 0.165101 0.805581 0.186080
C8    C     C_R   0.874430 0.303615 0.647804 -0.089736
C9    C     C_R   0.934697 0.399091 0.572734 -0.001620
C10   C     C_R   0.063917 0.397718 0.567380 0.029877
C11   C     C_R   0.128220 0.494317 0.498920 -0.182814
C12   C     C_R   0.063512 0.586443 0.427020 -0.161345
C13   C     C_R   0.935619 0.581282 0.424321 0.610811
C14   C     C_R   0.871183 0.490616 0.497644 -0.209157
C15   C     C_2   0.494000 0.934023 0.393681 -0.164877
C16   C     C_2   0.536917 0.863205 0.496321 -0.131177
H2    H     H_    0.441072 0.893361 0.312551 0.164162
C17   C     C_2   0.504768 0.067429 0.388966 0.019303
C18   C     C_2   0.495641 0.132788 0.503572 -0.266405
H3    H     H_    0.509077 0.112123 0.288968 0.193593
H4    H     H_    0.482609 0.088385 0.602849 0.123045
C19   C     C_2   0.412166 0.454545 0.926427 0.072415
N1    N     N_2   0.498640 0.498660 0.846910 -0.324999
H5    H     H_    0.551917 0.566349 0.887768 0.192433
C20   C     C_2   0.404253 0.484269 0.076595 -0.010106
N2    N     N_2   0.498610 0.498630 0.153040 -0.281869
H6    H     H_    0.314351 0.487885 0.124398 0.194085
C21   C     C_2   0.128858 0.691245 0.359058 0.494477
H7    H     H_    0.222580 0.712360 0.384478 0.025170
O9    O     O_2   0.079056 0.755791 0.273564 -0.431387
C22   C     C_2   0.320985 0.368020 0.874762 0.468586
H8    H     H_    0.334310 0.324453 0.777667 0.098534
O10   O     O_2   0.230592 0.341182 0.943656 -0.519636
C23   C     C_2   0.615569 0.459585 0.104029 0.611803
H9    H     H_    0.694161 0.518931 0.115111 0.075466
O11   O     O_2   0.629903 0.357401 0.057123 -0.549178
C24   C     C_2   0.222070 0.230799 0.550459 0.366001
H10   H     H_    0.275804 0.163029 0.604116 0.094683
O12   O     O_2   0.235855 0.244333 0.426742 -0.512875
F1    F     F_    0.123535 0.133556 0.794648 -0.637452
C25   C     C_2   0.763857 0.245656 0.597908 0.469716
H11   H     H_    0.699078 0.204645 0.670077 0.088057
O13   O     O_2   0.751375 0.232358 0.474804 -0.506040
F2    F     F_    0.871953 0.669951 0.357372 -0.611445
C26   C     C_2   0.628852 0.903807 0.596775 0.398441
H12   H     H_    0.629796 0.863487 0.698952 0.076628
O14   O     O_2   0.709188 0.976077 0.563386 -0.485455

loop_
_geom_bond_atom_site_label_1
_geom_bond_atom_site_label_2
_geom_bond_distance
_ccdc_geom_bond_type
C1    C18   1.451326 S    
Cu1   O7    1.982435 S    
C12   C13   1.401728 A    
C17   C18   1.337498 D    
O4    Cu2   1.982437 S    
C15   H2    1.087041 S    
C8    C9    1.423637 A    
C6    F1    1.358642 S    
Cu2   O8    1.988450 S    
Cu1   N1    2.031948 S    
C24   O12   1.221464 D    
C7    H1    1.084451 S    
O8    C4    1.304057 A    
Cu1   Cu2   2.705316 S    
C17   H3    1.086112 S    
O1    Cu1   1.961616 S    
C10   C11   1.422731 A    
C9    C10   1.414879 A    
C13   F2    1.360931 S    
C18   H4    1.085512 S    
C15   C16   1.348568 D    
C22   O10   1.221475 D    
C5    C24   1.469874 S    
O3    Cu1   1.988450 S    
C12   C21   1.493263 S    
C19   C22   1.473091 S    
O3    C2    1.306403 A    
C24   H10   1.081625 S    
C7    C8    1.394038 A    
C25   O13   1.221374 D    
C19   N1    1.303328 D    
O2    C1    1.296851 A    
C26   O14   1.219595 D    
C4    C14   1.467287 S    
O4    C2    1.297839 A    
O7    C4    1.299717 A    
O2    Cu2   1.956220 S    
C22   H8    1.074060 S    
N2    C23   1.428091 S    
C5    C6    1.399498 A    
C2    C11   1.471820 S    
Cu1   O5    1.956219 S    
C5    C10   1.421286 A    
C19   C20   1.506213 S    
C20   H6    1.083944 S    
C13   C14   1.399286 A    
C15   C17   1.463825 S    
C21   O9    1.221007 D    
N1    H5    1.029659 S    
Cu2   N2    2.033250 S    
C23   O11   1.222605 D    
C21   H7    1.084253 S    
C26   H12   1.085196 S    
O5    C3    1.298374 A    
C16   C26   1.486328 S    
C20   N2    1.293369 D    
C23   H9    1.084454 S    
C8    C25   1.458316 S    
O6    C3    1.298209 A    
Cu2   O6    1.961615 S    
C3    C16   1.449937 S    
C11   C12   1.416988 A    
C25   H11   1.084646 S    
C6    C7    1.382561 A    
O1    C1    1.300636 A    
C9    C14   1.421459 A    
