data_mof_unit_66477.cif
_audit_creation_date              2012-12-10T17:36:49-0500
_audit_creation_method            fapswitch 2.2
_symmetry_space_group_name_H-M    P1
_symmetry_Int_Tables_number       1
_space_group_crystal_system       triclinic
_cell_length_a                    21.441849
_cell_length_b                    21.446167
_cell_length_c                    55.800621
_cell_angle_alpha                 90.002256
_cell_angle_beta                  90.001989
_cell_angle_gamma                 89.994972
_cell_volume                      25659.6629038

loop_
_atom_site_label
_atom_site_type_symbol
_atom_type_description
_atom_site_fract_x
_atom_site_fract_y
_atom_site_fract_z
_atom_type_partial_charge
C1    C     C_R   0.120361 0.001332 0.500007 0.907852
C2    C     C_R   0.998595 0.120341 0.500007 0.908181
C3    C     C_R   0.879639 0.998667 0.500006 0.907860
C4    C     C_R   0.001407 0.879659 0.500006 0.908177
C5    C     C_R   0.620338 0.501414 0.000006 0.910400
C6    C     C_R   0.498598 0.620340 0.000006 0.907977
C7    C     C_R   0.379639 0.498668 0.000006 0.908137
C8    C     C_R   0.501403 0.379659 0.000006 0.910924
C9    C     C_3   0.940327 0.271862 0.502078 -0.168384
C10   C     C_3   0.728207 0.940356 0.502536 -0.161608
C11   C     C_3   0.059677 0.728138 0.502066 -0.168459
C12   C     C_3   0.271794 0.059642 0.502539 -0.161618
C13   C     C_3   0.440379 0.771863 0.002210 -0.168480
C14   C     C_3   0.228206 0.440337 0.002463 -0.162173
C15   C     C_3   0.559634 0.228138 0.002197 -0.167879
C16   C     C_3   0.771857 0.559636 0.002188 -0.167789
C17   C     C_3   0.974203 0.229878 0.520528 0.322562
C18   C     C_3   0.770363 0.974902 0.520747 0.321411
C19   C     C_3   0.025825 0.770126 0.520522 0.322510
C20   C     C_3   0.229641 0.025096 0.520749 0.321404
C21   C     C_3   0.474531 0.729870 0.020583 0.322605
C22   C     C_3   0.270360 0.474733 0.020716 0.321189
C23   C     C_3   0.525512 0.270132 0.020577 0.323712
C24   C     C_3   0.729867 0.525542 0.020574 0.323824
C25   C     C_3   0.998239 0.188477 0.500034 -0.220232
C26   C     C_3   0.811463 0.998329 0.500054 -0.229149
C27   C     C_3   0.001764 0.811523 0.500032 -0.220186
C28   C     C_3   0.188536 0.001670 0.500055 -0.229153
C29   C     C_3   0.498251 0.688475 0.000034 -0.220141
C30   C     C_3   0.311463 0.498331 0.000053 -0.229069
C31   C     C_3   0.501755 0.311524 0.000034 -0.219482
C32   C     C_3   0.688471 0.501770 0.000034 -0.219285
C33   C     C_R   0.500009 0.999991 0.376242 0.253078
C34   C     C_R   0.000009 0.500012 0.376206 0.253060
C35   C     C_R   0.000300 0.499820 0.876211 0.252846
C36   C     C_R   0.499988 0.000000 0.876199 0.252891
C37   C     C_R   0.465509 0.045697 0.388885 -0.036752
C38   C     C_R   0.953666 0.466387 0.388841 -0.036785
C39   C     C_R   0.534508 0.954289 0.388887 -0.036752
C40   C     C_R   0.046345 0.533638 0.388847 -0.036796
C41   C     C_R   0.966647 0.546209 0.888818 -0.038501
C42   C     C_R   0.453546 0.966520 0.888837 -0.036888
C43   C     C_R   0.033973 0.453578 0.888888 -0.034900
C44   C     C_R   0.546434 0.033480 0.888837 -0.036401
C45   C     C_R   0.000055 0.499848 0.622946 0.215797
C46   C     C_R   0.499995 0.000006 0.622940 0.215958
C47   C     C_R   0.500008 0.999985 0.122955 0.215728
C48   C     C_R   0.000063 0.500013 0.122943 0.215845
C49   C     C_R   0.981633 0.446106 0.584960 0.225533
C50   C     C_R   0.553989 0.982089 0.584969 0.225372
C51   C     C_R   0.018393 0.553751 0.584989 0.225522
C52   C     C_R   0.446007 0.017920 0.584967 0.225374
C53   C     C_R   0.482171 0.945992 0.084977 0.225312
C54   C     C_R   0.053998 0.482014 0.084965 0.225530
C55   C     C_R   0.517843 0.053991 0.084981 0.225287
C56   C     C_R   0.946072 0.518005 0.084976 0.225159
C57   C     C_R   0.000001 0.499995 0.546098 0.948211
C58   C     C_R   0.500000 0.000001 0.546095 0.952946
C59   C     C_R   0.500001 1.000000 0.046099 0.948092
C60   C     C_R   0.000004 0.500001 0.046096 0.950702
C61   C     C_R   0.000056 0.379847 0.500067 0.924177
C62   C     C_R   0.620150 0.000043 0.500155 0.884113
C63   C     C_R   0.999944 0.620153 0.500066 0.924082
C64   C     C_R   0.379850 0.999957 0.500155 0.884121
C65   C     C_R   0.500060 0.879846 0.000071 0.924565
C66   C     C_R   0.120150 0.500043 0.000154 0.881724
C67   C     C_R   0.499942 0.120154 0.000070 0.924617
C68   C     C_R   0.879851 0.499945 0.000070 0.926950
C69   C     C_R   0.999999 0.500002 0.453688 0.772367
C70   C     C_R   0.500001 0.999999 0.453699 0.707834
C71   C     C_R   0.499999 1.000000 0.953686 0.773491
C72   C     C_R   0.000067 0.500006 0.953691 0.740541
C73   C     C_R   0.500004 0.999996 0.426985 -0.123800
C74   C     C_R   0.999999 0.500008 0.426958 -0.097461
C75   C     C_R   0.000198 0.500010 0.926963 -0.111503
C76   C     C_R   0.499996 0.999999 0.926954 -0.097477
C77   C     C_R   0.055603 0.512372 0.736906 0.096290
C78   C     C_R   0.486940 0.055327 0.736903 0.096259
C79   C     C_R   0.944791 0.486888 0.736916 0.096193
C80   C     C_R   0.513027 0.944681 0.736901 0.096251
C81   C     C_R   0.555195 0.013651 0.236932 0.096199
C82   C     C_R   0.986865 0.555305 0.236908 0.096233
C83   C     C_R   0.444826 0.986306 0.236930 0.096202
C84   C     C_R   0.013278 0.444734 0.236907 0.096228
C85   C     C_R   0.000183 0.499649 0.724238 0.077718
C86   C     C_R   0.499985 0.000004 0.724228 0.077801
C87   C     C_R   0.500010 0.999978 0.224257 0.077703
C88   C     C_R   0.000075 0.500020 0.224234 0.077802
C89   C     C_R   0.106293 0.537410 0.724105 -0.188484
C90   C     C_R   0.461607 0.105875 0.724108 -0.188602
C91   C     C_R   0.894080 0.461875 0.724119 -0.188600
C92   C     C_R   0.538361 0.894132 0.724106 -0.188641
C93   C     C_R   0.605472 0.039505 0.224130 -0.188530
C94   C     C_R   0.961400 0.605783 0.224110 -0.188640
C95   C     C_R   0.394549 0.960451 0.224126 -0.188524
C96   C     C_R   0.038753 0.394258 0.224111 -0.188655
C97   C     C_R   0.106413 0.540657 0.699090 -0.014111
C98   C     C_R   0.458361 0.105994 0.699092 -0.014060
C99   C     C_R   0.893902 0.458712 0.699102 -0.014013
C100  C     C_R   0.541613 0.894015 0.699090 -0.014046
C101  C     C_R   0.605581 0.042668 0.199112 -0.014021
C102  C     C_R   0.958186 0.605901 0.199094 -0.014029
C103  C     C_R   0.394440 0.957288 0.199108 -0.014051
C104  C     C_R   0.041980 0.394141 0.199094 -0.014005
C105  C     C_R   0.054580 0.517141 0.686101 -0.029974
C106  C     C_R   0.482213 0.054328 0.686098 -0.029948
C107  C     C_R   0.945698 0.482285 0.686109 -0.029959
C108  C     C_R   0.517764 0.945682 0.686097 -0.029944
C109  C     C_R   0.554163 0.018264 0.186123 -0.029943
C110  C     C_R   0.982186 0.554300 0.186103 -0.029934
C111  C     C_R   0.445857 0.981693 0.186121 -0.029948
C112  C     C_R   0.017983 0.445741 0.186103 -0.029920
C113  C     C_R   0.000154 0.499691 0.698801 -0.074876
C114  C     C_R   0.499987 0.000004 0.698792 -0.074820
C115  C     C_R   0.500010 0.999978 0.198819 -0.075031
C116  C     C_R   0.000082 0.500020 0.198798 -0.074937
C117  C     C_R   0.463457 0.044143 0.414247 -0.114140
C118  C     C_R   0.955126 0.464354 0.414203 -0.104432
C119  C     C_R   0.536556 0.955848 0.414249 -0.114145
C120  C     C_R   0.044874 0.535667 0.414209 -0.104447
C121  C     C_R   0.964516 0.544800 0.914179 -0.098990
C122  C     C_R   0.455016 0.964474 0.914199 -0.104434
C123  C     C_R   0.036040 0.455220 0.914249 -0.118630
C124  C     C_R   0.544972 0.035523 0.914200 -0.103183
C125  C     C_R   0.054757 0.509598 0.660958 0.666702
C126  C     C_R   0.489788 0.054581 0.660957 0.666766
C127  C     C_R   0.945454 0.489931 0.660972 0.666720
C128  C     C_R   0.510194 0.945430 0.660956 0.666775
C129  C     C_R   0.554503 0.010637 0.160984 0.666575
C130  C     C_R   0.989785 0.554574 0.160964 0.666663
C131  C     C_R   0.445516 0.989323 0.160982 0.666575
C132  C     C_R   0.010384 0.445463 0.160963 0.666701
C133  C     C_R   0.557211 0.004507 0.262223 0.007471
C134  C     C_R   0.996065 0.557244 0.262196 0.007351
C135  C     C_R   0.442809 0.995453 0.262221 0.007469
C136  C     C_R   0.004057 0.442792 0.262193 0.007351
C137  C     C_R   0.057490 0.503149 0.762193 0.007407
C138  C     C_R   0.496165 0.057241 0.762189 0.007315
C139  C     C_R   0.942950 0.496064 0.762206 0.007445
C140  C     C_R   0.503797 0.942765 0.762187 0.007335
C141  C     C_R   0.500010 0.999981 0.274915 0.040202
C142  C     C_R   0.000054 0.500017 0.274889 0.040299
C143  C     C_R   0.000232 0.499603 0.774892 0.040175
C144  C     C_R   0.499981 0.000003 0.774882 0.040245
C145  C     C_R   0.984888 0.444579 0.610184 -0.083501
C146  C     C_R   0.555430 0.985312 0.610195 -0.083237
C147  C     C_R   0.015189 0.555172 0.610215 -0.083519
C148  C     C_R   0.444562 0.014700 0.610193 -0.083243
C149  C     C_R   0.485474 0.944528 0.110202 -0.083442
C150  C     C_R   0.055475 0.485275 0.110190 -0.083588
C151  C     C_R   0.514542 0.055446 0.110206 -0.083407
C152  C     C_R   0.944633 0.514748 0.110201 -0.083080
C153  C     C_R   0.385909 0.001220 0.275222 -0.114159
C154  C     C_R   0.997706 0.385956 0.275185 -0.114219
C155  C     C_R   0.614110 0.998741 0.275226 -0.114162
C156  C     C_R   0.002403 0.614077 0.275191 -0.114225
C157  C     C_R   0.886168 0.502813 0.775213 -0.113968
C158  C     C_R   0.497264 0.885950 0.775178 -0.114194
C159  C     C_R   0.114295 0.496377 0.775183 -0.114165
C160  C     C_R   0.502696 0.114056 0.775182 -0.114046
C161  C     C_R   0.385980 0.995651 0.300400 0.344285
C162  C     C_R   0.003165 0.385960 0.300366 0.343935
C163  C     C_R   0.614039 0.004314 0.300404 0.344284
C164  C     C_R   0.996918 0.614071 0.300371 0.343935
C165  C     C_R   0.886165 0.497264 0.800391 0.343916
C166  C     C_R   0.502721 0.885936 0.800359 0.343923
C167  C     C_R   0.114347 0.501927 0.800362 0.344248
C168  C     C_R   0.497238 0.114069 0.800363 0.343889
C169  C     C_R   0.443272 0.993063 0.313039 -0.070479
C170  C     C_R   0.006314 0.443205 0.313011 -0.071116
C171  C     C_R   0.556747 0.006905 0.313041 -0.070478
C172  C     C_R   0.993756 0.556824 0.313013 -0.071112
C173  C     C_R   0.943416 0.493695 0.813022 -0.071311
C174  C     C_R   0.506066 0.943171 0.813004 -0.071134
C175  C     C_R   0.057122 0.505536 0.813006 -0.070112
C176  C     C_R   0.493894 0.056833 0.813006 -0.071076
C177  C     C_R   0.500010 0.999983 0.300310 -0.132590
C178  C     C_R   0.000042 0.500015 0.300283 -0.132061
C179  C     C_R   0.000256 0.499608 0.800286 -0.132465
C180  C     C_R   0.499980 0.000002 0.800277 -0.132133
C181  C     C_R   0.553841 0.013406 0.338235 0.672970
C182  C     C_R   0.987281 0.554004 0.338209 0.673309
C183  C     C_R   0.446177 0.986567 0.338234 0.672974
C184  C     C_R   0.012763 0.446021 0.338209 0.673319
C185  C     C_R   0.054356 0.512123 0.838198 0.672517
C186  C     C_R   0.487426 0.054037 0.838203 0.673375
C187  C     C_R   0.946231 0.487196 0.838217 0.673588
C188  C     C_R   0.512538 0.945966 0.838201 0.673315
C189  C     C_R   0.000004 0.499953 0.572441 -0.132573
C190  C     C_R   0.499999 0.000004 0.572437 -0.135470
C191  C     C_R   0.500004 0.999995 0.072444 -0.132633
C192  C     C_R   0.000024 0.500005 0.072438 -0.134045
C193  C     C_3   0.057483 0.228354 0.498027 0.234042
C194  C     C_3   0.771447 0.057501 0.497860 0.292308
C195  C     C_3   0.942516 0.771647 0.498034 0.234075
C196  C     C_3   0.228552 0.942498 0.497859 0.292302
C197  C     C_3   0.557468 0.728344 0.997896 0.233630
C198  C     C_3   0.271445 0.557519 0.997930 0.292434
C199  C     C_3   0.442537 0.271651 0.997909 0.232975
C200  C     C_3   0.728352 0.442557 0.997918 0.232832
C201  C     C_3   0.033478 0.270005 0.518578 -0.136062
C202  C     C_3   0.730123 0.034066 0.518600 -0.138029
C203  C     C_3   0.966548 0.729999 0.518581 -0.136143
C204  C     C_3   0.269881 0.965933 0.518601 -0.138013
C205  C     C_3   0.533780 0.769990 0.018503 -0.135950
C206  C     C_3   0.230118 0.533913 0.018641 -0.137766
C207  C     C_3   0.466262 0.230010 0.018510 -0.137015
C208  C     C_3   0.770001 0.466298 0.018516 -0.136877
C209  C     C_3   0.000266 0.311674 0.500083 -0.171232
C210  C     C_3   0.688328 0.000172 0.500347 -0.195543
C211  C     C_3   0.999735 0.688326 0.500081 -0.171264
C212  C     C_3   0.311672 0.999827 0.500348 -0.195527
C213  C     C_3   0.500288 0.811672 0.000086 -0.171148
C214  C     C_3   0.188327 0.500170 0.000345 -0.194159
C215  C     C_3   0.499720 0.188327 0.000085 -0.171673
C216  C     C_3   0.811679 0.499731 0.000085 -0.173147
C217  C     C_3   0.024390 0.270316 0.479544 -0.142746
C218  C     C_3   0.729289 0.023698 0.479634 -0.138931
C219  C     C_3   0.975586 0.729680 0.479546 -0.142733
C220  C     C_3   0.270707 0.976301 0.479635 -0.138935
C221  C     C_3   0.524102 0.770321 0.979492 -0.142267
C222  C     C_3   0.229291 0.523867 0.979662 -0.138610
C223  C     C_3   0.475873 0.229675 0.979496 -0.141649
C224  C     C_3   0.770325 0.475867 0.979500 -0.141856
C225  C     C_3   0.965171 0.230095 0.481571 0.301242
C226  C     C_3   0.769615 0.964569 0.481822 0.289794
C227  C     C_3   0.034809 0.769902 0.481563 0.301257
C228  C     C_3   0.230382 0.035430 0.481825 0.289803
C229  C     C_3   0.464912 0.730102 0.981646 0.301397
C230  C     C_3   0.269616 0.464721 0.981780 0.289672
C231  C     C_3   0.535066 0.269897 0.981639 0.303571
C232  C     C_3   0.730092 0.535053 0.981633 0.303746
Cu1   Cu    Cu3+1 1.000000 1.000000 0.476100 1.192517
Cu2   Cu    Cu3+1 0.500000 0.500000 0.976100 1.188477
Cu3   Cu    Cu3+1 0.000000 0.000000 0.523900 1.181753
Cu4   Cu    Cu3+1 0.500000 0.500000 0.023900 1.182256
Cu5   Cu    Cu3+1 0.937240 0.500030 0.499980 1.147564
Cu6   Cu    Cu3+1 0.499970 0.937240 0.499980 1.146117
Cu7   Cu    Cu3+1 0.062760 0.499970 0.499980 1.147546
Cu8   Cu    Cu3+1 0.500030 0.062760 0.499980 1.146118
Cu9   Cu    Cu3+1 0.437240 0.000030 0.999980 1.147064
Cu10  Cu    Cu3+1 0.999970 0.437240 0.999980 1.144983
Cu11  Cu    Cu3+1 0.562760 0.999970 0.999980 1.145987
Cu12  Cu    Cu3+1 0.000030 0.562760 0.999980 1.146630
H1    H     H_    0.145213 0.557828 0.733646 0.127780
H2    H     H_    0.440960 0.144664 0.733653 0.127691
H3    H     H_    0.855186 0.441418 0.733661 0.127683
H4    H     H_    0.559006 0.855343 0.733652 0.127676
H5    H     H_    0.644027 0.060610 0.233668 0.127802
H6    H     H_    0.940628 0.644509 0.233653 0.127708
H7    H     H_    0.355994 0.939346 0.233663 0.127803
H8    H     H_    0.059521 0.355532 0.233655 0.127711
H9    H     H_    0.891954 0.289802 0.503758 0.230224
H10   H     H_    0.710276 0.892066 0.504501 0.231247
H11   H     H_    0.108052 0.710198 0.503739 0.230210
H12   H     H_    0.289724 0.107933 0.504506 0.231243
H13   H     H_    0.392034 0.789804 0.004000 0.230162
H14   H     H_    0.210277 0.392030 0.004368 0.230970
H15   H     H_    0.607982 0.210197 0.003975 0.229530
H16   H     H_    0.789799 0.607974 0.003959 0.229690
N1    N     N_R   0.500009 0.999988 0.350276 -0.452730
N2    N     N_R   0.000017 0.500012 0.350244 -0.453086
N3    N     N_R   0.000301 0.499694 0.850248 -0.452787
N4    N     N_R   0.499984 0.000001 0.850238 -0.452977
N5    N     N_R   0.000089 0.499792 0.648887 -0.429895
N6    N     N_R   0.499992 0.000006 0.648880 -0.429953
N7    N     N_R   0.500009 0.999981 0.148900 -0.429878
N8    N     N_R   0.000081 0.500017 0.148885 -0.429916
O1    O     O_R   0.091590 0.000030 0.479820 -0.544819
O2    O     O_R   0.999970 0.091590 0.479820 -0.549158
O3    O     O_R   0.908410 0.999970 0.479820 -0.544826
O4    O     O_R   0.000030 0.908410 0.479820 -0.549160
O5    O     O_R   0.591590 0.500030 0.979820 -0.549808
O6    O     O_R   0.499970 0.591590 0.979820 -0.549370
O7    O     O_R   0.408410 0.499970 0.979820 -0.544573
O8    O     O_R   0.500030 0.408410 0.979820 -0.549545
O9    O     O_R   0.091560 0.000060 0.520180 -0.556393
O10   O     O_R   0.999940 0.091560 0.520180 -0.554992
O11   O     O_R   0.908440 0.999940 0.520180 -0.556389
O12   O     O_R   0.000060 0.908440 0.520180 -0.554988
O13   O     O_R   0.591560 0.500060 0.020180 -0.554794
O14   O     O_R   0.499940 0.591560 0.020180 -0.555105
O15   O     O_R   0.408440 0.499940 0.020180 -0.556552
O16   O     O_R   0.500060 0.408440 0.020180 -0.554595
O17   O     O_2   0.603807 0.033119 0.350781 -0.445827
O18   O     O_2   0.968255 0.604211 0.350765 -0.443015
O19   O     O_2   0.396212 0.966857 0.350778 -0.445823
O20   O     O_2   0.031776 0.395813 0.350766 -0.443018
O21   O     O_2   0.104676 0.530966 0.850733 -0.446700
O22   O     O_2   0.468581 0.104309 0.850761 -0.443326
O23   O     O_2   0.895937 0.468399 0.850776 -0.443001
O24   O     O_2   0.531385 0.895692 0.850757 -0.443140
O25   O     O_R   0.947000 0.500060 0.534840 -0.544193
O26   O     O_R   0.499940 0.947000 0.534840 -0.541189
O27   O     O_R   0.053000 0.499940 0.534840 -0.544233
O28   O     O_R   0.500060 0.053000 0.534840 -0.541197
O29   O     O_R   0.447000 0.000060 0.034840 -0.544411
O30   O     O_R   0.999940 0.447000 0.034840 -0.543355
O31   O     O_R   0.553000 0.999940 0.034840 -0.544545
O32   O     O_R   0.000060 0.553000 0.034840 -0.542196
O33   O     O_R   0.947010 0.408460 0.499980 -0.597354
O34   O     O_R   0.591540 0.947010 0.499980 -0.592441
O35   O     O_R   0.052990 0.591540 0.499980 -0.597394
O36   O     O_R   0.408460 0.052990 0.499980 -0.592438
O37   O     O_R   0.447010 0.908460 0.999980 -0.597524
O38   O     O_R   0.091540 0.447010 0.999980 -0.594627
O39   O     O_R   0.552990 0.091540 0.999980 -0.598036
O40   O     O_R   0.908460 0.552990 0.999980 -0.595823
O41   O     O_R   0.053010 0.408470 0.499960 -0.524165
O42   O     O_R   0.591530 0.053010 0.499960 -0.520307
O43   O     O_R   0.946990 0.591530 0.499960 -0.524149
O44   O     O_R   0.408470 0.946990 0.499960 -0.520310
O45   O     O_R   0.553010 0.908470 0.999960 -0.524116
O46   O     O_R   0.091530 0.553010 0.999960 -0.521148
O47   O     O_R   0.446990 0.091530 0.999960 -0.523973
O48   O     O_R   0.908470 0.446990 0.999960 -0.523198
O49   O     O_R   0.946990 0.500000 0.465110 -0.569489
O50   O     O_R   0.500000 0.946990 0.465110 -0.569362
O51   O     O_R   0.053010 0.500000 0.465110 -0.569477
O52   O     O_R   0.500000 0.053010 0.465110 -0.569347
O53   O     O_R   0.446990 1.000000 0.965110 -0.569635
O54   O     O_R   1.000000 0.446990 0.965110 -0.560406
O55   O     O_R   0.553010 1.000000 0.965110 -0.569697
O56   O     O_R   1.000000 0.553010 0.965110 -0.578884
O57   O     O_2   0.108803 0.510794 0.648618 -0.475679
O58   O     O_2   0.488235 0.108618 0.648624 -0.475588
O59   O     O_2   0.891375 0.488782 0.648650 -0.475679
O60   O     O_2   0.511749 0.891393 0.648621 -0.475575
O61   O     O_2   0.608553 0.012596 0.148660 -0.475897
O62   O     O_2   0.988157 0.608614 0.148634 -0.475681
O63   O     O_2   0.391466 0.987364 0.148657 -0.475859
O64   O     O_2   0.012014 0.391421 0.148634 -0.475841
Cl1   Cl    Cl    0.313631 0.001600 0.315815 -0.480787
Cl2   Cl    Cl    0.996414 0.313673 0.315766 -0.479653
Cl3   Cl    Cl    0.686388 0.998366 0.315821 -0.480786
Cl4   Cl    Cl    0.003655 0.686355 0.315776 -0.479649
Cl5   Cl    Cl    0.813941 0.504473 0.815814 -0.481048
Cl6   Cl    Cl    0.495723 0.813674 0.815759 -0.479986
Cl7   Cl    Cl    0.186591 0.494676 0.815769 -0.481233
Cl8   Cl    Cl    0.504231 0.186330 0.815766 -0.480931
Cl9   Cl    Cl    0.939536 0.203928 0.547793 -0.463106
Cl10  Cl    Cl    0.796616 0.941120 0.548136 -0.459968
Cl11  Cl    Cl    0.060526 0.796080 0.547781 -0.463073
Cl12  Cl    Cl    0.203392 0.058878 0.548139 -0.459994
Cl13  Cl    Cl    0.440267 0.703936 0.047925 -0.462842
Cl14  Cl    Cl    0.296622 0.440730 0.048064 -0.460623
Cl15  Cl    Cl    0.559819 0.296074 0.047912 -0.460867
Cl16  Cl    Cl    0.703916 0.559874 0.047903 -0.460835
C233  C     C_2   0.422024 0.087567 0.427700 0.427433
H17   H     H_    0.394838 0.070404 0.442733 0.066889
O65   O     O_2   0.419759 0.142989 0.422775 -0.479630
C234  C     C_2   0.910775 0.423843 0.427616 0.433692
H18   H     H_    0.927321 0.396113 0.442602 0.102362
O66   O     O_2   0.855293 0.422945 0.422704 -0.484179
C235  C     C_2   0.577993 0.912433 0.427704 0.427443
H19   H     H_    0.605163 0.929600 0.442742 0.066882
O67   O     O_2   0.580278 0.857013 0.422776 -0.479648
C236  C     C_2   0.089215 0.576181 0.427628 0.433698
H20   H     H_    0.072658 0.603910 0.442613 0.102316
O68   O     O_2   0.144700 0.577083 0.422722 -0.484171
C237  C     C_2   0.923915 0.589143 0.927561 0.434467
H21   H     H_    0.896163 0.572616 0.942544 0.105367
O69   O     O_2   0.922969 0.644600 0.922630 -0.487238
C238  C     C_2   0.410557 0.924076 0.927609 0.433453
H22   H     H_    0.427042 0.896249 0.942578 0.102745
O70   O     O_2   0.355063 0.923381 0.922714 -0.484489
C239  C     C_2   0.076845 0.411233 0.927710 0.425140
H23   H     H_    0.104499 0.428097 0.942668 0.065102
O71   O     O_2   0.078073 0.355723 0.922875 -0.479613
C240  C     C_2   0.589437 0.075917 0.927610 0.431507
H24   H     H_    0.572957 0.103751 0.942579 0.102689
O72   O     O_2   0.644932 0.076603 0.922716 -0.486726
C241  C     C_2   0.159634 0.573841 0.687903 0.510806
H25   H     H_    0.205769 0.570117 0.695790 0.071044
O73   O     O_2   0.151853 0.609013 0.670958 -0.461575
C242  C     C_2   0.424840 0.159009 0.687909 0.510795
H26   H     H_    0.428270 0.205150 0.695803 0.071013
O74   O     O_2   0.389716 0.151028 0.670961 -0.461521
C243  C     C_2   0.840660 0.425558 0.687913 0.510742
H27   H     H_    0.794545 0.429235 0.695820 0.071034
O75   O     O_2   0.848406 0.390458 0.670943 -0.461603
C244  C     C_2   0.575135 0.841000 0.687907 0.510800
H28   H     H_    0.571704 0.794859 0.695799 0.071034
O76   O     O_2   0.610263 0.848982 0.670961 -0.461528
C245  C     C_2   0.658259 0.076695 0.187919 0.510774
H29   H     H_    0.704429 0.073803 0.195828 0.071167
O77   O     O_2   0.649928 0.111634 0.170941 -0.461698
C246  C     C_2   0.924534 0.658825 0.187906 0.510782
H30   H     H_    0.927806 0.704969 0.195807 0.071123
O78   O     O_2   0.889475 0.650756 0.170944 -0.461620
C247  C     C_2   0.341762 0.923261 0.187912 0.510819
H31   H     H_    0.295593 0.926151 0.195821 0.071176
O79   O     O_2   0.350093 0.888323 0.170934 -0.461642
C248  C     C_2   0.075639 0.341219 0.187908 0.510732
H32   H     H_    0.072371 0.295076 0.195808 0.071106
O80   O     O_2   0.110699 0.349289 0.170947 -0.461635
C249  C     C_2   0.429876 0.094017 0.375468 0.537221
H33   H     H_    0.384439 0.109067 0.381747 0.121052
O81   O     O_2   0.451424 0.118312 0.357494 -0.498330
C250  C     C_2   0.904745 0.431598 0.375412 0.538162
H34   H     H_    0.888794 0.386510 0.381724 0.124229
O82   O     O_2   0.880950 0.453475 0.357396 -0.499086
C251  C     C_2   0.570144 0.905969 0.375471 0.537234
H35   H     H_    0.615584 0.890927 0.381751 0.121073
O83   O     O_2   0.548597 0.881665 0.357497 -0.498325
C252  C     C_2   0.095272 0.568430 0.375424 0.538159
H36   H     H_    0.111215 0.613519 0.381740 0.124239
O84   O     O_2   0.119080 0.546553 0.357411 -0.499091
C253  C     C_2   0.931947 0.595132 0.875359 0.537301
H37   H     H_    0.886802 0.611080 0.881623 0.123586
O85   O     O_2   0.953966 0.618928 0.857370 -0.499257
C254  C     C_2   0.404504 0.931892 0.875412 0.538021
H38   H     H_    0.388415 0.886853 0.881722 0.124100
O86   O     O_2   0.380765 0.953854 0.857400 -0.499218
C255  C     C_2   0.068747 0.404568 0.875505 0.537381
H39   H     H_    0.113905 0.388737 0.881798 0.120768
O87   O     O_2   0.046778 0.380576 0.857545 -0.498672
C256  C     C_2   0.595474 0.068106 0.875413 0.537273
H40   H     H_    0.611574 0.113140 0.881727 0.123136
O88   O     O_2   0.619201 0.046149 0.857398 -0.499573
C257  C     C_2   0.973515 0.384624 0.622911 0.556371
H41   H     H_    0.943262 0.349504 0.615162 0.150193
O89   O     O_2   0.999321 0.372781 0.641877 -0.510359
C258  C     C_2   0.615456 0.974390 0.622943 0.556164
H42   H     H_    0.650862 0.944471 0.615190 0.150162
O90   O     O_2   0.627029 0.000209 0.641930 -0.510353
C259  C     C_2   0.026590 0.615074 0.622978 0.556365
H43   H     H_    0.056818 0.650230 0.615241 0.150158
O91   O     O_2   0.000832 0.626832 0.641961 -0.510345
C260  C     C_2   0.384533 0.025622 0.622937 0.556181
H44   H     H_    0.349129 0.055543 0.615184 0.150164
O92   O     O_2   0.372957 0.999804 0.641923 -0.510328
C261  C     C_2   0.474832 0.884453 0.122937 0.556708
H45   H     H_    0.444965 0.848981 0.115204 0.150324
O93   O     O_2   0.500840 0.872918 0.141890 -0.510292
C262  C     C_2   0.115516 0.474360 0.122928 0.556322
H46   H     H_    0.150891 0.444393 0.115181 0.150096
O94   O     O_2   0.127136 0.500242 0.141898 -0.510269
C263  C     C_2   0.525186 0.115517 0.122947 0.556646
H47   H     H_    0.555055 0.150991 0.115217 0.150281
O95   O     O_2   0.499178 0.127046 0.141900 -0.510299
C264  C     C_2   0.884610 0.525667 0.122950 0.556345
H48   H     H_    0.849228 0.555640 0.115212 0.150291
O96   O     O_2   0.873013 0.499780 0.141920 -0.510405
Cl17  Cl    Cl    0.957396 0.379396 0.568675 -0.557919
Cl18  Cl    Cl    0.620945 0.958446 0.568699 -0.556513
Cl19  Cl    Cl    0.042584 0.620530 0.568740 -0.557743
Cl20  Cl    Cl    0.379054 0.041564 0.568694 -0.556534
Cl21  Cl    Cl    0.458508 0.879058 0.068708 -0.558588
Cl22  Cl    Cl    0.120895 0.458226 0.068691 -0.556457
Cl23  Cl    Cl    0.541517 0.120927 0.068719 -0.558916
Cl24  Cl    Cl    0.879157 0.541808 0.068715 -0.558829
C265  C     C_2   0.327419 0.022510 0.263371 0.438535
H49   H     H_    0.282472 0.004620 0.269039 0.133604
O97   O     O_2   0.328947 0.061900 0.247573 -0.491280
C266  C     C_2   0.975940 0.327686 0.263311 0.438818
H50   H     H_    0.993422 0.282584 0.268981 0.133404
O98   O     O_2   0.936610 0.329585 0.247493 -0.491160
C267  C     C_2   0.672601 0.977449 0.263375 0.438539
H51   H     H_    0.717548 0.995339 0.269046 0.133603
O99   O     O_2   0.671073 0.938057 0.247577 -0.491275
C268  C     C_2   0.024183 0.672349 0.263323 0.438825
H52   H     H_    0.006698 0.717450 0.268993 0.133407
O100  O     O_2   0.063527 0.670450 0.247511 -0.491152
C269  C     C_2   0.828039 0.525090 0.763365 0.438474
H53   H     H_    0.782798 0.507977 0.769042 0.133351
O101  O     O_2   0.830228 0.564436 0.747562 -0.491200
C270  C     C_2   0.475314 0.827749 0.763302 0.438773
H54   H     H_    0.492641 0.782591 0.768976 0.133314
O102  O     O_2   0.436003 0.829775 0.747479 -0.491074
C271  C     C_2   0.172394 0.474088 0.763318 0.438366
H55   H     H_    0.217654 0.491160 0.768992 0.133494
O103  O     O_2   0.170160 0.434778 0.747501 -0.491328
C272  C     C_2   0.524645 0.172258 0.763310 0.438517
H56   H     H_    0.507314 0.217415 0.768984 0.133316
O104  O     O_2   0.563959 0.170235 0.747489 -0.491216
C273  C     C_2   0.073091 0.288843 0.539492 0.598266
H57   H     H_    0.090679 0.253354 0.551574 0.113606
O105  O     O_2   0.086123 0.343435 0.542994 -0.494865
C274  C     C_2   0.711351 0.074240 0.539361 0.602519
H58   H     H_    0.746909 0.092382 0.551292 0.108931
O106  O     O_2   0.656724 0.087104 0.542904 -0.488532
C275  C     C_2   0.926963 0.711162 0.539501 0.598313
H59   H     H_    0.909388 0.746652 0.551586 0.113621
O107  O     O_2   0.913939 0.656570 0.543005 -0.494836
C276  C     C_2   0.288656 0.925757 0.539359 0.602525
H60   H     H_    0.253100 0.907616 0.551290 0.108944
O108  O     O_2   0.343284 0.912893 0.542902 -0.488532
C277  C     C_2   0.573734 0.788774 0.039329 0.598761
H61   H     H_    0.591460 0.753259 0.051370 0.113581
O109  O     O_2   0.586893 0.843347 0.042803 -0.494345
C278  C     C_2   0.211333 0.573933 0.039443 0.602507
H62   H     H_    0.246874 0.591906 0.051419 0.108731
O110  O     O_2   0.156715 0.586869 0.042967 -0.488478
C279  C     C_2   0.426341 0.211226 0.039344 0.598778
H63   H     H_    0.408653 0.246740 0.051394 0.113463
O111  O     O_2   0.413164 0.156656 0.042813 -0.494272
C280  C     C_2   0.788806 0.426423 0.039359 0.598510
H64   H     H_    0.753288 0.408694 0.051398 0.113576
O112  O     O_2   0.843402 0.413335 0.042851 -0.494701
Cl25  Cl    Cl    0.134868 0.198605 0.495544 -0.507654
Cl26  Cl    Cl    0.801228 0.134750 0.494928 -0.470504
Cl27  Cl    Cl    0.865129 0.801397 0.495562 -0.507668
Cl28  Cl    Cl    0.198768 0.865250 0.494924 -0.470513
Cl29  Cl    Cl    0.634801 0.698561 0.995225 -0.509485
Cl30  Cl    Cl    0.301208 0.634799 0.995102 -0.470471
Cl31  Cl    Cl    0.365189 0.301404 0.995267 -0.507973
Cl32  Cl    Cl    0.698568 0.365236 0.995276 -0.509818
C281  C     C_2   0.052479 0.290678 0.456232 0.523263
H65   H     H_    0.068409 0.255858 0.443539 0.137796
O113  O     O_2   0.057450 0.345898 0.451358 -0.550585
C282  C     C_2   0.705530 0.050642 0.456626 0.486616
H66   H     H_    0.714535 0.026994 0.439802 0.100877
O114  O     O_2   0.675407 0.098899 0.456740 -0.452099
C283  C     C_2   0.947467 0.709315 0.456238 0.523251
H67   H     H_    0.931528 0.744133 0.443546 0.137797
O115  O     O_2   0.942483 0.654094 0.451366 -0.550524
C284  C     C_2   0.294462 0.949357 0.456625 0.486616
H68   H     H_    0.285452 0.973004 0.439802 0.100883
O116  O     O_2   0.324584 0.901100 0.456739 -0.452107
C285  C     C_2   0.551854 0.790703 0.956123 0.522733
H69   H     H_    0.567536 0.755894 0.943379 0.137643
O117  O     O_2   0.556833 0.845929 0.951260 -0.551175
C286  C     C_2   0.205540 0.551004 0.956686 0.485434
H70   H     H_    0.214522 0.527478 0.939835 0.101234
O118  O     O_2   0.175450 0.599280 0.956858 -0.452910
C287  C     C_2   0.448084 0.209292 0.956133 0.522873
H71   H     H_    0.432372 0.244100 0.943395 0.137666
O119  O     O_2   0.443109 0.154066 0.951267 -0.551248
C288  C     C_2   0.790710 0.448056 0.956140 0.523177
H72   H     H_    0.755893 0.432347 0.943404 0.137342
O120  O     O_2   0.845946 0.443059 0.951278 -0.548447
Cl33  Cl    Cl    0.919385 0.204060 0.456867 -0.462857
Cl34  Cl    Cl    0.795668 0.918005 0.457337 -0.484757
Cl35  Cl    Cl    0.080567 0.795932 0.456854 -0.462885
Cl36  Cl    Cl    0.204325 0.081992 0.457340 -0.484728
Cl37  Cl    Cl    0.418793 0.704072 0.957034 -0.463077
Cl38  Cl    Cl    0.295662 0.418358 0.957237 -0.485247
Cl39  Cl    Cl    0.581160 0.295935 0.957022 -0.478127
Cl40  Cl    Cl    0.704035 0.581108 0.957009 -0.477758

loop_
_geom_bond_atom_site_label_1
_geom_bond_atom_site_label_2
_ccdc_geom_bond_type
C72   O56   A    
C79   C139  A    
C259  H43   S    
C4    O4    A    
C12   H12   S    
C198  C206  S    
C198  Cl30  S    
Cu9   O37   S    
C279  H63   S    
C79   C85   A    
C267  H51   S    
C274  H58   S    
C28   C228  S    
C25   C193  S    
C217  C281  S    
C162  Cl2   S    
C223  C287  S    
C77   C89   A    
C170  C178  A    
C73   C119  A    
C49   C189  A    
C251  O83   D    
C249  O81   D    
C58   O26   A    
C268  O100  D    
C195  C203  S    
C173  C179  A    
C60   O32   A    
C20   Cl12  S    
C61   O33   A    
C68   O48   A    
C288  H72   S    
C13   C213  S    
C107  C113  A    
C80   C86   A    
C214  C222  S    
C36   C42   A    
C46   C148  A    
C95   C103  A    
C18   C26   S    
Cu10  Cu12  S    
C151  C263  S    
C196  C204  S    
Cu10  O54   S    
C230  Cl38  S    
C87   C115  A    
C97   C105  A    
C206  C214  S    
C45   N5    S    
C200  C208  S    
C200  Cl32  S    
C97   C241  S    
C6    O14   A    
Cu4   O15   S    
Cu2   Cu4   S    
C99   C107  A    
C76   C122  A    
C188  O24   S    
C50   Cl18  S    
Cu6   Cu8   S    
C166  C174  A    
C71   O53   A    
C185  O21   S    
C15   C215  S    
C93   C101  A    
C281  O113  D    
C185  N3    A    
C212  C220  S    
C186  N4    A    
C183  N1    A    
C21   C29   S    
C153  C161  A    
C76   C124  A    
C80   C92   A    
C216  C224  S    
C65   C213  S    
C57   O27   A    
C131  O63   S    
C3    O11   A    
C235  H19   S    
C161  Cl1   S    
C234  H18   S    
C12   C20   S    
C19   C203  S    
C280  H64   S    
C13   C21   S    
C69   C74   S    
C145  C257  S    
C228  Cl36  S    
C17   C201  S    
C8    O8    A    
C37   C249  S    
C168  C176  A    
C250  O82   D    
C42   C254  S    
C96   C104  A    
C4    O12   A    
C252  O84   D    
C36   C44   A    
C5    O5    A    
C7    O7    A    
C157  C165  A    
C82   C94   A    
C26   C194  S    
C110  C116  A    
Cu7   O41   S    
C7    O15   A    
C262  H46   S    
C52   Cl20  S    
C47   N7    S    
C103  C247  S    
C193  Cl25  S    
C127  N5    A    
C125  N5    A    
C56   Cl24  S    
C171  C181  A    
C3    C26   S    
C9    H9    S    
C84   C88   A    
Cu8   O42   S    
C55   C151  A    
C284  H68   S    
C74   C120  A    
C71   O55   A    
C98   C106  A    
C105  C125  A    
Cu3   O11   S    
C69   O51   A    
Cu12  O40   S    
C70   O52   A    
C273  O105  D    
Cu6   O26   S    
C27   C227  S    
C272  H56   S    
C71   C76   S    
C10   C18   S    
C25   C225  S    
C89   H1    S    
C160  C168  A    
C276  H60   S    
C260  O92   D    
C14   C230  S    
C248  H32   S    
C107  C127  A    
C138  C160  A    
C37   C117  A    
C94   C102  A    
C64   C212  S    
C253  H37   S    
C21   C205  S    
C218  C226  S    
C135  C153  A    
C209  C217  S    
C245  O77   D    
C194  C202  S    
C102  C246  S    
C32   C232  S    
C88   C116  A    
C233  H17   S    
C66   O38   A    
C23   C207  S    
C169  C177  A    
C229  Cl37  S    
C195  C219  S    
C240  H24   S    
C22   Cl14  S    
Cu2   O8    S    
C193  C201  S    
C54   C150  A    
C67   O39   A    
C193  C217  S    
C259  O91   D    
C220  C228  S    
C54   C192  A    
C184  O20   S    
C45   C145  A    
C99   C243  S    
C254  H38   S    
C197  C221  S    
C263  O95   D    
C16   H16   S    
Cu5   O33   S    
C1    O1    A    
C69   O49   A    
C90   H2    S    
C58   O28   A    
C238  H22   S    
C22   C206  S    
C150  C262  S    
C21   Cl13  S    
C120  C236  S    
C13   H13   S    
C140  C158  A    
C38   C250  S    
C10   C210  S    
C144  C180  A    
C159  C167  A    
C246  H30   S    
Cu10  O38   S    
C58   C190  S    
C280  O112  D    
C255  O87   D    
C143  C179  A    
C35   C43   A    
C117  C233  S    
C161  C169  A    
C205  C277  S    
C77   C85   A    
C52   C148  A    
C53   C149  A    
C203  C211  S    
C72   C75   S    
C68   C216  S    
C94   H6    S    
C201  C209  S    
C242  O74   D    
C256  O88   D    
C74   C118  A    
C100  C108  A    
C124  C240  S    
Cu12  O56   S    
Cu4   O14   S    
C70   O50   A    
Cu5   O49   S    
Cu1   O2    S    
C104  C112  A    
C92   C100  A    
C225  Cl33  S    
C155  C163  A    
C269  O101  D    
Cu6   O50   S    
C166  Cl6   S    
Cu2   O7    S    
C234  O66   D    
C55   Cl23  S    
C57   C189  S    
C202  C274  S    
C285  O117  D    
C184  N2    A    
C275  H59   S    
C60   C192  S    
C62   C210  S    
C125  O57   S    
C108  C128  A    
C236  O68   D    
C277  O109  D    
C139  C157  A    
C51   C147  A    
Cu5   O25   S    
C92   H4    S    
Cu7   O35   S    
C111  C131  A    
C258  H42   S    
C30   C198  S    
C286  O118  D    
C19   Cl11  S    
C109  C129  A    
Cu11  O45   S    
C17   Cl9   S    
C164  C172  A    
C49   Cl17  S    
C233  O65   D    
C283  H67   S    
C186  O22   S    
C174  C180  A    
C112  C116  A    
C4    C27   S    
Cu12  O32   S    
C167  C175  A    
C172  C178  A    
C247  O79   D    
C173  C187  A    
C22   C30   S    
C271  O103  D    
C15   C231  S    
C45   C147  A    
C8    C31   S    
C154  C162  A    
C63   C211  S    
C250  H34   S    
C274  O106  D    
C2    O10   A    
C81   C133  A    
C62   O42   A    
C211  C219  S    
C14   C22   S    
C85   C113  A    
C170  C184  A    
C29   C229  S    
C138  C144  A    
C249  H33   S    
C142  C178  A    
C82   C88   A    
C28   C196  S    
C288  O120  D    
C6    O6    A    
C176  C180  A    
C153  C265  S    
C270  H54   S    
C222  C230  S    
C11   C227  S    
C128  N6    A    
C171  C177  A    
C9    C225  S    
C91   C99   A    
C264  H48   S    
Cu12  O46   S    
C148  C260  S    
C217  C225  S    
C83   C87   A    
C56   C192  A    
C244  H28   S    
C48   C150  A    
C222  C286  S    
C197  C205  S    
Cu4   O16   S    
C197  Cl29  S    
Cu1   O4    S    
C31   C199  S    
C15   H15   S    
C243  H27   S    
C78   C90   A    
C237  O69   D    
C11   C19   S    
C257  H41   S    
Cu2   O5    S    
C141  C177  A    
C77   C137  A    
C157  C269  S    
C241  O73   D    
C281  H65   S    
C8    O16   A    
C23   Cl15  S    
C12   C228  S    
C219  C283  S    
C257  O89   D    
C101  C109  A    
Cu9   O47   S    
C33   N1    S    
Cu10  O48   S    
C278  H62   S    
C14   C214  S    
C103  C111  A    
C108  C114  A    
C265  O97   D    
Cu11  O55   S    
C136  C142  A    
C213  C221  S    
C134  C156  A    
C251  H35   S    
C104  C248  S    
C261  O93   D    
C282  O114  D    
C1    C28   S    
C11   H11   S    
C131  N7    A    
C56   C152  A    
C163  C171  A    
C168  Cl8   S    
C181  O17   S    
C51   C189  A    
C5    C32   S    
C130  N8    A    
C50   C146  A    
C183  O19   S    
C205  C213  S    
C7    C30   S    
C75   C121  A    
C9    C17   S    
C149  C261  S    
C68   O40   A    
C182  O18   S    
C66   O46   A    
C204  C276  S    
C2    O2    A    
C91   H3    S    
C137  C159  A    
C135  C141  A    
C167  Cl7   S    
C62   O34   A    
C20   C204  S    
C14   H14   S    
C39   C251  S    
C268  H52   S    
C284  O116  D    
C80   C140  A    
C44   C124  A    
C33   C37   A    
C127  O59   S    
C66   C214  S    
C3    O3    A    
C263  H47   S    
Cu7   O51   S    
C273  H57   S    
C134  C142  A    
C267  O99   D    
C35   N3    S    
C162  C170  A    
C46   N6    S    
C70   C73   S    
C207  C215  S    
C49   C145  A    
C18   C202  S    
C52   C190  A    
C112  C132  A    
C276  O108  D    
C53   C191  A    
C81   C87   A    
C248  O80   D    
C100  C244  S    
C231  Cl39  S    
C40   C120  A    
C67   O47   A    
C43   C255  S    
C48   C152  A    
C34   C40   A    
C102  C110  A    
C27   C195  S    
C96   H8    S    
C95   H7    S    
C156  C268  S    
C158  C166  A    
C206  C278  S    
C245  H29   S    
C226  Cl34  S    
C199  Cl31  S    
C287  O119  D    
C84   C136  A    
C10   H10   S    
Cu9   O53   S    
C140  C144  A    
C283  O115  D    
Cu2   O6    S    
C240  O72   D    
Cu8   O36   S    
C20   C28   S    
C46   C146  A    
C133  C141  A    
C254  O86   D    
C32   C200  S    
C196  Cl28  S    
C26   C226  S    
C155  C267  S    
C24   Cl16  S    
C238  O70   D    
C110  C130  A    
C2    C25   S    
C65   O45   A    
C50   C190  A    
C132  O64   S    
C13   C229  S    
C38   C118  A    
C172  C182  A    
C6    C29   S    
C181  N1    A    
C246  O78   D    
C221  C229  S    
C252  H36   S    
C219  C227  S    
C195  Cl27  S    
C147  C259  S    
C23   C31   S    
C63   O35   A    
C64   O36   A    
C154  C266  S    
C16   C24   S    
C67   C215  S    
C239  H23   S    
C271  H55   S    
C129  O61   S    
C258  O90   D    
C24   C32   S    
C40   C252  S    
C247  H31   S    
C194  C218  S    
C232  Cl40  S    
C1    O9    A    
C82   C134  A    
C33   C39   A    
Cu8   O52   S    
C106  C114  A    
C75   C123  A    
Cu3   O12   S    
C36   N4    S    
C198  C222  S    
C16   C216  S    
C123  C239  S    
C224  C232  S    
Cu1   O1    S    
C39   C119  A    
C243  O75   D    
Cu7   O27   S    
C48   N8    S    
C165  C173  A    
C287  H71   S    
Cu8   O28   S    
C51   Cl19  S    
C84   C96   A    
C41   C121  A    
C223  C231  S    
C260  H44   S    
C169  C183  A    
C146  C258  S    
C208  C280  S    
C174  C188  A    
C59   O29   A    
C272  O104  D    
C220  C284  S    
C47   C149  A    
C9    C209  S    
C262  O94   D    
C121  C237  S    
C130  O62   S    
C105  C113  A    
Cu6   O34   S    
C122  C238  S    
C128  O60   S    
C98   C242  S    
C55   C191  A    
C253  O85   D    
C224  C288  S    
C285  H69   S    
C83   C135  A    
C129  N7    A    
C11   C211  S    
Cu5   O43   S    
C15   C23   S    
C137  C143  A    
Cu6   O44   S    
C208  C216  S    
C282  H66   S    
C204  C212  S    
C136  C154  A    
C265  H49   S    
C139  C143  A    
C175  C185  A    
C202  C210  S    
C187  O23   S    
C35   C41   A    
C78   C138  A    
C203  C275  S    
C196  C220  S    
C93   H5    S    
C59   C191  S    
C72   O54   A    
C73   C117  A    
C34   N2    S    
C200  C224  S    
C57   O25   A    
C12   C212  S    
C239  O71   D    
C194  Cl26  S    
C218  C282  S    
C266  H50   S    
C175  C179  A    
C227  Cl35  S    
C16   C232  S    
Cu11  O39   S    
C133  C155  A    
C89   C97   A    
Cu9   Cu11  S    
C101  C245  S    
C61   C209  S    
C54   Cl22  S    
C132  N8    A    
C53   Cl21  S    
C61   O41   A    
C255  H39   S    
C201  C273  S    
C60   O30   A    
C126  O58   S    
C199  C207  S    
C269  H53   S    
C279  O111  D    
C83   C95   A    
C160  C272  S    
C31   C231  S    
C81   C93   A    
Cu1   Cu3   S    
C165  Cl5   S    
C106  C126  A    
C18   Cl10  S    
C65   O37   A    
Cu11  O31   S    
C270  O102  D    
C29   C197  S    
Cu5   Cu7   S    
C59   O31   A    
C63   O43   A    
C43   C123  A    
C264  O96   D    
C64   O44   A    
C19   C27   S    
C242  H26   S    
C42   C122  A    
C256  H40   S    
C164  Cl4   S    
Cu10  O30   S    
C244  O76   D    
C275  O107  D    
C34   C38   A    
Cu3   O10   S    
C79   C91   A    
C126  N6    A    
Cu4   O13   S    
C47   C151  A    
C17   C25   S    
C215  C223  S    
Cu1   O3    S    
C176  C186  A    
C237  H21   S    
C188  N4    A    
Cu3   O9    S    
C210  C218  S    
C266  O98   D    
C207  C279  S    
C86   C114  A    
C277  H61   S    
C30   C230  S    
C119  C235  S    
C241  H25   S    
C5    O13   A    
C78   C86   A    
C44   C256  S    
C187  N3    A    
C182  N2    A    
C278  O110  D    
C163  Cl3   S    
C41   C253  S    
C235  O67   D    
C158  C270  S    
C236  H20   S    
C159  C271  S    
C109  C115  A    
Cu9   O29   S    
C199  C223  S    
C286  H70   S    
C156  C164  A    
C152  C264  S    
C261  H45   S    
C24   C208  S    
C10   C226  S    
C111  C115  A    
C118  C234  S    
C90   C98   A    
C221  C285  S    
