data_mof_unit_12259.cif
_audit_creation_date              2013-03-05T16:13:23-0500
_audit_creation_method            fapswitch 2.2
_symmetry_space_group_name_H-M    P1
_symmetry_Int_Tables_number       1
_space_group_crystal_system       triclinic
_cell_length_a                    10.837233
_cell_length_b                    9.930404
_cell_length_c                    19.27852
_cell_angle_alpha                 90.976445
_cell_angle_beta                  93.604511
_cell_angle_gamma                 92.739374
_cell_volume                      2067.82912514

loop_
_atom_site_label
_atom_site_type_symbol
_atom_site_description
_atom_site_fract_x
_atom_site_fract_y
_atom_site_fract_z
_atom_type_partial_charge
O1    O     O_R   0.316770 0.614620 0.500000 -0.642189
O2    O     O_R   0.683230 0.385380 0.500000 -0.625494
O3    O     O_R   0.683230 0.614620 0.500000 -0.665125
O4    O     O_R   0.316770 0.385380 0.500000 -0.670122
C1    C     C_R   0.872745 0.509345 0.494296 -0.213220
C2    C     C_R   0.127274 0.490927 0.506234 -0.210920
C3    C     C_R   0.260176 0.496748 0.501756 0.798130
C4    C     C_R   0.739819 0.503295 0.498421 0.901721
O5    O     O_R   0.500030 0.614710 0.398180 -0.635088
O6    O     O_R   0.499970 0.385290 0.601820 -0.633862
O7    O     O_R   0.499970 0.614710 0.601820 -0.640947
O8    O     O_R   0.500030 0.385290 0.398180 -0.641171
C5    C     C_R   0.500399 0.499319 0.366289 0.819318
C6    C     C_R   0.499851 0.500889 0.633632 0.926610
Zn1   Zn    Zn3+2 0.500000 0.653120 0.500000 0.948689
Zn2   Zn    Zn3+2 0.500000 0.346880 0.500000 0.950884
C7    C     C_R   0.053348 0.387848 0.469958 -0.031337
C8    C     C_R   0.946470 0.611896 0.531040 0.002376
C9    C     C_R   0.925960 0.400629 0.461087 -0.066494
C10   C     C_R   0.074113 0.600391 0.539007 -0.039821
C11   C     C_R   0.615280 0.536102 0.747418 -0.089382
C12   C     C_R   0.610746 0.555788 0.261658 -0.106790
C13   C     C_R   0.399414 0.449849 0.249589 -0.118106
C14   C     C_R   0.390662 0.477027 0.741419 -0.119386
C15   C     C_R   0.615642 0.544836 0.819844 0.237186
C16   C     C_R   0.614223 0.555752 0.189127 0.327368
C17   C     C_R   0.402484 0.455046 0.177050 0.324846
C18   C     C_R   0.392954 0.484279 0.814260 0.343928
C19   C     C_R   0.505353 0.517360 0.852440 0.011850
C20   C     C_R   0.510003 0.506596 0.147839 -0.021409
C21   C     C_R   0.578949 0.077418 0.545139 0.016077
C22   C     C_R   0.420974 0.922484 0.454907 0.032875
C23   C     C_R   0.426697 0.066459 0.452197 -0.026602
C24   C     C_R   0.573194 0.933424 0.547922 -0.009552
C25   C     C_R   0.502366 0.502726 0.708704 -0.195153
C26   C     C_R   0.504243 0.499427 0.291256 -0.244164
C27   C     C_R   0.481163 0.633721 0.965167 -0.077861
C28   C     C_R   0.542176 0.393752 0.035385 -0.077690
C29   C     C_R   0.483096 0.631259 0.038039 -0.082452
C30   C     C_R   0.540672 0.396319 0.962583 -0.082493
N1    N     N_R   0.500000 0.857200 0.500000 -0.188760
N2    N     N_R   0.500000 0.142800 0.500000 -0.190827
C31   C     C_R   0.512605 0.510926 0.072365 0.116082
C32   C     C_R   0.509201 0.515975 0.928157 0.125303
C33   C     C_2   0.680174 0.155260 0.585461 0.588510
H1    H     H_    0.665095 0.249309 0.611063 0.141041
O9    O     O_2   0.784945 0.114598 0.589365 -0.508188
C34   C     C_2   0.319634 0.844512 0.414625 0.572340
H2    H     H_    0.334251 0.749725 0.389543 0.098859
O10   O     O_2   0.215077 0.885733 0.410286 -0.510161
C35   C     C_2   0.363077 0.134228 0.393607 0.560688
H3    H     H_    0.330157 0.233185 0.400616 0.087725
O11   O     O_2   0.350695 0.081579 0.335709 -0.486779
C36   C     C_2   0.636592 0.865539 0.606725 0.522939
H4    H     H_    0.668890 0.766153 0.600084 0.113670
O12   O     O_2   0.649542 0.918579 0.664518 -0.511715
C37   C     C_2   0.107384 0.266404 0.441020 0.496950
H5    H     H_    0.160240 0.201676 0.475157 0.094542
O13   O     O_2   0.090983 0.236528 0.379324 -0.483344
C38   C     C_2   0.891882 0.731339 0.561658 0.538143
H6    H     H_    0.839982 0.798275 0.528307 0.082234
O14   O     O_2   0.907147 0.757195 0.623860 -0.515544
C39   C     C_2   0.847365 0.301963 0.415945 0.596500
H7    H     H_    0.777476 0.338052 0.378984 0.028793
O15   O     O_2   0.855090 0.180506 0.422621 -0.484591
C40   C     C_2   0.152902 0.701411 0.582702 0.602268
H8    H     H_    0.226708 0.667807 0.617840 0.056297
O16   O     O_2   0.140914 0.822413 0.576703 -0.510167
C41   C     C_2   0.733882 0.559925 0.713525 0.512056
H9    H     H_    0.805736 0.628895 0.737067 0.172866
O17   O     O_2   0.754628 0.499832 0.660076 -0.587140
C42   C     C_2   0.717397 0.612899 0.307217 0.564239
H10   H     H_    0.737373 0.571827 0.358053 -0.013302
O18   O     O_2   0.780706 0.710116 0.289993 -0.462545
C43   C     C_2   0.285644 0.400910 0.282740 0.577786
H11   H     H_    0.264080 0.442437 0.332740 0.008609
O19   O     O_2   0.216941 0.310988 0.256076 -0.410712
C44   C     C_2   0.273756 0.440887 0.698746 0.456402
H12   H     H_    0.276705 0.388516 0.649127 0.061704
O20   O     O_2   0.173289 0.473287 0.716921 -0.485608
Br1   Br    Br    0.767677 0.587692 0.875879 -0.360209
Br2   Br    Br    0.762560 0.613878 0.144598 -0.282934
Br3   Br    Br    0.258425 0.402803 0.116069 -0.282708
Br4   Br    Br    0.247070 0.438219 0.863799 -0.286083
C45   C     C_2   0.443901 0.758064 0.928173 0.445314
H13   H     H_    0.377257 0.822313 0.949887 0.087201
O21   O     O_2   0.488685 0.791889 0.874217 -0.502417
C46   C     C_2   0.569066 0.265796 0.072012 0.462774
H14   H     H_    0.541004 0.169172 0.047361 0.062748
O22   O     O_2   0.624908 0.266394 0.129029 -0.506322
C47   C     C_2   0.458514 0.756780 0.077814 0.466292
H15   H     H_    0.487020 0.854665 0.058480 0.067277
O23   O     O_2   0.404114 0.752951 0.131357 -0.507165
C48   C     C_2   0.577294 0.274758 0.923364 0.452444
H16   H     H_    0.647118 0.211237 0.946173 0.094710
O24   O     O_2   0.528489 0.242226 0.866368 -0.513114

loop_
_geom_bond_atom_site_label_1
_geom_bond_atom_site_label_2
_geom_bond_distance
_ccdc_geom_bond_type
C40   O16   1.221426 D    
C39   O15   1.221423 D    
C21   N2    1.374623 A    
C18   Br4   1.938151 S    
C45   H13   1.084838 S    
C23   N2    1.371731 A    
C10   C40   1.497963 S    
C18   C19   1.405074 A    
O7    C6    1.295087 A    
C44   O20   1.220387 D    
C37   O13   1.220935 D    
C38   O14   1.221390 D    
C27   C45   1.495943 S    
C29   C47   1.495836 S    
C41   O17   1.220414 D    
O5    C5    1.291423 A    
O7    Zn1   2.006041 S    
O8    Zn2   2.006041 S    
C9    C39   1.496950 S    
C22   N1    1.374096 A    
O1    Zn1   2.004155 S    
C13   C17   1.402697 A    
O2    Zn2   2.004154 S    
C34   O10   1.221503 D    
C40   H8    1.084015 S    
C16   Br2   1.938063 S    
C17   C20   1.404352 A    
C15   Br1   1.938123 S    
C22   C34   1.483147 S    
C48   H16   1.084935 S    
C24   N1    1.371972 A    
O4    C3    1.290956 A    
C12   C42   1.490537 S    
C33   O9    1.221480 D    
C15   C19   1.402509 A    
C36   O12   1.221382 D    
C14   C25   1.414332 A    
C45   O21   1.220740 D    
C35   H3    1.070632 S    
Zn1   N1    2.026597 S    
C5    C26   1.449763 S    
C42   O18   1.220354 D    
O3    C4    1.290413 A    
O6    C6    1.292343 A    
C30   C48   1.496262 S    
C6    C25   1.445616 S    
C44   H12   1.083986 S    
C29   C31   1.415960 A    
C1    C8    1.415524 A    
C33   H1    1.073117 S    
C11   C41   1.488868 S    
C38   H6    1.084617 S    
C35   O11   1.221382 D    
O4    Zn2   2.040041 S    
C43   H11   1.085279 S    
C47   O23   1.220746 D    
C21   C24   1.430367 A    
C46   H14   1.085071 S    
C48   O24   1.220632 D    
C43   O19   1.220098 D    
C1    C9    1.410799 A    
C8    C38   1.480675 S    
C34   H2    1.073909 S    
C46   O22   1.220777 D    
C24   C36   1.477838 S    
C19   C32   1.457995 S    
C12   C16   1.401151 A    
C20   C31   1.458402 S    
Zn2   N2    2.026597 S    
C47   H15   1.085050 S    
O3    Zn1   2.040040 S    
C14   C44   1.492021 S    
C2    C7    1.416155 A    
C11   C15   1.397240 A    
C36   H4    1.071121 S    
O1    C3    1.297210 A    
O2    C4    1.297328 A    
C14   C18   1.403471 A    
C13   C43   1.489020 S    
C42   H10   1.081243 S    
C1    C4    1.446172 S    
C16   C20   1.403043 A    
C2    C3    1.446743 S    
C11   C25   1.414997 A    
C23   C35   1.475277 S    
C12   C26   1.415262 A    
C22   C23   1.430098 A    
C27   C32   1.414697 A    
C17   Br3   1.938971 S    
O5    Zn1   1.993286 S    
C28   C31   1.414565 A    
C27   C29   1.404354 A    
O6    Zn2   1.993286 S    
C28   C30   1.403274 A    
C37   H5    1.084700 S    
C2    C10   1.412427 A    
C7    C9    1.392486 A    
C8    C10   1.392525 A    
C41   H9    1.084174 S    
C39   H7    1.084718 S    
C30   C32   1.416281 A    
O8    C5    1.297630 A    
C13   C26   1.413011 A    
C21   C33   1.482044 S    
C28   C46   1.496055 S    
C7    C37   1.481288 S    
