data_mof_unit_58900.cif
_audit_creation_date              2012-12-11T15:41:25-0500
_audit_creation_method            fapswitch 2.2
_symmetry_space_group_name_H-M    P1
_symmetry_Int_Tables_number       1
_space_group_crystal_system       triclinic
_cell_length_a                    15.023221
_cell_length_b                    14.857185
_cell_length_c                    14.917347
_cell_angle_alpha                 108.508371
_cell_angle_beta                  110.034578
_cell_angle_gamma                 109.295229
_cell_volume                      2580.82121628

loop_
_atom_site_label
_atom_site_type_symbol
_atom_type_description
_atom_site_fract_x
_atom_site_fract_y
_atom_site_fract_z
_atom_type_partial_charge
C1    C     C_R   0.237594 0.053580 0.960937 -0.032289
C2    C     C_R   0.827603 0.775578 0.260304 -0.140627
C3    C     C_R   0.306437 0.188167 0.654639 -0.152228
C4    C     C_R   0.725185 0.698792 0.168021 -0.128686
C5    C     C_R   0.305319 0.273556 0.729361 0.089824
C6    C     C_R   0.713691 0.661465 0.063396 0.101776
C7    C     C_R   0.205119 0.260609 0.720817 -0.133096
C8    C     C_R   0.806150 0.700758 0.052589 -0.199164
C9    C     C_R   0.108286 0.163787 0.639774 -0.079000
C10   C     C_R   0.908452 0.777156 0.145140 -0.065795
C11   C     C_R   0.110392 0.079243 0.566516 -0.080128
C12   C     C_R   0.805056 0.009999 0.102531 -0.073707
C13   C     C_R   0.919231 0.814191 0.248884 0.001305
C14   C     C_R   0.414826 0.476477 0.836753 -0.226313
C15   C     C_R   0.603349 0.469523 0.937148 -0.209982
C16   C     C_R   0.748203 0.219348 0.313271 -0.172752
C17   C     C_R   0.198036 0.789366 0.698274 -0.188668
C18   C     C_R   0.511136 0.574140 0.920194 0.063376
C19   C     C_R   0.502914 0.374316 0.879693 0.038435
C20   C     C_R   0.608514 0.569932 0.967490 0.029056
C21   C     C_R   0.408801 0.375241 0.816453 0.050046
C22   C     C_R   0.942885 0.410078 0.501797 -0.157644
C23   C     C_R   0.783359 0.322750 0.325685 -0.018962
C24   C     C_R   0.954510 0.612353 0.542885 -0.159520
C25   C     C_R   0.030692 0.502443 0.592261 -0.130496
C26   C     C_R   0.864762 0.518255 0.451128 -0.133011
C27   C     C_R   0.037749 0.603497 0.611710 0.167659
C28   C     C_R   0.861781 0.418100 0.429222 0.159723
C29   C     C_R   0.598989 0.944233 0.572258 -0.162339
C30   C     C_R   0.401908 0.843903 0.379793 -0.160756
C31   C     C_R   0.599111 0.941592 0.478722 -0.165914
C32   C     C_R   0.401874 0.846689 0.473370 -0.163834
C33   C     C_R   0.500523 0.901201 0.385200 0.135980
C34   C     C_R   0.138195 0.697155 0.699301 -0.001191
C35   C     C_R   0.500369 0.907575 0.572627 0.136550
C36   C     C_R   0.043016 0.959368 0.032835 -0.216075
C37   C     C_R   0.052762 0.162932 0.105701 -0.169124
C38   C     C_R   0.957618 0.967057 0.040178 -0.118338
C39   C     C_R   0.140144 0.155398 0.099645 -0.062344
C40   C     C_R   0.409632 0.905092 0.209461 -0.120623
C41   C     C_R   0.591526 0.026864 0.777653 -0.120199
C42   C     C_R   0.962082 0.068137 0.075059 0.189845
C43   C     C_R   0.132892 0.052886 0.060318 0.153460
C44   C     C_R   0.588485 0.290826 0.981738 -0.080625
C45   C     C_R   0.500410 0.933862 0.302519 0.042595
C46   C     C_R   0.411840 0.684991 0.941215 -0.094013
C47   C     C_R   0.590853 0.995249 0.300095 -0.136785
C48   C     C_R   0.408721 0.935593 0.686155 -0.128713
C49   C     C_R   0.409552 0.206437 0.898214 -0.123741
C50   C     C_R   0.593451 0.779539 0.027360 -0.155032
C51   C     C_R   0.760790 0.315626 0.224438 0.202683
C52   C     C_R   0.198161 0.701847 0.794928 0.152677
C53   C     C_R   0.249100 0.970013 0.062817 -0.125533
C54   C     C_R   0.803482 0.095138 0.004347 -0.160086
C55   C     C_R   0.213943 0.038600 0.039159 -0.002247
C56   C     C_R   0.500212 0.950811 0.675281 0.038614
C57   C     C_R   0.866265 0.068281 0.070213 0.042232
C58   C     C_2   0.180789 0.081629 0.881133 0.484154
C59   C     C_2   0.848079 0.999730 0.201651 0.483190
C60   C     C_R   0.498835 0.292346 0.916404 0.044309
C61   C     C_R   0.505474 0.675437 0.959663 0.048300
C62   C     C_R   0.209344 0.091417 0.573883 -0.108673
H1    H     H_    0.210857 0.025800 0.517111 0.110028
H2    H     H_    0.678223 0.469252 0.977333 0.151584
H3    H     H_    0.942991 0.333618 0.484951 0.125710
H4    H     H_    0.960557 0.691096 0.558509 0.115938
H5    H     H_    0.096394 0.495202 0.643484 0.131913
H6    H     H_    0.800918 0.523767 0.394967 0.139892
H7    H     H_    0.676650 0.984991 0.645911 0.115675
H8    H     H_    0.324128 0.805918 0.307128 0.120224
H9    H     H_    0.676870 0.980670 0.484025 0.109696
H10   H     H_    0.324156 0.810663 0.469057 0.117608
H11   H     H_    0.036733 0.879648 0.000953 0.137163
H12   H     H_    0.836160 0.804187 0.340741 0.107920
H13   H     H_    0.054771 0.240788 0.132210 0.135227
H14   H     H_    0.758422 0.196303 0.376345 0.117737
H15   H     H_    0.169694 0.816404 0.640384 0.108872
H16   H     H_    0.885900 0.893273 0.014063 0.113848
H17   H     H_    0.210939 0.227533 0.121462 0.139402
H18   H     H_    0.326442 0.845220 0.177159 0.110833
H19   H     H_    0.675952 0.059040 0.799439 0.099073
H20   H     H_    0.667388 0.328180 0.989725 0.129055
H21   H     H_    0.328667 0.619881 0.890029 0.127063
H22   H     H_    0.674240 0.018103 0.351244 0.084681
H23   H     H_    0.382499 0.196284 0.659400 0.122432
H24   H     H_    0.324348 0.883630 0.623354 0.098078
H25   H     H_    0.326896 0.174906 0.839086 0.111808
H26   H     H_    0.676836 0.805320 0.049547 0.108201
H27   H     H_    0.236077 0.935187 0.113748 0.115728
H28   H     H_    0.830212 0.149090 0.973257 0.122277
H29   H     H_    0.035317 0.004279 0.504195 0.101672
H30   H     H_    0.998615 0.872922 0.320344 0.103551
H31   H     H_    0.169504 0.046062 0.799673 -0.003094
H32   H     H_    0.793229 0.963610 0.227658 0.004320
H33   H     H_    0.655164 0.667141 0.177923 0.124634
H34   H     H_    0.202012 0.324514 0.777944 0.133380
H35   H     H_    0.799103 0.670821 0.972771 0.130390
H36   H     H_    0.031587 0.154087 0.634121 0.117412
H37   H     H_    0.979569 0.806946 0.136541 0.116960
H38   H     H_    0.342647 0.478534 0.790971 0.124163
I1    I     I_    0.846363 0.443382 0.200587 -0.493557
I2    I     I_    0.132433 0.626284 0.873608 -0.498246
N1    N     N_R   0.293810 0.002730 0.945950 -0.078284
N2    N     N_R   0.443210 0.997250 0.791090 -0.042490
N3    N     N_R   0.443180 0.152110 0.945950 -0.054313
N4    N     N_R   0.556820 0.847890 0.054050 -0.050469
N5    N     N_R   0.706170 0.208950 0.152090 -0.056767
N6    N     N_R   0.293830 0.791050 0.847910 -0.054217
N7    N     N_R   0.293800 0.945910 0.002760 -0.036412
N8    N     N_R   0.706200 0.054090 0.997240 -0.041184
N9    N     N_R   0.706190 0.997270 0.054050 -0.075272
N10   N     N_R   0.706160 0.152130 0.208910 -0.055500
N11   N     N_R   0.293840 0.847870 0.791090 -0.048886
N12   N     N_R   0.443140 0.945920 0.152090 -0.034867
N13   N     N_R   0.556860 0.054080 0.847910 -0.040726
N14   N     N_R   0.556830 0.208940 0.002760 -0.044378
N15   N     N_R   0.443170 0.791060 0.997240 -0.033052
N16   N     N_R   0.556790 0.002750 0.208910 -0.041394
Ni1   Ni    Ni4+2 0.369690 0.999990 0.869700 0.199418
Ni2   Ni    Ni4+2 0.630310 0.000010 0.130300 0.205555
Ni3   Ni    Ni4+2 0.369670 0.869670 0.000000 0.247559
Ni4   Ni    Ni4+2 0.630330 0.130330 0.000000 0.230193
O1    O     O_2   0.144655 0.142590 0.903985 -0.591364
O2    O     O_2   0.945392 0.034413 0.257113 -0.589932

loop_
_geom_bond_atom_site_label_1
_geom_bond_atom_site_label_2
_ccdc_geom_bond_type
C9    H36   S    
C3    H23   S    
C33   C45   S    
N5    N10   A    
C49   H25   S    
N3    N14   A    
C25   H5    S    
C24   C27   A    
N6    Ni3   S    
C11   C62   A    
C17   N11   A    
C41   C56   A    
C15   C19   A    
C7    H34   S    
C52   I2    S    
C58   O1    D    
C49   C60   A    
N14   Ni4   S    
C14   C21   A    
C19   C21   A    
C58   H31   S    
C24   C26   A    
C54   H28   S    
C44   H20   S    
C48   N2    A    
C54   N8    A    
C48   C56   A    
C37   C42   A    
C2    C13   A    
N15   Ni3   S    
N8    N9    A    
N11   Ni1   S    
C12   C59   S    
C47   N16   A    
C40   N12   A    
C22   C25   A    
C15   H2    S    
C40   H18   S    
C59   H32   S    
C1    N1    A    
C2    H12   S    
C24   H4    S    
C4    H33   S    
N2    Ni1   S    
C31   H9    S    
C37   H13   S    
N13   Ni4   S    
C22   C28   A    
N12   Ni3   S    
C15   C20   A    
C41   N13   A    
C42   C57   S    
C17   H15   S    
C30   H8    S    
C29   H7    S    
C45   C47   A    
C27   C34   S    
C40   C45   A    
C37   C39   A    
C46   C61   A    
C32   C35   A    
C4    C6    A    
C5    C7    A    
C39   C43   A    
C38   H16   S    
C23   C28   S    
C46   N15   A    
N9    Ni2   S    
C39   H17   S    
N6    N11   A    
C2    C4    A    
C8    H35   S    
C22   H3    S    
C62   H1    S    
N2    N13   A    
C23   C51   A    
C41   H19   S    
C31   C33   A    
C47   H22   S    
C14   H38   S    
C9    C11   A    
C44   N14   A    
N12   N16   A    
C12   C57   A    
C43   C55   S    
C16   C23   A    
C49   N3    A    
N4    N15   A    
C53   H27   S    
C48   H24   S    
C51   I1    S    
C17   C34   A    
C53   C55   A    
C16   N10   A    
N10   Ni2   S    
C3    C62   A    
C53   N7    A    
C59   O2    D    
C7    C9    A    
C30   C33   A    
N4    Ni2   S    
C35   C56   S    
C16   H14   S    
C34   C52   A    
C14   C18   A    
C8    C10   A    
N1    Ni1   S    
C3    C5    A    
C10   C13   A    
C6    C8    A    
C18   C61   S    
C38   C42   A    
C50   H26   S    
C19   C60   S    
C25   C27   A    
C6    C20   S    
C13   H30   S    
C29   C35   A    
C26   C28   A    
N1    N7    A    
C26   H6    S    
C36   C38   A    
C1    C55   A    
C29   C31   A    
C1    C58   S    
N8    Ni4   S    
C30   C32   A    
N7    Ni3   S    
C44   C60   A    
C18   C20   A    
C10   H37   S    
N16   Ni2   S    
C36   H11   S    
C46   H21   S    
C11   H29   S    
C5    C21   S    
C52   N6    A    
C51   N5    A    
C50   N4    A    
C50   C61   A    
N3    Ni1   S    
C36   C43   A    
N5    Ni4   S    
C12   N9    A    
C32   H10   S    
C54   C57   A    
