data_mof_unit_6387.cif
_audit_creation_date              2013-03-05T15:52:26-0500
_audit_creation_method            fapswitch 2.2
_symmetry_space_group_name_H-M    P1
_symmetry_Int_Tables_number       1
_space_group_crystal_system       triclinic
_cell_length_a                    27.770489
_cell_length_b                    10.767999
_cell_length_c                    9.647273
_cell_angle_alpha                 89.933545
_cell_angle_beta                  89.862737
_cell_angle_gamma                 94.491173
_cell_volume                      2875.98003581

loop_
_atom_site_label
_atom_site_type_symbol
_atom_site_description
_atom_site_fract_x
_atom_site_fract_y
_atom_site_fract_z
_atom_type_partial_charge
O1    O     O_R   0.500000 0.319640 0.618810 -0.593390
O2    O     O_R   0.500000 0.319660 0.381240 -0.544543
C1    C     C_R   0.498205 0.262640 0.500139 0.768849
O3    O     O_R   0.430260 0.500010 0.618770 -0.615897
O4    O     O_R   0.430270 0.500030 0.381200 -0.533506
C2    C     C_R   0.407560 0.499917 0.500184 0.788114
Cu1   Cu    Cu3+1 0.500000 0.499990 0.640660 1.005101
Cu2   Cu    Cu3+1 0.500000 0.500010 0.359340 1.062431
O5    O     O_R   0.500000 0.680340 0.618760 -0.509536
O6    O     O_R   0.500000 0.680360 0.381190 -0.519140
O7    O     O_R   0.569730 0.499970 0.618800 -0.540046
O8    O     O_R   0.569740 0.499990 0.381230 -0.548483
C3    C     C_R   0.498488 0.736884 0.499983 0.881570
C4    C     C_R   0.592461 0.499952 0.499756 0.896986
C5    C     C_R   0.174464 0.405756 0.549048 0.663253
O9    O     O_2   0.196216 0.305160 0.592974 -0.428699
N1    N     N_R   0.202050 0.508813 0.503810 -0.459402
C6    C     C_R   0.181511 0.612979 0.459039 0.659843
C7    C     C_R   0.279246 0.511669 0.627548 -0.175415
C8    C     C_R   0.329363 0.509102 0.626903 -0.222447
C9    C     C_R   0.328686 0.497717 0.375745 -0.247507
C10   C     C_R   0.278539 0.500216 0.376563 0.683234
C11   C     C_R   0.253659 0.507258 0.502571 0.203021
C12   C     C_R   0.101942 0.509552 0.499057 -0.131982
C13   C     C_R   0.123713 0.403895 0.547953 -0.236575
C14   C     C_R   0.094215 0.301112 0.597149 0.628441
C15   C     C_R   0.131097 0.615547 0.456352 -0.078290
C16   C     C_R   0.354571 0.502020 0.500919 -0.129072
H1    H     H_    0.347137 0.492070 0.277192 0.213731
C17   C     C_R   0.645598 0.501195 0.498240 -0.035949
C18   C     C_R   0.971658 0.393796 0.496128 0.121273
C19   C     C_R   0.978443 0.622352 0.474257 -0.020138
C20   C     C_R   0.949683 0.508091 0.487079 0.050645
C21   C     C_R   0.942142 0.280706 0.476895 -0.021010
C22   C     C_R   0.891890 0.282139 0.482951 -0.201430
C23   C     C_R   0.869932 0.394450 0.492391 0.017928
C24   C     C_R   0.898681 0.508075 0.490545 -0.125743
C25   C     C_R   0.876430 0.621552 0.492313 -0.145983
C26   C     C_R   0.825652 0.618255 0.495832 0.654281
N2    N     N_R   0.798546 0.506622 0.495945 -0.469230
C27   C     C_R   0.819472 0.395915 0.495562 0.610043
C28   C     C_R   0.721098 0.503804 0.367287 0.027464
C29   C     C_R   0.670612 0.501275 0.371435 -0.221163
C30   C     C_R   0.671723 0.502934 0.622553 -0.179667
C31   C     C_R   0.721922 0.505074 0.620077 -0.123563
C32   C     C_R   0.746886 0.505517 0.493761 0.321512
O10   O     O_2   0.791427 0.287720 0.496790 -0.500353
C33   C     C_R   0.022022 0.398527 0.523332 -0.123905
C34   C     C_R   0.050973 0.509405 0.493205 -0.061595
C35   C     C_R   0.029256 0.620259 0.458647 -0.001543
C36   C     C_R   0.044113 0.299628 0.587703 0.562252
H2    H     H_    0.650775 0.499260 0.274810 0.150635
H3    H     H_    0.869775 0.195089 0.472511 0.207045
O11   O     O_2   0.209856 0.713879 0.417803 -0.496558
C37   C     C_R   0.109390 0.720812 0.409755 -0.152016
H4    H     H_    0.348303 0.512921 0.724992 0.183970
H5    H     H_    0.260217 0.517235 0.725177 0.190365
H6    H     H_    0.131119 0.801701 0.371633 0.227988
C38   C     C_R   0.955486 0.734461 0.482220 -0.180843
C39   C     C_R   0.905458 0.734437 0.490887 0.644310
O12   O     O_2   0.803344 0.725129 0.497540 -0.414251
C40   C     C_R   0.059359 0.723877 0.410410 0.610674
H7    H     H_    0.975679 0.823948 0.488919 0.239124
H8    H     H_    0.653451 0.502454 0.721816 0.161137
H9    H     H_    0.741646 0.506224 0.716835 0.154898
H10   H     H_    0.557674 0.125313 0.367468 0.160519
C41   C     C_R   0.420481 0.113358 0.642513 -0.163572
H11   H     H_    0.418124 0.213104 0.642064 0.142521
C42   C     C_R   0.384115 0.040802 0.711373 -0.094908
H12   H     H_    0.355479 0.084981 0.763753 0.166224
C43   C     C_R   0.384115 0.911620 0.711058 -0.097475
H13   H     H_    0.355471 0.855534 0.763144 0.157214
C44   C     C_R   0.420513 0.854179 0.642031 -0.171952
H14   H     H_    0.418170 0.753596 0.641359 0.139925
C45   C     C_R   0.458206 0.925847 0.573206 0.079668
C46   C     C_R   0.458163 0.057221 0.573411 0.106790
C47   C     C_R   0.495014 0.128220 0.500290 -0.077818
C48   C     C_R   0.529772 0.070590 0.424479 -0.193176
H15   H     H_    0.558014 0.900190 0.367966 0.225916
C49   C     C_R   0.529894 0.942598 0.424569 -0.120735
C50   C     C_R   0.495162 0.870167 0.500059 -0.114546
C51   C     C_R   0.575142 0.644667 0.140884 0.542773
C52   C     C_R   0.615960 0.690581 0.069401 0.468308
C53   C     C_R   0.615803 0.690905 0.928096 -0.437628
H16   H     H_    0.645412 0.740643 0.872896 0.245835
C54   C     C_R   0.574977 0.645380 0.857477 0.574019
C55   C     C_R   0.536479 0.571093 0.924702 -0.005716
C56   C     C_R   0.536519 0.570890 0.074462 -0.168165
N3    N     N_R   0.500460 0.501210 0.147910 -0.207236
C57   C     C_R   0.466064 0.431756 0.073786 0.700462
H17   H     H_    0.438241 0.375910 0.871837 0.153059
C58   C     C_R   0.466074 0.432092 0.926462 -0.127082
N4    N     N_R   0.500480 0.501290 0.852040 -0.194541
F1    F     F_    0.885896 0.845951 0.498324 -0.612684
F2    F     F_    0.041225 0.824945 0.352118 -0.624941
F3    F     F_    0.254047 0.494669 0.254906 -0.624964
F4    F     F_    0.431326 0.360077 0.141783 -0.655275
F5    F     F_    0.573652 0.691397 0.268832 -0.619473
F6    F     F_    0.653300 0.751938 0.137767 -0.593092
F7    F     F_    0.573552 0.693114 0.729652 -0.618720
F8    F     F_    0.113431 0.201972 0.656824 -0.540932
C59   C     C_2   0.744881 0.504633 0.229099 0.462657
H18   H     H_    0.722936 0.502933 0.135996 0.067256
O13   O     O_2   0.788678 0.507397 0.216279 -0.519410
C60   C     C_2   0.960984 0.162916 0.428280 0.547484
H19   H     H_    0.940248 0.074685 0.446484 0.127093
O14   O     O_2   0.998352 0.163557 0.361209 -0.478472
F9    F     F_    0.017391 0.205288 0.651871 -0.606462

loop_
_geom_bond_atom_site_label_1
_geom_bond_atom_site_label_2
_geom_bond_distance
_ccdc_geom_bond_type
C55   C56   1.444780 A    
C22   H3    1.084578 S    
C51   F5    1.335287 S    
C44   H14   1.079957 S    
C7    C8    1.394205 A    
C12   C15   1.407318 A    
C8    H4    1.082994 S    
Cu1   Cu2   2.713971 S    
C31   C32   1.400369 A    
C7    H5    1.082880 S    
Cu1   O7    1.947400 S    
C60   O14   1.221162 D    
N1    C11   1.434648 S    
C23   C24   1.407697 A    
C53   C54   1.381044 A    
C14   F8    1.358337 S    
O4    C2    1.308340 A    
O7    C4    1.309176 A    
C15   C37   1.399073 A    
C29   H2    1.083284 S    
C5    C13   1.408026 A    
C5    O9    1.349242 S    
C37   C40   1.392363 A    
C3    C50   1.445361 S    
Cu1   O5    1.953224 S    
C21   C22   1.397918 A    
C28   C32   1.415669 A    
C42   C43   1.391045 A    
O5    C3    1.299278 A    
C53   H16   1.083874 S    
C33   C36   1.413763 A    
C2    C16   1.473494 S    
C22   C23   1.399352 A    
C36   F9    1.357983 S    
C18   C20   1.418571 A    
C54   F7    1.337317 S    
C57   F4    1.354935 S    
Cu1   N4    2.039374 S    
C38   C39   1.391621 A    
C52   F6    1.357861 S    
C40   F2    1.356466 S    
C44   C45   1.414590 A    
C17   C30   1.402531 A    
C23   C27   1.402880 A    
C42   H12   1.082568 S    
C4    C17   1.474685 S    
O3    Cu1   1.948716 S    
H10   C48   1.084337 S    
C28   C59   1.486069 S    
C26   O12   1.349112 S    
C41   H11   1.081158 S    
C12   C13   1.410763 A    
O3    C2    1.307496 A    
C26   N2    1.367428 A    
C43   C44   1.394040 A    
C54   C55   1.437010 A    
C45   C50   1.415830 A    
C8    C16   1.406260 A    
C13   C14   1.405751 A    
C47   C48   1.393977 A    
C9    H1    1.082998 S    
C30   H8    1.082495 S    
O1    C1    1.298852 A    
C7    C11   1.399914 A    
C45   C46   1.414730 A    
C24   C25   1.411897 A    
C57   C58   1.421284 A    
C52   C53   1.363225 A    
Cu2   O8    1.948710 S    
N1    C6    1.367569 A    
C27   O10   1.349749 S    
C18   C21   1.426222 A    
C46   C47   1.414969 A    
C59   O13   1.220271 D    
C19   C35   1.420704 A    
C25   C39   1.404994 A    
N2    C27   1.366494 A    
C9    C16   1.405786 A    
O8    C4    1.307331 A    
C34   C35   1.418631 A    
C18   C33   1.420665 A    
C31   H9    1.083022 S    
C35   C40   1.418156 A    
C17   C29   1.405312 A    
C28   C29   1.400627 A    
N2    C32   1.433946 S    
C1    C47   1.443201 S    
H17   C58   1.081940 S    
C30   C31   1.392586 A    
C12   C34   1.416581 A    
C5    N1    1.368560 A    
C33   C34   1.415660 A    
O1    Cu1   1.953658 S    
C21   C60   1.485472 S    
C10   F3    1.356927 S    
O2    Cu2   1.953224 S    
C6    C15   1.402753 A    
C49   C50   1.395178 A    
O6    C3    1.300376 A    
O4    Cu2   1.947403 S    
Cu2   N3    2.039752 S    
C60   H19   1.085602 S    
C38   H7    1.078350 S    
C19   C20   1.418528 A    
O2    C1    1.299418 A    
C43   H13   1.082656 S    
C14   C36   1.393418 A    
C25   C26   1.408105 A    
C51   C56   1.436384 A    
C55   N4    1.393808 A    
C58   N4    1.366588 A    
C48   C49   1.378484 A    
C59   H18   1.085998 S    
C20   C24   1.416660 A    
C6    O11   1.349777 S    
H15   C49   1.082099 S    
C56   N3    1.394815 A    
Cu2   O6    1.953658 S    
C51   C52   1.382970 A    
C37   H6    1.083478 S    
C10   C11   1.401887 A    
C41   C46   1.414769 A    
C19   C38   1.410720 A    
C41   C42   1.394141 A    
N3    C57   1.369563 A    
C9    C10   1.394968 A    
C39   F1    1.358050 S    
