data_mof_unit_57794.cif
_audit_creation_date              2012-12-11T16:08:43-0500
_audit_creation_method            fapswitch 2.2
_symmetry_space_group_name_H-M    P1
_symmetry_Int_Tables_number       1
_space_group_crystal_system       triclinic
_cell_length_a                    12.930383
_cell_length_b                    13.287336
_cell_length_c                    27.699767
_cell_angle_alpha                 95.013566
_cell_angle_beta                  89.946377
_cell_angle_gamma                 119.056295
_cell_volume                      4139.51218829

loop_
_atom_site_label
_atom_site_type_symbol
_atom_type_description
_atom_site_fract_x
_atom_site_fract_y
_atom_site_fract_z
_atom_type_partial_charge
C1    C     C_R   0.626249 0.898288 0.426164 0.547267
C2    C     C_R   0.576204 0.319741 0.226149 -0.103197
C3    C     C_R   0.567507 0.306281 0.275718 -0.101702
C4    C     C_R   0.662112 0.311376 0.302495 0.040173
C5    C     C_R   0.679179 0.337447 0.202895 0.040291
C6    C     C_1   0.691460 0.362501 0.153004 -0.063990
C7    C     C_1   0.649547 0.291544 0.352987 -0.056000
C8    C     C_1   0.702099 0.392040 0.112521 -0.022666
C9    C     C_R   0.225293 0.769357 0.344442 -0.125512
C10   C     C_R   0.219939 0.768720 0.294660 0.014567
C11   C     C_R   0.209327 0.765208 0.193681 0.019398
C12   C     C_R   0.600973 0.221616 0.440390 0.546652
C13   C     C_R   0.238335 0.689827 0.215517 -0.126760
C14   C     C_R   0.239495 0.689112 0.265439 -0.128622
C15   C     C_R   0.192299 0.757163 0.143057 -0.021075
C16   C     C_R   0.141116 0.819154 0.123851 -0.012469
C17   C     C_R   0.205622 0.942498 0.354742 -0.111599
C18   C     C_R   0.191126 0.938543 0.304115 0.032788
C19   C     C_R   0.200787 0.851762 0.274068 0.018458
C20   C     C_R   0.171530 0.021531 0.283197 0.270043
C21   C     C_R   0.158400 0.013249 0.231997 -0.127162
C22   C     C_R   0.164904 0.925248 0.202635 -0.033024
C23   C     C_R   0.271726 0.877245 0.424794 0.544713
C24   C     C_R   0.191802 0.847565 0.223445 0.037146
C25   C     C_R   0.138001 0.909537 0.152900 -0.146882
C26   C     C_R   0.224900 0.859259 0.374798 -0.023176
C27   C     C_R   0.720029 0.966762 0.350169 -0.126533
C28   C     C_R   0.717090 0.956302 0.299997 0.009639
C29   C     C_R   0.717940 0.932922 0.199085 0.014979
C30   C     C_R   0.788140 0.041120 0.224930 -0.134332
C31   C     C_R   0.788243 0.052625 0.275264 -0.138759
C32   C     C_R   0.730689 0.917155 0.149710 -0.136655
C33   C     C_R   0.672102 0.805881 0.125279 -0.010356
C34   C     C_R   0.626714 0.899337 0.565255 0.547458
C35   C     C_R   0.566104 0.765815 0.349792 -0.135534
C36   C     C_R   0.565767 0.752472 0.299158 0.017133
C37   C     C_R   0.640566 0.848657 0.274250 0.065571
C38   C     C_R   0.491229 0.645542 0.272914 -0.137215
C39   C     C_R   0.493896 0.633025 0.222417 -0.136356
C40   C     C_R   0.570470 0.727598 0.197695 0.014363
C41   C     C_R   0.641321 0.836791 0.223599 0.065004
C42   C     C_R   0.585130 0.713120 0.148187 -0.130158
C43   C     C_R   0.642587 0.873206 0.375304 0.000569
C44   C     C_R   0.738218 0.296162 0.652500 -0.136292
C45   C     C_R   0.602257 0.226227 0.578793 0.545502
C46   C     C_R   0.750355 0.313869 0.703168 0.012962
C47   C     C_R   0.766903 0.337560 0.805351 0.014330
C48   C     C_R   0.860220 0.339790 0.778371 -0.133408
C49   C     C_R   0.851457 0.326967 0.727722 -0.154697
C50   C     C_R   0.776230 0.355922 0.856436 0.254649
C51   C     C_R   0.686456 0.367585 0.881319 -0.002139
C52   C     C_R   0.547746 0.290982 0.655449 -0.129573
C53   C     C_R   0.555754 0.302500 0.705649 0.012233
C54   C     C_R   0.657005 0.313276 0.729816 0.067688
C55   C     C_R   0.461105 0.297474 0.731881 -0.146432
C56   C     C_R   0.271962 0.879742 0.563498 0.544979
C57   C     C_R   0.467126 0.304633 0.782165 -0.132095
C58   C     C_R   0.568703 0.318789 0.806638 -0.001453
C59   C     C_R   0.664085 0.322546 0.780633 0.021533
C60   C     C_R   0.579286 0.337638 0.856724 -0.182409
C61   C     C_R   0.634631 0.279960 0.628735 -0.004826
C62   C     C_1   0.223952 0.864037 0.610559 -0.028854
C63   C     C_R   0.108008 0.736938 0.719757 -0.104429
C64   C     C_R   0.095025 0.727470 0.769493 -0.098362
C65   C     C_R   0.217060 0.935595 0.785926 -0.109102
C66   C     C_R   0.230105 0.945048 0.736102 -0.106346
C67   C     C_1   0.632091 0.266496 0.394147 -0.012979
C68   C     C_R   0.175197 0.845750 0.702941 0.032905
C69   C     C_R   0.149774 0.826639 0.802694 0.035181
C70   C     C_1   0.130339 0.815335 0.853524 -0.055561
C71   C     C_1   0.196733 0.854704 0.652176 -0.073687
C72   C     C_1   0.104116 0.798161 0.894910 -0.007506
C73   C     C_1   0.639440 0.868831 0.612398 -0.012284
C74   C     C_R   0.742815 0.917753 0.734560 -0.116495
C75   C     C_R   0.746864 0.909235 0.784294 -0.112689
C76   C     C_R   0.553676 0.737744 0.776203 -0.103303
C77   C     C_R   0.547622 0.746192 0.726100 0.008123
C78   C     C_R   0.764834 0.328049 0.279222 -0.102185
C79   C     C_R   0.644518 0.836400 0.705095 0.030540
C80   C     C_R   0.652688 0.819107 0.805188 0.024699
C81   C     C_1   0.663431 0.805029 0.855527 -0.063203
C82   C     C_1   0.643512 0.850777 0.654067 -0.056161
C83   C     C_1   0.681270 0.792595 0.896702 -0.021845
C84   C     C_R   0.068632 0.774493 0.078113 0.545295
C85   C     C_R   0.716773 0.440847 0.067151 0.538964
C86   C     C_R   0.718632 0.782915 0.080228 0.541456
C87   C     C_R   0.057226 0.766322 0.941420 0.544655
C88   C     C_R   0.709861 0.431959 0.929491 0.554276
C89   C     C_R   0.773527 0.341449 0.229530 -0.103736
C90   C     C_R   0.715931 0.776527 0.943267 0.541276
Cr1   Cr    Cr6+3 0.416430 0.829200 0.492370 1.021648
Cr2   Cr    Cr6+3 0.674630 0.087020 0.504170 1.017858
Cr3   Cr    Cr6+3 0.408920 0.083740 0.503490 1.029176
Cr4   Cr    Cr6+3 0.914010 0.832750 0.013970 1.007228
Cr5   Cr    Cr6+3 0.922310 0.578600 0.003000 1.049571
Cr6   Cr    Cr6+3 0.656280 0.574630 0.003870 1.004140
H1    H     H_    0.837968 0.330748 0.299433 0.097047
H2    H     H_    0.144013 0.075166 0.214373 0.096216
H3    H     H_    0.206219 0.011992 0.378529 0.175821
H4    H     H_    0.795151 0.989339 0.131480 0.121915
H5    H     H_    0.777746 0.050853 0.369426 0.134681
H6    H     H_    0.846131 0.115581 0.206355 0.098647
H7    H     H_    0.845443 0.136256 0.294885 0.094726
H8    H     H_    0.537502 0.627399 0.128857 0.135186
H9    H     H_    0.438482 0.548843 0.202854 0.103077
H10   H     H_    0.432566 0.571247 0.291463 0.099544
H11   H     H_    0.854130 0.356380 0.212081 0.100819
H12   H     H_    0.504993 0.694224 0.369172 0.116462
H13   H     H_    0.805753 0.288314 0.631915 0.121847
H14   H     H_    0.940647 0.352320 0.796218 0.143482
H15   H     H_    0.923916 0.327698 0.707767 0.107624
H16   H     H_    0.507646 0.340584 0.876048 0.139931
H17   H     H_    0.393550 0.301841 0.801941 0.104595
H18   H     H_    0.382028 0.286904 0.713496 0.095635
H19   H     H_    0.467889 0.279881 0.637456 0.136475
H20   H     H_    0.066744 0.659481 0.694515 0.111112
H21   H     H_    0.503251 0.317859 0.206102 0.104488
H22   H     H_    0.042065 0.642831 0.782071 0.126917
H23   H     H_    0.259128 0.012875 0.811232 0.108661
H24   H     H_    0.283849 0.029454 0.723470 0.117695
H25   H     H_    0.816790 0.988030 0.718997 0.112845
H26   H     H_    0.824429 0.971985 0.806366 0.106474
H27   H     H_    0.481164 0.667825 0.792624 0.111651
H28   H     H_    0.487002 0.291861 0.293148 0.127603
H29   H     H_    0.240827 0.704700 0.359279 0.136495
H30   H     H_    0.255812 0.627711 0.194535 0.118127
H31   H     H_    0.257400 0.627112 0.281310 0.104343
H32   H     H_    0.105213 0.961691 0.137622 0.130383
O1    O     O_R   0.296680 0.802170 0.437540 -0.521871
O2    O     O_R   0.662610 0.183990 0.557860 -0.502249
O3    O     O_R   0.500730 0.201280 0.562180 -0.520443
O4    O     O_R   0.312500 0.978850 0.548170 -0.492676
O5    O     O_3   0.499990 0.999990 0.500010 -0.244864
O6    O     O_R   0.820790 0.857990 0.068830 -0.520628
O7    O     O_R   0.016700 0.827330 0.062850 -0.505325
O8    O     O_R   0.041970 0.673520 0.060040 -0.503621
O9    O     O_R   0.817980 0.483660 0.048840 -0.504319
O10   O     O_R   0.637200 0.461990 0.052510 -0.514620
O11   O     O_R   0.664790 0.681920 0.057970 -0.507390
O12   O     O_R   0.525380 0.838530 0.443500 -0.500682
O13   O     O_R   0.815840 0.852920 0.961840 -0.515496
O14   O     O_R   0.012100 0.822630 0.963670 -0.501100
O15   O     O_R   0.037010 0.668460 0.953040 -0.484855
O16   O     O_R   0.813390 0.478970 0.949660 -0.448950
O17   O     O_R   0.632250 0.456930 0.945520 -0.533216
O18   O     O_R   0.660200 0.677230 0.958780 -0.496018
O19   O     O_3   0.830870 0.661990 0.006950 -0.242021
O20   O     O_R   0.702130 0.995190 0.446810 -0.521014
O21   O     O_R   0.661770 0.181390 0.458760 -0.500491
O22   O     O_R   0.499820 0.198480 0.455280 -0.502476
O23   O     O_R   0.311660 0.976250 0.449080 -0.499217
O24   O     O_R   0.297580 0.804960 0.544440 -0.514804
O25   O     O_R   0.526220 0.841130 0.542590 -0.492295
O26   O     O_R   0.703030 0.997990 0.553710 -0.510078
O27   O     O_3   0.175428 0.112553 0.314030 -0.586869
C91   C     C_3   0.105612 0.159134 0.297352 0.011901
H33   H     H_    0.061081 0.174982 0.329112 0.149387
H34   H     H_    0.032359 0.098801 0.270857 0.128055
C92   C     C_3   0.185287 0.275834 0.277805 -0.266005
H35   H     H_    0.246862 0.337434 0.307619 0.166174
H36   H     H_    0.239697 0.265773 0.248736 0.155168
C93   C     C_3   0.112785 0.326698 0.257682 -0.495325
H37   H     H_    0.053823 0.268551 0.226603 0.139182
H38   H     H_    0.173313 0.411995 0.244789 0.139815
H39   H     H_    0.058448 0.338921 0.286261 0.141215
O28   O     O_3   0.878231 0.375729 0.881407 -0.552864
C94   C     C_3   0.871230 0.268553 0.889038 -0.003731
H40   H     H_    0.963005 0.281995 0.890073 0.144844
H41   H     H_    0.821653 0.198861 0.859045 0.113876
C95   C     C_3   0.817124 0.228910 0.937713 -0.261536
H42   H     H_    0.869310 0.297602 0.967390 0.178983
H43   H     H_    0.724660 0.213540 0.937269 0.150272
C96   C     C_3   0.816051 0.117321 0.947794 -0.470653
H44   H     H_    0.762695 0.047094 0.918879 0.156934
H45   H     H_    0.776097 0.090526 0.983131 0.149886
H46   H     H_    0.907728 0.130600 0.949422 0.152247
C97   C     C_R   0.439627 0.660054 0.696979 0.029110
C98   C     C_R   0.400146 0.541219 0.697546 -0.102001
C99   C     C_R   0.296686 0.459491 0.671157 -0.114459
C100  C     C_R   0.231584 0.495640 0.644236 -0.107411
C101  C     C_R   0.269815 0.613558 0.643649 -0.102770
C102  C     C_R   0.373163 0.695654 0.670023 -0.074609
H47   H     H_    0.449760 0.512077 0.718288 0.113544
H48   H     H_    0.266816 0.368106 0.671621 0.098568
H49   H     H_    0.151352 0.432275 0.623924 0.105092
H50   H     H_    0.218908 0.641181 0.622926 0.125614
H51   H     H_    0.400536 0.786674 0.669853 0.120744
C103  C     C_R   0.228390 0.685739 0.110488 0.051271
C104  C     C_R   0.161383 0.564279 0.105646 -0.072835
C105  C     C_R   0.198383 0.498566 0.075759 -0.123757
C106  C     C_R   0.302125 0.553467 0.050572 -0.103075
C107  C     C_R   0.368753 0.674190 0.055047 -0.108224
C108  C     C_R   0.331998 0.740251 0.084838 -0.092255
H52   H     H_    0.081093 0.520999 0.125143 0.107593
H53   H     H_    0.146788 0.405088 0.072211 0.096936
H54   H     H_    0.330912 0.502493 0.027594 0.108102
H55   H     H_    0.449166 0.716564 0.035595 0.114650
H56   H     H_    0.384774 0.833713 0.088330 0.104113

loop_
_geom_bond_atom_site_label_1
_geom_bond_atom_site_label_2
_ccdc_geom_bond_type
C66   C68   A    
C84   O7    A    
Cr5   O15   S    
C105  C106  A    
C20   O27   S    
Cr2   O20   S    
C75   H26   S    
C53   C55   A    
C48   H14   S    
C35   C36   A    
Cr6   O11   S    
C98   C99   A    
C94   H41   S    
C96   H44   S    
C100  C101  A    
Cr6   O17   S    
C46   C49   A    
C93   H37   S    
C5    C6    S    
C33   C42   A    
C36   C37   A    
C25   H32   S    
Cr2   O26   S    
C18   C19   A    
C29   C32   A    
Cr3   O5    S    
C52   C61   A    
Cr6   O10   S    
Cr1   O24   S    
C65   C69   A    
C52   H19   S    
C95   H42   S    
C58   C60   A    
C97   C102  A    
C11   C24   A    
C16   C84   S    
C64   H22   S    
C23   O1    A    
C17   C18   A    
C8    C85   S    
C23   C26   S    
C45   C61   S    
Cr6   O19   S    
Cr1   O25   S    
C106  H54   S    
C35   H12   S    
C11   C15   A    
C104  H52   S    
C1    C43   S    
Cr2   O5    S    
C22   C25   A    
C86   O6    A    
C50   O28   S    
C88   O17   A    
C92   H36   S    
C47   C50   A    
Cr3   O4    S    
C35   C43   A    
C75   C80   A    
C18   C20   A    
C98   H47   S    
C49   H15   S    
C44   H13   S    
C40   C42   A    
C45   O2    A    
C66   H24   S    
C13   C14   A    
C76   H27   S    
C30   H6    S    
Cr3   O22   S    
C69   C70   S    
C4    C7    S    
C81   C83   T    
C2    H21   S    
C44   C46   A    
C9    C26   A    
C50   C51   A    
C94   C95   S    
C93   H38   S    
C54   C59   A    
C96   H45   S    
C78   C89   A    
C12   C67   S    
Cr5   O9    S    
C74   C75   A    
C106  C107  A    
Cr4   O14   S    
C47   C48   A    
C12   O22   A    
Cr5   O19   S    
C76   C77   A    
C10   C14   A    
C94   H40   S    
C6    C8    T    
C58   C59   A    
C101  C102  A    
C7    C67   T    
C27   H5    S    
C9    H29   S    
C14   H31   S    
C32   H4    S    
C103  C104  A    
C31   H7    S    
C38   H10   S    
Cr2   O2    S    
C33   C86   S    
C28   C31   A    
C4    C78   A    
C29   C30   A    
C60   H16   S    
C93   H39   S    
C92   H35   S    
Cr1   O5    S    
C10   C19   A    
C101  H50   S    
C46   C54   A    
C78   H1    S    
Cr4   O7    S    
C65   H23   S    
C92   C93   S    
C107  H55   S    
Cr1   O12   S    
C17   H3    S    
C56   O4    A    
C1    O12   A    
C86   O11   A    
C13   H30   S    
C105  H53   S    
C40   C41   A    
C103  C108  A    
C45   O3    A    
C34   O26   A    
C74   C79   A    
C55   C57   A    
C89   H11   S    
C44   C61   A    
C22   C24   A    
Cr3   O23   S    
C2    C5    A    
C56   O24   A    
C63   H20   S    
C3    C4    A    
C85   O9    A    
C73   C82   T    
C39   C40   A    
C72   C87   S    
Cr6   O18   S    
C52   C53   A    
C99   H48   S    
C9    C10   A    
C96   H46   S    
C16   C25   A    
C39   H9    S    
C83   C90   S    
C23   O23   A    
C63   C68   A    
C84   O8    A    
C29   C41   A    
Cr4   O13   S    
C12   O21   A    
C91   C92   S    
Cr4   O19   S    
C80   C81   S    
C42   H8    S    
C51   C88   S    
C79   C82   S    
C57   H17   S    
C76   C80   A    
C53   C54   A    
C108  H56   S    
Cr1   O1    S    
C55   H18   S    
C99   C100  A    
C64   C69   A    
C15   C103  S    
Cr2   O21   S    
C107  C108  A    
C3    H28   S    
C91   H34   S    
C19   C24   A    
C90   O18   A    
Cr3   O3    S    
C32   C33   A    
C21   H2    S    
C11   C13   A    
C30   C31   A    
C57   C58   A    
C38   C39   A    
O28   C94   S    
C95   H43   S    
C28   C37   A    
C68   C71   S    
C48   C49   A    
C36   C38   A    
Cr5   O8    S    
Cr4   O6    S    
C17   C26   A    
C62   C71   T    
C2    C3    A    
C56   C62   S    
C102  H51   S    
C65   C66   A    
C87   O14   A    
C37   C41   A    
C104  C105  A    
C77   C97   S    
C34   O25   A    
C90   O13   A    
C100  H49   S    
C34   C73   S    
C47   C59   A    
C63   C64   A    
C77   C79   A    
C27   C43   A    
Cr5   O16   S    
C74   H25   S    
C91   H33   S    
C20   C21   A    
C97   C98   A    
O27   C91   S    
C1    O20   A    
C70   C72   T    
C51   C60   A    
C87   O15   A    
C21   C22   A    
C85   O10   A    
C88   O16   A    
C5    C89   A    
C15   C16   A    
C27   C28   A    
C95   C96   S    
