data_mof_unit_37420.cif
_audit_creation_date              2012-12-11T15:06:51-0500
_audit_creation_method            fapswitch 2.2
_symmetry_space_group_name_H-M    P1
_symmetry_Int_Tables_number       1
_space_group_crystal_system       triclinic
_cell_length_a                    19.563671
_cell_length_b                    11.382942
_cell_length_c                    18.713479
_cell_angle_alpha                 89.998568
_cell_angle_beta                  90.074377
_cell_angle_gamma                 90.000493
_cell_volume                      4167.34102856

loop_
_atom_site_label
_atom_site_type_symbol
_atom_type_description
_atom_site_fract_x
_atom_site_fract_y
_atom_site_fract_z
_atom_type_partial_charge
C1    C     C_R   0.761243 0.523552 0.639184 0.535830
C2    C     C_R   0.238757 0.523549 0.360817 0.535831
C3    C     C_R   0.261243 0.023552 0.639184 0.535830
C4    C     C_R   0.738757 0.023549 0.360817 0.535830
C5    C     C_3   0.811179 0.130149 0.448945 -0.261266
C6    C     C_3   0.188821 0.130152 0.551053 -0.261270
C7    C     C_3   0.311179 0.630149 0.448945 -0.261266
C8    C     C_3   0.688821 0.630152 0.551053 -0.261270
C9    C     C_3   0.747127 0.056661 0.436705 0.067844
C10   C     C_3   0.252873 0.056665 0.563296 0.067847
C11   C     C_3   0.247127 0.556661 0.436705 0.067844
C12   C     C_3   0.752873 0.556665 0.563296 0.067847
C13   C     C_3   0.760037 0.090859 0.574109 0.065963
C14   C     C_3   0.239963 0.090858 0.425891 0.065962
C15   C     C_3   0.260037 0.590859 0.574109 0.065963
C16   C     C_3   0.739963 0.590858 0.425891 0.065962
C17   C     C_3   0.753367 0.959013 0.561900 -0.262462
C18   C     C_3   0.246633 0.959013 0.438104 -0.262468
C19   C     C_3   0.253367 0.459013 0.561900 -0.262462
C20   C     C_3   0.746633 0.459013 0.438104 -0.262468
C21   C     C_3   0.823310 0.133539 0.529952 -0.215479
C22   C     C_3   0.176690 0.133539 0.470046 -0.215479
C23   C     C_3   0.323310 0.633539 0.529952 -0.215479
C24   C     C_3   0.676690 0.633539 0.470046 -0.215479
C25   C     C_3   0.003703 0.205931 0.459003 -0.232689
C26   C     C_3   0.996296 0.205932 0.541001 -0.232684
C27   C     C_3   0.503703 0.705931 0.459003 -0.232689
C28   C     C_3   0.496296 0.705932 0.541001 -0.232684
C29   C     C_3   0.064803 0.405845 0.474292 -0.212248
C30   C     C_3   0.935197 0.405846 0.525706 -0.212253
C31   C     C_3   0.564803 0.905845 0.474292 -0.212249
C32   C     C_3   0.435197 0.905846 0.525706 -0.212253
C33   C     C_3   0.941260 0.390391 0.444612 -0.262768
C34   C     C_3   0.058740 0.390393 0.555386 -0.262770
C35   C     C_3   0.441260 0.890391 0.444612 -0.262768
C36   C     C_3   0.558740 0.890393 0.555386 -0.262770
C37   C     C_3   0.010462 0.333446 0.430914 0.064819
C38   C     C_3   0.989537 0.333448 0.569086 0.064819
C39   C     C_3   0.510462 0.833446 0.430914 0.064819
C40   C     C_3   0.489537 0.833448 0.569086 0.064819
C41   C     C_3   0.814757 0.022544 0.048090 -0.241368
C42   C     C_3   0.185248 0.022531 0.951911 -0.241375
C43   C     C_3   0.314757 0.522544 0.048090 -0.241369
C44   C     C_3   0.685249 0.522530 0.951911 -0.241375
C45   C     C_R   0.774022 0.121183 0.649428 0.538170
C46   C     C_R   0.225978 0.121181 0.350571 0.538181
C47   C     C_R   0.274022 0.621183 0.649428 0.538170
C48   C     C_R   0.725978 0.621182 0.350571 0.538180
C49   C     C_3   0.821669 0.047290 0.970488 -0.240608
C50   C     C_3   0.178324 0.047321 0.029506 -0.240616
C51   C     C_3   0.321669 0.547288 0.970488 -0.240608
C52   C     C_3   0.678325 0.547319 0.029505 -0.240612
C53   C     C_3   0.683924 0.039497 0.033942 -0.213639
C54   C     C_3   0.316075 0.039516 0.966062 -0.213651
C55   C     C_3   0.183924 0.539498 0.033942 -0.213639
C56   C     C_3   0.816075 0.539513 0.966061 -0.213647
C57   C     C_3   0.756940 0.210372 0.069085 -0.134641
C58   C     C_3   0.243048 0.210372 0.930894 -0.134636
C59   C     C_3   0.256941 0.710372 0.069084 -0.134641
C60   C     C_3   0.743049 0.710371 0.930896 -0.134637
C61   C     C_3   0.748387 0.076989 0.078156 0.083400
C62   C     C_3   0.251613 0.076989 0.921841 0.083398
C63   C     C_3   0.248387 0.576989 0.078156 0.083399
C64   C     C_3   0.751613 0.576988 0.921841 0.083398
C65   C     C_3   0.760809 0.117723 0.940106 0.044989
C66   C     C_3   0.239183 0.117757 0.059886 0.044973
C67   C     C_3   0.260809 0.617723 0.940106 0.044989
C68   C     C_3   0.739185 0.617752 0.059886 0.044974
C69   C     C_3   0.696286 0.044016 0.952648 -0.264180
C70   C     C_3   0.303711 0.044061 0.047355 -0.264118
C71   C     C_3   0.196285 0.544018 0.952648 -0.264179
C72   C     C_3   0.803712 0.544053 0.047355 -0.264122
C73   C     C_3   0.749085 0.233547 0.986265 -0.205170
C74   C     C_3   0.250904 0.233573 0.013711 -0.205225
C75   C     C_3   0.249085 0.733548 0.986265 -0.205169
C76   C     C_3   0.750906 0.733570 0.013713 -0.205223
C77   C     C_3   0.004669 0.481677 0.040237 -0.225155
C78   C     C_3   0.995324 0.481674 0.959763 -0.225153
C79   C     C_3   0.504669 0.981678 0.040237 -0.225156
C80   C     C_3   0.495323 0.981674 0.959763 -0.225154
C81   C     C_3   0.063818 0.280878 0.026970 -0.217139
C82   C     C_3   0.936168 0.280876 0.973039 -0.217142
C83   C     C_3   0.563817 0.780878 0.026970 -0.217141
C84   C     C_3   0.436168 0.780877 0.973040 -0.217144
C85   C     C_3   0.940798 0.298419 0.054844 -0.267050
C86   C     C_3   0.059189 0.298410 0.945165 -0.267051
C87   C     C_3   0.440798 0.798420 0.054845 -0.267049
C88   C     C_3   0.559188 0.798410 0.945165 -0.267051
C89   C     C_R   0.969045 0.342280 0.645061 0.534460
C90   C     C_R   0.030955 0.342278 0.354939 0.534456
C91   C     C_R   0.469045 0.842280 0.645061 0.534460
C92   C     C_R   0.530955 0.842278 0.354939 0.534456
C93   C     C_3   0.010330 0.354227 0.069476 0.064055
C94   C     C_3   0.989660 0.354222 0.930529 0.064054
C95   C     C_3   0.510330 0.854228 0.069476 0.064055
C96   C     C_3   0.489659 0.854222 0.930530 0.064054
C97   C     C_R   0.760252 0.534385 0.847749 0.535287
C98   C     C_R   0.239750 0.534392 0.152253 0.535276
C99   C     C_R   0.260252 0.034384 0.847749 0.535288
C100  C     C_R   0.739750 0.034392 0.152253 0.535277
C101  C     C_R   0.776371 0.140933 0.861810 0.533233
C102  C     C_R   0.223615 0.140973 0.138180 0.533259
C103  C     C_R   0.276371 0.640933 0.861810 0.533233
C104  C     C_R   0.723618 0.640966 0.138180 0.533245
C105  C     C_R   0.968582 0.353766 0.853850 0.533866
C106  C     C_R   0.031412 0.353768 0.146154 0.533857
C107  C     C_R   0.468581 0.853767 0.853850 0.533868
C108  C     C_R   0.531413 0.853768 0.146153 0.533859
C109  C     C_3   0.687197 0.132269 0.465063 -0.234061
C110  C     C_3   0.312804 0.132271 0.534935 -0.234066
C111  C     C_3   0.187197 0.632269 0.465063 -0.234061
C112  C     C_3   0.812804 0.632271 0.534935 -0.234066
C113  C     C_3   0.692422 0.145708 0.546231 -0.231487
C114  C     C_3   0.307579 0.145710 0.453767 -0.231486
C115  C     C_3   0.192421 0.645708 0.546231 -0.231487
C116  C     C_3   0.807579 0.645710 0.453767 -0.231486
C117  C     C_3   0.756622 0.939869 0.480670 -0.216087
C118  C     C_3   0.243378 0.939872 0.519334 -0.216082
C119  C     C_3   0.256622 0.439869 0.480670 -0.216087
C120  C     C_3   0.743378 0.439872 0.519334 -0.216082
Cr1   Cr    Cr6+3 0.885690 0.492860 0.745310 0.985662
Cr2   Cr    Cr6+3 0.114310 0.492860 0.254690 0.985661
Cr3   Cr    Cr6+3 0.385690 0.992860 0.745310 0.985662
Cr4   Cr    Cr6+3 0.614310 0.992860 0.254690 0.985661
Cr5   Cr    Cr6+3 0.729880 0.332270 0.748190 0.992149
Cr6   Cr    Cr6+3 0.270120 0.332270 0.251810 0.992149
Cr7   Cr    Cr6+3 0.229880 0.832270 0.748190 0.992149
Cr8   Cr    Cr6+3 0.770120 0.832270 0.251810 0.992150
Cr9   Cr    Cr6+3 0.888120 0.178590 0.753010 0.991426
Cr10  Cr    Cr6+3 0.111880 0.178590 0.246990 0.991425
Cr11  Cr    Cr6+3 0.388120 0.678590 0.753010 0.991426
Cr12  Cr    Cr6+3 0.611880 0.678590 0.246990 0.991427
H1    H     H_    0.637893 0.096402 0.450039 0.131469
H2    H     H_    0.362108 0.096403 0.549960 0.131472
H3    H     H_    0.137893 0.596402 0.450039 0.131469
H4    H     H_    0.862108 0.596403 0.549960 0.131472
H5    H     H_    0.864108 0.068405 0.540537 0.126594
H6    H     H_    0.135892 0.068404 0.459463 0.126593
H7    H     H_    0.364108 0.568405 0.540537 0.126594
H8    H     H_    0.635893 0.568404 0.459463 0.126593
H9    H     H_    0.809372 0.909567 0.469848 0.124836
H10   H     H_    0.190627 0.909570 0.530158 0.124840
H11   H     H_    0.309372 0.409567 0.469848 0.124836
H12   H     H_    0.690627 0.409570 0.530158 0.124840
H13   H     H_    0.795633 0.911103 0.588898 0.119492
H14   H     H_    0.204367 0.911102 0.411108 0.119490
H15   H     H_    0.295633 0.411103 0.588898 0.119492
H16   H     H_    0.704367 0.411102 0.411108 0.119490
H17   H     H_    0.046121 0.151620 0.441902 0.130973
H18   H     H_    0.953878 0.151621 0.558105 0.130978
H19   H     H_    0.546121 0.651620 0.441902 0.130973
H20   H     H_    0.453878 0.651621 0.558105 0.130978
H21   H     H_    0.958789 0.162811 0.434549 0.106873
H22   H     H_    0.041210 0.162814 0.565457 0.106873
H23   H     H_    0.458789 0.662811 0.434549 0.106873
H24   H     H_    0.541211 0.662814 0.565457 0.106873
H25   H     H_    0.616831 0.891062 0.455550 0.112756
H26   H     H_    0.383169 0.891064 0.544449 0.112754
H27   H     H_    0.116831 0.391062 0.455550 0.112756
H28   H     H_    0.883169 0.391064 0.544449 0.112754
H29   H     H_    0.600702 0.835291 0.576561 0.103685
H30   H     H_    0.399297 0.835287 0.423440 0.103684
H31   H     H_    0.100702 0.335291 0.576561 0.103685
H32   H     H_    0.899297 0.335288 0.423440 0.103684
H33   H     H_    0.937959 0.477031 0.417597 0.121813
H34   H     H_    0.062040 0.477035 0.582398 0.121810
H35   H     H_    0.437959 0.977031 0.417597 0.121813
H36   H     H_    0.562040 0.977035 0.582398 0.121810
H37   H     H_    0.947552 0.499211 0.535966 0.129923
H38   H     H_    0.052448 0.499209 0.464028 0.129930
H39   H     H_    0.447552 0.999211 0.535966 0.129923
H40   H     H_    0.552448 0.999209 0.464028 0.129930
H41   H     H_    0.816609 0.927842 0.056453 0.139568
H42   H     H_    0.183418 0.927826 0.943573 0.139554
H43   H     H_    0.316609 0.427842 0.056453 0.139567
H44   H     H_    0.683419 0.427825 0.943572 0.139556
H45   H     H_    0.687892 0.220166 0.439648 0.106048
H46   H     H_    0.312111 0.220168 0.560348 0.106046
H47   H     H_    0.187892 0.720166 0.439648 0.106048
H48   H     H_    0.812111 0.720168 0.560348 0.106046
H49   H     H_    0.860329 0.056656 0.077095 0.113753
H50   H     H_    0.139673 0.056600 0.922892 0.113776
H51   H     H_    0.360329 0.556655 0.077094 0.113753
H52   H     H_    0.639674 0.556600 0.922892 0.113775
H53   H     H_    0.868475 0.093009 0.961601 0.125865
H54   H     H_    0.131536 0.093091 0.038355 0.125824
H55   H     H_    0.368475 0.593006 0.961600 0.125866
H56   H     H_    0.631537 0.593095 0.038353 0.125824
H57   H     H_    0.830741 0.964595 0.943014 0.132065
H58   H     H_    0.169213 0.964659 0.057002 0.132098
H59   H     H_    0.330739 0.464594 0.943014 0.132065
H60   H     H_    0.669210 0.464656 0.057002 0.132094
H61   H     H_    0.662530 0.956001 0.051353 0.109903
H62   H     H_    0.337466 0.956010 0.948670 0.109892
H63   H     H_    0.162530 0.456003 0.051353 0.109903
H64   H     H_    0.837467 0.456007 0.948666 0.109894
H65   H     H_    0.700871 0.954266 0.932423 0.115342
H66   H     H_    0.299133 0.954319 0.067600 0.115333
H67   H     H_    0.200870 0.454268 0.932422 0.115341
H68   H     H_    0.799132 0.454307 0.067596 0.115334
H69   H     H_    0.809098 0.235753 0.085872 0.124300
H70   H     H_    0.190887 0.235731 0.914107 0.124302
H71   H     H_    0.309098 0.735752 0.085871 0.124302
H72   H     H_    0.690888 0.735732 0.914109 0.124300
H73   H     H_    0.780223 0.306385 0.968618 0.097829
H74   H     H_    0.219757 0.306403 0.031345 0.097823
H75   H     H_    0.280223 0.806386 0.968617 0.097829
H76   H     H_    0.719760 0.806400 0.031349 0.097825
H77   H     H_    0.695475 0.259915 0.977281 0.122009
H78   H     H_    0.304510 0.259963 0.022690 0.122006
H79   H     H_    0.195475 0.759915 0.977281 0.122009
H80   H     H_    0.804513 0.759957 0.022692 0.122005
H81   H     H_    0.644111 0.105225 0.045455 0.125239
H82   H     H_    0.355887 0.105245 0.954538 0.125234
H83   H     H_    0.144111 0.605226 0.045456 0.125239
H84   H     H_    0.855888 0.605243 0.954538 0.125235
H85   H     H_    0.687762 0.237726 0.561396 0.137515
H86   H     H_    0.312238 0.237728 0.438599 0.137522
H87   H     H_    0.187762 0.737726 0.561396 0.137515
H88   H     H_    0.812238 0.737728 0.438599 0.137522
H89   H     H_    0.651901 0.084681 0.925030 0.110821
H90   H     H_    0.348093 0.084750 0.074966 0.110832
H91   H     H_    0.151900 0.584685 0.925030 0.110821
H92   H     H_    0.848095 0.584739 0.074967 0.110829
H93   H     H_    0.049109 0.534430 0.053916 0.131580
H94   H     H_    0.950885 0.534427 0.946082 0.131582
H95   H     H_    0.549109 0.034430 0.053915 0.131580
H96   H     H_    0.450884 0.034427 0.946083 0.131581
H97   H     H_    0.961128 0.528038 0.065808 0.114534
H98   H     H_    0.038866 0.528032 0.934190 0.114537
H99   H     H_    0.461128 0.028039 0.065808 0.114535
H100  H     H_    0.538865 0.028032 0.934189 0.114538
H101  H     H_    0.615476 0.791341 0.047511 0.109241
H102  H     H_    0.384510 0.791335 0.952497 0.109256
H103  H     H_    0.115476 0.291341 0.047512 0.109241
H104  H     H_    0.884511 0.291332 0.952496 0.109256
H105  H     H_    0.600700 0.856070 0.925795 0.107351
H106  H     H_    0.399289 0.856087 0.074210 0.107349
H107  H     H_    0.100700 0.356071 0.925795 0.107351
H108  H     H_    0.899289 0.356086 0.074210 0.107349
H109  H     H_    0.936171 0.212771 0.082878 0.106180
H110  H     H_    0.063815 0.212755 0.917139 0.106181
H111  H     H_    0.436171 0.712771 0.082878 0.106180
H112  H     H_    0.563814 0.712755 0.917139 0.106182
H113  H     H_    0.951798 0.189217 0.962661 0.123852
H114  H     H_    0.048186 0.189220 0.037360 0.123865
H115  H     H_    0.451796 0.689218 0.962661 0.123852
H116  H     H_    0.548185 0.689220 0.037360 0.123865
H117  H     H_    0.648080 0.102914 0.572117 0.106941
H118  H     H_    0.351921 0.102917 0.427882 0.106941
H119  H     H_    0.148080 0.602914 0.572117 0.106941
H120  H     H_    0.851921 0.602917 0.427882 0.106941
H121  H     H_    0.722374 0.869570 0.463768 0.108348
H122  H     H_    0.277625 0.869573 0.536240 0.108352
H123  H     H_    0.222374 0.369570 0.463768 0.108348
H124  H     H_    0.777625 0.369573 0.536240 0.108352
H125  H     H_    0.704809 0.925325 0.584296 0.104070
H126  H     H_    0.295191 0.925326 0.415710 0.104072
H127  H     H_    0.204809 0.425325 0.584296 0.104070
H128  H     H_    0.795191 0.425326 0.415710 0.104072
H129  H     H_    0.855604 0.089581 0.421590 0.122732
H130  H     H_    0.144396 0.089584 0.578409 0.122731
H131  H     H_    0.355604 0.589581 0.421590 0.122732
H132  H     H_    0.644396 0.589584 0.578409 0.122731
H133  H     H_    0.804731 0.219898 0.427074 0.103446
H134  H     H_    0.195270 0.219901 0.572920 0.103446
H135  H     H_    0.304731 0.719898 0.427074 0.103446
H136  H     H_    0.695270 0.719901 0.572920 0.103446
H137  H     H_    0.841782 0.219502 0.547453 0.113097
H138  H     H_    0.158218 0.219501 0.452540 0.113099
H139  H     H_    0.341782 0.719502 0.547453 0.113097
H140  H     H_    0.658218 0.719501 0.452540 0.113099
O1    O     O_R   0.957210 0.449410 0.665480 -0.532801
O2    O     O_R   0.042790 0.449410 0.334520 -0.532803
O3    O     O_R   0.457210 0.949410 0.665480 -0.532801
O4    O     O_R   0.542790 0.949410 0.334520 -0.532803
O5    O     O_R   0.736260 0.212010 0.826560 -0.507913
O6    O     O_R   0.263740 0.212010 0.173440 -0.507913
O7    O     O_R   0.236260 0.712010 0.826560 -0.507913
O8    O     O_R   0.763740 0.712010 0.173440 -0.507908
O9    O     O_R   0.832520 0.095300 0.836000 -0.533285
O10   O     O_R   0.167480 0.095300 0.164000 -0.533287
O11   O     O_R   0.332520 0.595300 0.836000 -0.533285
O12   O     O_R   0.667480 0.595300 0.164000 -0.533282
O13   O     O_R   0.946380 0.253940 0.826940 -0.513001
O14   O     O_R   0.053620 0.253940 0.173060 -0.513013
O15   O     O_R   0.446380 0.753940 0.826940 -0.513001
O16   O     O_R   0.553620 0.753940 0.173060 -0.513011
O17   O     O_3   0.834560 0.334570 0.748840 -0.273711
O18   O     O_3   0.165440 0.334570 0.251160 -0.273720
O19   O     O_3   0.334560 0.834570 0.748840 -0.273711
O20   O     O_3   0.665440 0.834570 0.251160 -0.273717
O21   O     O_R   0.820730 0.541240 0.668250 -0.517085
O22   O     O_R   0.179270 0.541240 0.331750 -0.517084
O23   O     O_R   0.320730 0.041240 0.668250 -0.517085
O24   O     O_R   0.679270 0.041240 0.331750 -0.517085
O25   O     O_R   0.714240 0.455060 0.663710 -0.533641
O26   O     O_R   0.285760 0.455060 0.336290 -0.533641
O27   O     O_R   0.214240 0.955060 0.663710 -0.533641
O28   O     O_R   0.785760 0.955060 0.336290 -0.533641
O29   O     O_R   0.736780 0.204870 0.675910 -0.514691
O30   O     O_R   0.263220 0.204870 0.324090 -0.514688
O31   O     O_R   0.236780 0.704870 0.675910 -0.514691
O32   O     O_R   0.763220 0.704870 0.324090 -0.514688
O33   O     O_R   0.833070 0.087590 0.673490 -0.529790
O34   O     O_R   0.166930 0.087590 0.326510 -0.529785
O35   O     O_R   0.333070 0.587590 0.673490 -0.529790
O36   O     O_R   0.666930 0.587590 0.326510 -0.529785
O37   O     O_R   0.946890 0.246800 0.676300 -0.512620
O38   O     O_R   0.053110 0.246800 0.323700 -0.512619
O39   O     O_R   0.446890 0.746800 0.676300 -0.512620
O40   O     O_R   0.553110 0.746800 0.323700 -0.512619
O41   O     O_R   0.956650 0.457120 0.827980 -0.531034
O42   O     O_R   0.043350 0.457120 0.172020 -0.531030
O43   O     O_R   0.456650 0.957120 0.827980 -0.531034
O44   O     O_R   0.543350 0.957120 0.172020 -0.531030
O45   O     O_R   0.820220 0.548390 0.818890 -0.516350
O46   O     O_R   0.179780 0.548390 0.181110 -0.516347
O47   O     O_R   0.320220 0.048390 0.818890 -0.516350
O48   O     O_R   0.679780 0.048390 0.181110 -0.516347
O49   O     O_R   0.713680 0.462770 0.826210 -0.537038
O50   O     O_R   0.286320 0.462770 0.173790 -0.537037
O51   O     O_R   0.213680 0.962770 0.826210 -0.537038
O52   O     O_R   0.786320 0.962770 0.173790 -0.537037
C121  C     C_3   0.708356 0.280458 0.118734 -0.415907
H141  H     H_    0.708530 0.246974 0.174061 0.161203
H142  H     H_    0.727351 0.369245 0.129221 0.125370
H143  H     H_    0.654922 0.281523 0.098890 0.128591
C122  C     C_3   0.291621 0.280459 0.881229 -0.415895
H144  H     H_    0.291438 0.246966 0.825904 0.161196
H145  H     H_    0.272624 0.369245 0.870738 0.125355
H146  H     H_    0.345060 0.281525 0.901062 0.128610
C123  C     C_3   0.208358 0.780460 0.118734 -0.415909
H147  H     H_    0.208531 0.746975 0.174060 0.161203
H148  H     H_    0.227354 0.869245 0.129220 0.125371
H149  H     H_    0.154924 0.781527 0.098890 0.128591
C124  C     C_3   0.791622 0.780459 0.881231 -0.415895
H150  H     H_    0.791440 0.746967 0.825906 0.161196
H151  H     H_    0.772625 0.869245 0.870739 0.125355
H152  H     H_    0.845061 0.781525 0.901064 0.128609

loop_
_geom_bond_atom_site_label_1
_geom_bond_atom_site_label_2
_ccdc_geom_bond_type
C78   H94   S    
C5    H133  S    
C82   C94   S    
C119  H11   S    
C120  H12   S    
C21   H5    S    
C53   C69   S    
C104  O8    A    
C124  H150  S    
C43   C63   S    
C123  H147  S    
C44   C64   S    
Cr6   O6    S    
Cr11  O35   S    
C84   H115  S    
C114  H86   S    
C63   C98   S    
Cr2   O2    S    
C19   H127  S    
C35   C39   S    
C31   H40   S    
C28   C40   S    
C72   H92   S    
C36   H36   S    
C30   C38   S    
C113  H85   S    
C75   H75   S    
C56   C72   S    
C45   O33   A    
C8    H132  S    
C18   C118  S    
C81   C86   S    
C83   C88   S    
C87   H106  S    
C48   O32   A    
C89   O1    A    
C41   C49   S    
C111  H3    S    
Cr8   O28   S    
Cr1   O45   S    
Cr2   O42   S    
Cr3   O47   S    
Cr4   O48   S    
C18   H14   S    
C26   C38   S    
Cr10  O34   S    
C14   C114  S    
Cr11  O39   S    
C60   C76   S    
C24   H8    S    
Cr8   O52   S    
C30   H37   S    
C88   H112  S    
C54   C70   S    
C48   O36   A    
C68   C72   S    
C23   H139  S    
C59   C123  S    
C97   O45   A    
C13   C21   S    
C99   O47   A    
C79   H99   S    
C31   H25   S    
C64   C97   S    
C36   H29   S    
C15   C115  S    
C20   C120  S    
C124  H152  S    
C123  H149  S    
C101  O5    A    
C54   H82   S    
C77   H97   S    
Cr4   O20   S    
C57   C61   S    
C82   C85   S    
Cr6   O50   S    
C59   C63   S    
Cr11  O19   S    
C60   C64   S    
Cr9   O13   S    
C13   C45   S    
C102  O6    A    
C78   C94   S    
C43   H51   S    
C69   H89   S    
C95   C108  S    
C62   C99   S    
C107  O43   A    
C5    C21   S    
C58   H70   S    
C79   H95   S    
C110  H46   S    
C31   C36   S    
C47   O35   A    
C4    O28   A    
Cr5   O17   S    
C90   O38   A    
C54   H62   S    
Cr1   O21   S    
C84   H102  S    
Cr2   O18   S    
C65   C101  S    
Cr10  O14   S    
Cr3   O23   S    
Cr11  O11   S    
C67   C103  S    
C66   C70   S    
C37   C90   S    
C24   H140  S    
C73   H77   S    
C55   H83   S    
C115  H119  S    
C111  H47   S    
C113  H117  S    
C25   H17   S    
C57   C73   S    
C121  H142  S    
C53   C61   S    
C60   H72   S    
C83   H101  S    
C55   C63   S    
C6    H134  S    
C56   C64   S    
C7    H131  S    
Cr7   O51   S    
C116  H88   S    
C42   C62   S    
C112  H48   S    
Cr5   O29   S    
C76   H80   S    
C70   H66   S    
C56   H64   S    
C122  H145  S    
C1    C12   S    
Cr9   O33   S    
C112  H4    S    
C2    C11   S    
Cr3   O3    S    
C7    C11   S    
C6    H130  S    
C42   H42   S    
Cr9   O37   S    
C25   C26   S    
C105  O13   A    
C58   C122  S    
C107  O15   A    
C5    C9    S    
C108  O16   A    
C109  H45   S    
C93   C106  S    
C8    C12   S    
C90   O2    A    
C51   C67   S    
C7    H135  S    
C42   C50   S    
Cr2   O46   S    
Cr3   O43   S    
C110  H2    S    
C61   C100  S    
C67   C75   S    
C17   H125  S    
C50   H54   S    
C112  C116  S    
C51   H59   S    
C58   C74   S    
Cr10  O38   S    
C41   H41   S    
C53   H81   S    
C81   H114  S    
C33   H33   S    
C44   H44   S    
C68   C76   S    
C1    O21   A    
C98   O46   A    
C85   H108  S    
C14   C22   S    
C3    O23   A    
C7    C23   S    
C8    C24   S    
C40   C91   S    
C101  O9    A    
C56   H84   S    
Cr7   O27   S    
C99   O51   A    
Cr8   O20   S    
C49   H53   S    
C57   H69   S    
C52   H56   S    
Cr7   O7    S    
C4    C9    S    
Cr4   O24   S    
Cr8   O8    S    
C86   H110  S    
C58   C62   S    
C5    H129  S    
C88   C96   S    
C94   C105  S    
C77   H93   S    
C82   H104  S    
C53   H61   S    
C80   H100  S    
C55   H63   S    
C12   C112  S    
C21   H137  S    
C14   C46   S    
C77   C78   S    
C42   H50   S    
C15   C19   S    
C75   H79   S    
C1    O25   A    
C92   O40   A    
C6    C22   S    
C60   C124  S    
C66   C102  S    
C73   H73   S    
Cr6   O18   S    
Cr2   O22   S    
C103  O7    A    
Cr3   O19   S    
C46   O34   A    
C82   H113  S    
C17   C117  S    
C19   C119  S    
C27   H23   S    
C41   H49   S    
C81   H103  S    
C2    O22   A    
Cr12  O36   S    
C16   C116  S    
C124  H151  S    
C76   H76   S    
C123  H148  S    
C9    C109  S    
C25   H21   S    
C26   H18   S    
C19   H15   S    
C105  O41   A    
C54   C62   S    
C57   C121  S    
C109  H1    S    
C29   C34   S    
C108  O44   A    
C33   C37   S    
C41   C61   S    
C17   H13   S    
C79   C95   S    
Cr5   O25   S    
Cr6   O30   S    
C85   H109  S    
C86   H107  S    
C80   H96   S    
Cr12  O12   S    
C32   H39   S    
C91   O39   A    
C100  O52   A    
C39   C92   S    
C27   H19   S    
C106  O14   A    
C14   C18   S    
C68   C104  S    
C119  H123  S    
C6    C10   S    
C71   H67   S    
C13   C17   S    
C78   H98   S    
C22   H6    S    
Cr5   O49   S    
C91   O3    A    
C104  O12   A    
C43   C51   S    
Cr5   O5    S    
C65   C69   S    
C77   C93   S    
C70   H90   S    
C10   C110  S    
C67   C71   S    
C121  H141  S    
C50   H58   S    
Cr1   O1    S    
C18   H126  S    
C51   H55   S    
C3    O27   A    
C59   H71   S    
C29   C37   S    
C11   C111  S    
C34   H34   S    
C66   C74   S    
C43   H43   S    
C9    C117  S    
C122  H144  S    
C102  O10   A    
C117  H9    S    
C84   C87   S    
C15   C47   S    
C8    H136  S    
C11   C119  S    
C16   C48   S    
C29   H27   S    
C30   H28   S    
C38   C89   S    
C49   C65   S    
C74   H78   S    
C23   H7    S    
Cr7   O31   S    
Cr8   O32   S    
C49   H57   S    
Cr1   O41   S    
C114  H118  S    
C65   C73   S    
C52   H60   S    
Cr4   O44   S    
C118  H122  S    
C25   C37   S    
C12   C120  S    
C27   C39   S    
C83   H116  S    
C35   H35   S    
Cr12  O20   S    
C55   C71   S    
C29   H38   S    
C80   C96   S    
C86   C94   S    
C44   H52   S    
C52   C68   S    
C16   C20   S    
C22   H138  S    
C15   C23   S    
Cr9   O17   S    
C16   C24   S    
C69   H65   S    
C115  H87   S    
C85   C93   S    
C2    O26   A    
C103  O11   A    
C32   H26   S    
C35   H30   S    
C71   H91   S    
C117  H121  S    
C120  H124  S    
C32   C35   S    
C36   C40   S    
C33   H32   S    
C34   H31   S    
C97   O49   A    
Cr7   O19   S    
C116  H120  S    
C87   C95   S    
C121  H143  S    
C46   O30   A    
C10   C118  S    
C72   H68   S    
C81   C93   S    
C87   H111  S    
C83   C95   S    
Cr10  O18   S    
C20   H16   S    
Cr12  O40   S    
Cr9   O9    S    
C50   C66   S    
C100  O48   A    
C20   H128  S    
C28   H20   S    
C45   O29   A    
C122  H146  S    
C26   H22   S    
C92   O4    A    
C59   C75   S    
C106  O42   A    
C74   H74   S    
C110  C114  S    
C30   C33   S    
C34   C38   S    
C96   C107  S    
C47   O31   A    
C4    O24   A    
C118  H10   S    
C89   O37   A    
Cr6   O26   S    
C109  C113  S    
Cr1   O17   S    
Cr10  O10   S    
C3    C10   S    
Cr11  O15   S    
Cr4   O4    S    
C44   C52   S    
Cr12  O16   S    
C88   H105  S    
C31   C39   S    
C32   C40   S    
C79   C80   S    
C98   O50   A    
C27   C28   S    
C28   H24   S    
C111  C115  S    
C84   C96   S    
C13   C113  S    
