data_mof_unit_38137.cif
_audit_creation_date              2012-12-10T17:35:45-0500
_audit_creation_method            fapswitch 2.2
_symmetry_space_group_name_H-M    P1
_symmetry_Int_Tables_number       1
_space_group_crystal_system       triclinic
_cell_length_a                    10.50373
_cell_length_b                    12.086265
_cell_length_c                    12.797617
_cell_angle_alpha                 94.301352
_cell_angle_beta                  91.025391
_cell_angle_gamma                 87.089754
_cell_volume                      1617.84110913

loop_
_atom_site_label
_atom_site_type_symbol
_atom_type_description
_atom_site_fract_x
_atom_site_fract_y
_atom_site_fract_z
_atom_type_partial_charge
C1    C     C_R   0.498447 0.522629 0.700255 0.869103
C2    C     C_R   0.500733 0.477276 0.299769 0.859508
C3    C     C_R   0.554878 0.455072 0.868498 -0.269702
C4    C     C_R   0.442342 0.544322 0.131663 -0.280817
C5    C     C_R   0.536735 0.456135 0.974776 0.185064
C6    C     C_R   0.459214 0.542497 0.025175 0.187835
C7    C     C_R   0.393198 0.947129 0.391465 0.362561
C8    C     C_R   0.636896 0.049298 0.586808 0.372670
C9    C     C_R   0.399129 0.833940 0.406189 -0.081044
C10   C     C_R   0.619380 0.164946 0.578539 -0.150734
C11   C     C_R   0.554132 0.858616 0.542408 0.310753
C12   C     C_R   0.443850 0.138851 0.461728 0.275416
C13   C     C_R   0.553047 0.975895 0.531033 -0.089434
C14   C     C_R   0.463101 0.021180 0.460241 -0.168467
C15   C     C_R   0.741927 0.500544 0.499845 0.893403
C16   C     C_R   0.258066 0.499714 0.501226 0.887473
C17   C     C_3   0.963830 0.393072 0.489421 -0.253543
C18   C     C_3   0.036131 0.608306 0.513001 -0.258131
C19   C     C_3   0.044767 0.444754 0.580394 0.226485
C20   C     C_3   0.955096 0.556708 0.421924 0.206747
C21   C     C_3   0.123599 0.500436 0.502048 -0.176033
C22   C     C_3   0.876335 0.500625 0.500336 -0.176782
C23   C     C_3   0.042408 0.451759 0.411252 0.186318
C24   C     C_3   0.957425 0.549622 0.591028 0.191832
C25   C     C_R   0.503694 0.462532 0.188122 -0.045396
C26   C     C_R   0.493464 0.536757 0.811910 -0.046747
C27   C     C_R   0.400898 0.626176 0.968540 -0.210086
C28   C     C_R   0.593729 0.371646 0.031187 -0.218952
C29   C     C_R   0.417434 0.622863 0.861270 -0.231604
C30   C     C_R   0.576897 0.374727 0.138427 -0.212022
H1    H     H_    0.931281 0.306870 0.480164 0.162179
H2    H     H_    0.068364 0.694587 0.522810 0.171624
H3    H     H_    0.384236 0.611059 0.171226 0.150067
H4    H     H_    0.613995 0.388896 0.829142 0.149398
H5    H     H_    0.625010 0.311758 0.182898 0.159144
H6    H     H_    0.366956 0.684294 0.816614 0.152859
H7    H     H_    0.340985 0.692318 0.006707 0.148702
H8    H     H_    0.652564 0.304870 0.992832 0.142190
H9    H     H_    0.682977 0.221513 0.619744 0.139647
H10   H     H_    0.344643 0.777863 0.355235 0.165025
N1    N     N_R   0.523490 0.207800 0.519350 -0.136388
N2    N     N_R   0.476510 0.792200 0.480650 -0.154933
O1    O     O_R   0.506270 0.421700 0.658830 -0.616822
O2    O     O_R   0.493730 0.578300 0.341170 -0.618600
O3    O     O_R   0.491200 0.609310 0.646410 -0.605592
O4    O     O_R   0.508800 0.390690 0.353590 -0.644473
O5    O     O_R   0.693580 0.406210 0.506230 -0.625766
O6    O     O_R   0.306420 0.593790 0.493770 -0.628787
O7    O     O_R   0.678510 0.593830 0.493810 -0.603545
O8    O     O_R   0.321490 0.406170 0.506190 -0.619885
Zn1   Zn    Zn3+2 0.510060 0.374730 0.508290 0.929348
Zn2   Zn    Zn3+2 0.489940 0.625270 0.491710 0.946254
N3    N     N_2   0.099980 0.385380 0.665663 -0.298931
H11   H     H_    0.165708 0.429289 0.710272 0.223093
C31   C     C_3   0.009909 0.331994 0.726809 -0.781581
H12   H     H_    0.062364 0.282308 0.784733 0.238194
H13   H     H_    0.952258 0.275036 0.675375 0.235709
H14   H     H_    0.945797 0.395118 0.769566 0.256691
N4    N     N_2   0.898060 0.616552 0.337625 -0.284267
H15   H     H_    0.833692 0.571823 0.292277 0.222639
C32   C     C_3   0.985570 0.674078 0.277631 -0.762174
H16   H     H_    0.930773 0.726034 0.222839 0.243249
H17   H     H_    0.049164 0.613695 0.231247 0.227166
H18   H     H_    0.043788 0.729441 0.330199 0.250181
N5    N     N_2   0.097167 0.400134 0.315490 -0.305969
H19   H     H_    0.161200 0.448043 0.281705 0.216101
C33   C     C_3   0.008046 0.349038 0.241770 -0.792569
H20   H     H_    0.061512 0.301345 0.177727 0.248414
H21   H     H_    0.944844 0.413367 0.207109 0.236513
H22   H     H_    0.949521 0.290630 0.280781 0.244668
N6    N     N_2   0.904648 0.599407 0.688283 -0.309422
H23   H     H_    0.819178 0.643195 0.678466 0.234732
C34   C     C_3   0.993043 0.659518 0.756086 -0.789856
H24   H     H_    0.946875 0.684938 0.832090 0.244122
H25   H     H_    0.020733 0.735244 0.719724 0.240324
H26   H     H_    0.079613 0.606478 0.771631 0.243183
N7    N     N_2   0.336169 0.184746 0.408478 -0.296085
H27   H     H_    0.347614 0.258644 0.376231 0.274139
C35   C     C_3   0.215704 0.176284 0.459909 -0.657798
H28   H     H_    0.136875 0.207288 0.409608 0.248650
H29   H     H_    0.214798 0.225365 0.536623 0.256144
H30   H     H_    0.198676 0.088616 0.473245 0.242416
N8    N     N_2   0.630132 0.807806 0.620049 -0.246793
H31   H     H_    0.727094 0.812413 0.612288 0.263108
C36   C     C_3   0.584081 0.827475 0.726204 -0.686870
H32   H     H_    0.600611 0.913343 0.758281 0.254457
H33   H     H_    0.634801 0.768594 0.777058 0.227018
H34   H     H_    0.480264 0.814813 0.728401 0.226285
O9    O     O_3   0.323657 0.980480 0.306096 -0.759503
H35   H     H_    0.372857 0.036271 0.273425 0.346973
O10   O     O_3   0.738878 0.008090 0.644125 -0.804651
H36   H     H_    0.786949 0.070516 0.676915 0.324982

loop_
_geom_bond_atom_site_label_1
_geom_bond_atom_site_label_2
_ccdc_geom_bond_type
C31   H12   S    
C16   C21   S    
C27   C29   A    
C18   C21   S    
C34   H24   S    
N3    C31   S    
C15   O5    A    
C1    O3    A    
C16   O6    A    
C4    C25   A    
N7    H27   S    
C2    O4    A    
C29   H6    S    
C9    N2    A    
C17   C23   S    
C30   H5    S    
C18   C24   S    
C19   C21   S    
C16   O8    A    
C5    C6    A    
C7    O9    S    
C11   N2    A    
C32   H17   S    
C1    O1    A    
C15   C22   S    
C6    C27   A    
C2    O2    A    
N5    C33   S    
C7    C14   A    
O2    Zn2   S    
N7    C35   S    
N4    H15   S    
C13   C14   A    
C10   N1    A    
C34   H25   S    
C36   H33   S    
C21   C23   S    
N4    C32   S    
C33   H20   S    
C4    C6    A    
O10   H36   S    
C35   H29   S    
O5    Zn1   S    
O3    Zn2   S    
C11   N8    S    
C36   H32   S    
O4    Zn1   S    
C9    H10   S    
C10   H9    S    
C33   H21   S    
C32   H18   S    
C12   N1    A    
C5    C28   A    
N8    H31   S    
C20   C23   S    
C28   H8    S    
O7    Zn2   S    
C12   N7    S    
O8    Zn1   S    
C8    O10   S    
C20   N4    S    
N8    C36   S    
C12   C14   A    
C31   H13   S    
C1    C26   S    
C17   H1    S    
C34   H26   S    
C22   C24   S    
C18   H2    S    
N6    C34   S    
C36   H34   S    
C25   C30   A    
C7    C9    A    
C4    H3    S    
C3    C26   A    
C20   C22   S    
C3    C5    A    
C35   H30   S    
N3    H11   S    
C17   C22   S    
C3    H4    S    
C33   H22   S    
C23   N5    S    
C28   C30   A    
C19   C24   S    
N6    H23   S    
C11   C13   A    
C19   N3    S    
O1    Zn1   S    
C17   C19   S    
C2    C25   S    
C18   C20   S    
C15   O7    A    
C32   H16   S    
C35   H28   S    
C8    C13   A    
O6    Zn2   S    
C26   C29   A    
C8    C10   A    
N5    H19   S    
C31   H14   S    
O9    H35   S    
N1    Zn1   S    
C27   H7    S    
C24   N6    S    
N2    Zn2   S    
