data_mof_unit_10777.cif
_audit_creation_date              2012-12-10T17:34:59-0500
_audit_creation_method            fapswitch 2.2
_symmetry_space_group_name_H-M    P1
_symmetry_Int_Tables_number       1
_space_group_crystal_system       triclinic
_cell_length_a                    12.338228
_cell_length_b                    13.160955
_cell_length_c                    13.867978
_cell_angle_alpha                 105.139897
_cell_angle_beta                  73.923896
_cell_angle_gamma                 116.705358
_cell_volume                      1908.35932968

loop_
_atom_site_label
_atom_site_type_symbol
_atom_type_description
_atom_site_fract_x
_atom_site_fract_y
_atom_site_fract_z
_atom_type_partial_charge
C1    C     C_R   0.144405 0.713820 0.509263 0.770698
C2    C     C_1   0.975210 0.506600 0.791563 -0.167180
C3    C     C_R   0.733514 0.983410 0.351610 -0.188935
C4    C     C_R   0.775528 0.164133 0.466370 -0.143460
C5    C     C_R   0.178500 0.917190 0.576556 -0.182526
C6    C     C_R   0.255602 0.033297 0.594021 -0.174659
C7    C     C_R   0.381943 0.070208 0.557392 -0.085935
C8    C     C_R   0.433633 0.991055 0.500613 0.099082
C9    C     C_R   0.352253 0.876566 0.469273 0.063087
C10   C     C_R   0.563121 0.023527 0.468931 0.044754
C11   C     C_R   0.606979 0.949513 0.390432 0.097997
C12   C     C_R   0.984300 0.504166 0.686350 0.805248
C13   C     C_R   0.524050 0.842787 0.350643 -0.207936
C14   C     C_R   0.398758 0.806077 0.390178 -0.185961
C15   C     C_R   0.650620 0.124999 0.514789 0.340308
C16   C     C_R   0.816890 0.091787 0.386976 -0.234673
C17   C     C_R   0.225732 0.837365 0.515698 -0.099598
C18   C     C_R   0.646999 0.684031 0.652398 -0.300254
C19   C     C_R   0.250170 0.351083 0.364294 -0.143213
C20   C     C_R   0.354855 0.326569 0.324728 0.361718
C21   C     C_R   0.460977 0.391652 0.367656 0.378983
C22   C     C_R   0.457624 0.472409 0.458707 -0.211560
C23   C     C_R   0.856185 0.286256 0.486330 0.792785
C24   C     C_R   0.350300 0.497547 0.492098 0.227011
C25   C     C_R   0.555634 0.530658 0.517053 -0.011432
C26   C     C_R   0.550931 0.621977 0.597211 0.184730
C27   C     C_R   0.448937 0.649132 0.623966 -0.271929
C28   C     C_R   0.349414 0.585910 0.574842 -0.123148
C29   C     C_R   0.656050 0.499905 0.503184 0.022830
C30   C     C_R   0.746538 0.653960 0.630225 0.080727
C31   C     C_R   0.015699 0.495826 0.313646 0.814663
C32   C     C_1   0.024900 0.493517 0.208440 -0.160419
C33   C     C_2   0.040837 0.489591 0.014365 -0.160080
C34   C     C_2   0.959405 0.510702 0.985654 -0.146121
C35   C     C_1   0.967431 0.508645 0.880195 0.011387
C36   C     C_1   0.032759 0.491569 0.119815 0.017711
Cu1   Cu    Cu3+1 0.899780 0.525060 0.522890 0.955970
Cu2   Cu    Cu3+1 0.100220 0.474940 0.477110 0.929513
H1    H     H_    0.886412 0.529544 0.041080 0.164436
H2    H     H_    0.338740 0.724018 0.354289 0.173574
H3    H     H_    0.821900 0.702510 0.671504 0.123025
H4    H     H_    0.443991 0.717736 0.686160 0.153039
H5    H     H_    0.644828 0.755097 0.712610 0.142821
H6    H     H_    0.661117 0.424653 0.451589 0.181733
H7    H     H_    0.169684 0.304577 0.328792 0.148754
H8    H     H_    0.273271 0.609712 0.604552 0.199881
H9    H     H_    0.113820 0.470735 0.958940 0.158500
H10   H     H_    0.912979 0.120612 0.349905 0.163341
H11   H     H_    0.556312 0.786652 0.289371 0.146728
H12   H     H_    0.767350 0.928141 0.290613 0.146773
H13   H     H_    0.081721 0.889790 0.611353 0.153700
H14   H     H_    0.436662 0.161853 0.570268 0.193828
H15   H     H_    0.217668 0.094821 0.638128 0.149397
N1    N     N_R   0.748810 0.563010 0.557590 -0.185588
N2    N     N_R   0.250540 0.437620 0.443020 -0.212288
O1    O     O_R   0.025040 0.682470 0.528790 -0.582957
O2    O     O_R   0.194310 0.640150 0.490130 -0.600180
O3    O     O_R   0.903380 0.524130 0.659910 -0.570039
O4    O     O_R   0.072660 0.481800 0.621240 -0.588173
O5    O     O_R   0.805690 0.359850 0.509870 -0.562253
O6    O     O_R   0.974960 0.317530 0.471210 -0.579466
O7    O     O_R   0.927340 0.518200 0.378760 -0.571065
O8    O     O_R   0.096620 0.475870 0.340090 -0.579913
O9    O     O_3   0.567963 0.381324 0.312499 -0.691078
H16   H     H_    0.633927 0.460391 0.312624 0.308891
O10   O     O_3   0.358875 0.244384 0.239934 -0.671243
H17   H     H_    0.277525 0.206759 0.218404 0.305868
O11   O     O_3   0.614480 0.180163 0.609325 -0.748637
H18   H     H_    0.687263 0.228320 0.642342 0.328408

loop_
_geom_bond_atom_site_label_1
_geom_bond_atom_site_label_2
_ccdc_geom_bond_type
C2    C35   T    
C4    C16   A    
C9    C14   A    
C19   H7    S    
C30   H3    S    
C6    C7    A    
C18   C30   A    
C1    O2    A    
Cu2   O2    S    
C11   C13   A    
C1    C17   S    
Cu1   O3    S    
C18   C26   A    
Cu2   N2    S    
Cu2   O6    S    
C12   O3    A    
O9    H16   S    
C16   H10   S    
C4    C15   A    
Cu2   O8    S    
O10   H17   S    
C8    C9    A    
C2    C12   S    
C7    C8    A    
C18   H5    S    
C24   N2    A    
C5    C6    A    
C30   N1    A    
C27   H4    S    
C28   H8    S    
C26   C27   A    
Cu1   Cu2   S    
C13   H11   S    
C15   O11   S    
C32   C36   T    
C9    C17   A    
C12   O4    A    
C3    H12   S    
C7    H14   S    
C33   C34   D    
C10   C15   A    
Cu1   O7    S    
C29   H6    S    
C25   C29   A    
C23   O5    A    
C33   H9    S    
C22   C24   A    
Cu1   O5    S    
C5    C17   A    
C10   C11   A    
Cu1   N1    S    
C6    H15   S    
C14   H2    S    
Cu2   O4    S    
C31   O8    A    
C23   O6    A    
C33   C36   S    
C3    C11   A    
C20   C21   A    
C24   C28   A    
C8    C10   A    
C34   C35   S    
C29   N1    A    
C31   O7    A    
C20   O10   S    
C27   C28   A    
C4    C23   S    
C19   N2    A    
C5    H13   S    
C21   O9    S    
C13   C14   A    
C25   C26   A    
C21   C22   A    
Cu1   O1    S    
C34   H1    S    
C1    O1    A    
C31   C32   S    
C3    C16   A    
C19   C20   A    
O11   H18   S    
C22   C25   A    
