data_mof_unit_65988.cif
_audit_creation_date              2012-12-10T19:25:05-0500
_audit_creation_method            fapswitch 2.2
_symmetry_space_group_name_H-M    P1
_symmetry_Int_Tables_number       1
_space_group_crystal_system       triclinic
_cell_length_a                    15.708242
_cell_length_b                    10.543
_cell_length_c                    9.839649
_cell_angle_alpha                 89.635735
_cell_angle_beta                  89.736191
_cell_angle_gamma                 89.766672
_cell_volume                      1629.50038004

loop_
_atom_site_label
_atom_site_type_symbol
_atom_type_description
_atom_site_fract_x
_atom_site_fract_y
_atom_site_fract_z
_atom_type_partial_charge
C1    C     C_R   0.500076 0.258397 0.500537 0.886092
C2    C     C_3   0.518864 0.609445 0.952869 -0.078841
C3    C     C_3   0.554481 0.419570 0.953162 0.403147
C4    C     C_3   0.445142 0.580211 0.047673 0.434534
C5    C     C_3   0.425183 0.470154 0.951006 0.370689
C6    C     C_3   0.573473 0.530370 0.047508 0.418580
C7    C     C_R   0.338423 0.500084 0.500306 0.867733
C8    C     C_R   0.661568 0.500269 0.499725 0.871802
C9    C     C_3   0.971557 0.408921 0.577091 0.095596
C10   C     C_3   0.028306 0.598044 0.424553 0.126125
C11   C     C_3   0.028681 0.394873 0.451908 0.093927
C12   C     C_R   0.499343 0.741420 0.499149 0.883312
C13   C     C_3   0.971160 0.612037 0.549642 0.126851
C14   C     C_1   0.249735 0.501346 0.501370 -0.201287
C15   C     C_1   0.750237 0.501544 0.498898 -0.172946
C16   C     C_3   0.026926 0.518083 0.632161 -0.281284
C17   C     C_3   0.972983 0.488924 0.369474 -0.245976
C18   C     C_3   0.083867 0.503676 0.503751 0.094152
C19   C     C_3   0.916066 0.503293 0.497777 0.117945
C20   C     C_1   0.174554 0.502596 0.502727 -0.062593
C21   C     C_1   0.825405 0.502622 0.498146 -0.039900
C22   C     C_3   0.503903 0.037272 0.627940 0.104448
C23   C     C_3   0.571020 0.955836 0.555445 0.000510
C24   C     C_3   0.495159 0.961868 0.369717 0.111910
C25   C     C_3   0.655132 0.263410 0.997821 0.100348
C26   C     C_3   0.746058 0.229399 0.954648 -0.353100
C27   C     C_3   0.748005 0.141620 0.832175 -0.836526
C28   C     C_3   0.313320 0.641931 0.137029 0.198780
C29   C     C_3   0.249551 0.693007 0.032757 -0.404820
C30   C     C_3   0.242141 0.837171 0.038304 -0.820569
C31   C     C_3   0.292752 0.365371 0.942385 0.063061
C32   C     C_3   0.288307 0.249570 0.850118 -0.297128
C33   C     C_3   0.225652 0.152198 0.906262 -1.013142
C34   C     C_3   0.428069 0.043425 0.442029 0.035330
C35   C     C_3   0.714454 0.593375 0.012209 0.117315
C36   C     C_3   0.745413 0.729411 0.032869 -0.381383
C37   C     C_3   0.783300 0.748124 0.174151 -0.767900
C38   C     C_3   0.499099 0.875112 0.496405 -0.098095
C39   C     C_3   0.499842 0.124385 0.501590 -0.090452
C40   C     C_3   0.432066 0.957477 0.568306 0.038047
C41   C     C_3   0.566949 0.041979 0.429194 0.013948
C42   C     C_3   0.480108 0.389419 0.047881 -0.177701
H1    H     H_    0.950731 0.477246 0.263375 0.142227
H2    H     H_    0.098564 0.758643 0.406373 0.173471
H3    H     H_    0.691690 0.978449 0.622745 0.184801
H4    H     H_    0.674298 0.839726 0.546895 0.176613
H5    H     H_    0.313343 0.016428 0.352978 0.188241
H6    H     H_    0.317582 0.143367 0.454961 0.167318
H7    H     H_    0.509772 0.998916 0.830189 0.190017
H8    H     H_    0.565497 0.125743 0.779941 0.235556
H9    H     H_    0.487471 0.000244 0.167650 0.193162
H10   H     H_    0.547073 0.873021 0.206193 0.212350
H11   H     H_    0.323218 0.986396 0.674907 0.185897
H12   H     H_    0.049170 0.529891 0.738245 0.148561
H13   H     H_    0.322094 0.857226 0.576340 0.168697
H14   H     H_    0.675563 0.012975 0.321038 0.176240
H15   H     H_    0.677188 0.141752 0.420537 0.173147
H16   H     H_    0.618251 0.174947 0.015102 0.156082
H17   H     H_    0.659735 0.313342 0.097043 0.144866
H18   H     H_    0.781738 0.317313 0.929661 0.220053
H19   H     H_    0.778668 0.181301 0.040887 0.174451
H20   H     H_    0.713858 0.052170 0.856407 0.239212
H21   H     H_    0.815021 0.117986 0.806028 0.240066
H22   H     H_    0.718211 0.188720 0.742858 0.279307
H23   H     H_    0.010064 0.217920 0.377954 0.176772
H24   H     H_    0.297033 0.681839 0.238151 0.152734
H25   H     H_    0.306230 0.537632 0.148452 0.079061
H26   H     H_    0.269277 0.665129 0.928676 0.263605
H27   H     H_    0.186050 0.650988 0.053686 0.164896
H28   H     H_    0.222094 0.868050 0.141384 0.240120
H29   H     H_    0.193561 0.869584 0.964127 0.240950
H30   H     H_    0.304078 0.881705 0.011836 0.293734
H31   H     H_    0.446607 0.204132 0.027876 0.182798
H32   H     H_    0.413892 0.270860 0.174429 0.226188
H33   H     H_    0.483937 0.770422 0.853054 0.243980
H34   H     H_    0.095108 0.231066 0.479568 0.177049
H35   H     H_    0.586030 0.725380 0.825810 0.213139
H36   H     H_    0.228022 0.407831 0.948978 0.151464
H37   H     H_    0.309509 0.337917 0.047577 0.110117
H38   H     H_    0.267387 0.279752 0.747007 0.226203
H39   H     H_    0.352297 0.205426 0.840548 0.233374
H40   H     H_    0.246567 0.118508 0.007997 0.278740
H41   H     H_    0.222438 0.070100 0.836627 0.260898
H42   H     H_    0.160971 0.194475 0.914878 0.268718
H43   H     H_    0.694342 0.582050 0.904444 0.112290
H44   H     H_    0.768899 0.527491 0.027797 0.138111
H45   H     H_    0.989682 0.785993 0.631025 0.175389
H46   H     H_    0.794724 0.751643 0.955013 0.172229
H47   H     H_    0.691555 0.796746 0.018766 0.224572
H48   H     H_    0.807232 0.846655 0.183134 0.222807
H49   H     H_    0.837190 0.681356 0.190984 0.249444
H50   H     H_    0.734143 0.732562 0.254020 0.278879
H51   H     H_    0.901414 0.712438 0.686040 0.175012
H52   H     H_    0.990628 0.253544 0.696189 0.177219
H53   H     H_    0.905569 0.244155 0.594045 0.175757
H54   H     H_    0.100064 0.665857 0.268562 0.174206
N1    N     N_3   0.499940 0.500030 0.863290 -0.155433
N2    N     N_3   0.489936 0.919378 0.229375 -0.380461
N3    N     N_3   0.359451 0.908367 0.644229 -0.446474
N4    N     N_3   0.639504 0.090923 0.352840 -0.461788
N5    N     N_3   0.464773 0.264245 0.106343 -0.427001
N6    N     N_3   0.538722 0.735092 0.899882 -0.442771
N7    N     N_3   0.500060 0.499970 0.136710 -0.161021
N8    N     N_3   0.062127 0.275395 0.400303 -0.462166
N9    N     N_3   0.937773 0.732235 0.599310 -0.455929
N10   N     N_3   0.938430 0.304563 0.659051 -0.462564
N11   N     N_3   0.060226 0.703759 0.343407 -0.454251
N12   N     N_3   0.648262 0.904178 0.615992 -0.475636
N13   N     N_3   0.350932 0.093769 0.379918 -0.464652
N14   N     N_3   0.507495 0.079587 0.768243 -0.449010
O1    O     O_R   0.500000 0.313960 0.616610 -0.592422
O2    O     O_3   0.396602 0.680809 0.102820 -0.594451
O3    O     O_3   0.346491 0.457157 0.883360 -0.622787
O4    O     O_3   0.650907 0.564047 0.109496 -0.594771
O5    O     O_R   0.500000 0.686040 0.383390 -0.585790
O6    O     O_R   0.500040 0.313950 0.383350 -0.598560
O7    O     O_R   0.499960 0.686050 0.616650 -0.628699
O8    O     O_R   0.376760 0.499990 0.616610 -0.549096
O9    O     O_R   0.623240 0.500010 0.383390 -0.566255
O10   O     O_R   0.376790 0.499980 0.383350 -0.646496
O11   O     O_R   0.623210 0.500020 0.616650 -0.602356
O12   O     O_3   0.615570 0.337328 0.895138 -0.610446
Zn1   Zn    Zn3+2 0.499980 0.500010 0.655740 1.008440
Zn2   Zn    Zn3+2 0.500020 0.499990 0.344260 1.001521

loop_
_geom_bond_atom_site_label_1
_geom_bond_atom_site_label_2
_ccdc_geom_bond_type
C36   H47   S    
H34   N8    S    
C5    C42   S    
C11   C18   S    
C28   H24   S    
C35   C36   S    
C3    C6    S    
C42   N7    S    
C40   N3    S    
C30   H29   S    
H35   N6    S    
C3    C42   S    
O9    Zn2   S    
C36   H46   S    
C32   H39   S    
C26   C27   S    
C37   H48   S    
C34   C40   S    
C28   C29   S    
H53   N10   S    
C9    C16   S    
C35   H44   S    
C8    O11   A    
C2    N6    S    
C10   C17   S    
C4    N7    S    
H8    N14   S    
C35   O4    S    
C6    O4    S    
H51   N9    S    
C9    C19   S    
C7    C14   S    
C11   C17   S    
C2    N1    S    
C22   N14   S    
H4    N12   S    
H33   N6    S    
C24   C38   S    
C11   N8    S    
C1    O6    A    
C33   H40   S    
C3    O12   S    
C12   O5    A    
C5    O3    S    
H9    N2    S    
H31   N5    S    
H6    N13   S    
C4    O2    S    
C12   C38   S    
C24   C41   S    
C7    O8    A    
C10   N11   S    
C2    C6    S    
N7    Zn2   S    
C30   H28   S    
C29   H27   S    
C37   H49   S    
O1    Zn1   S    
C34   C39   S    
C14   C20   T    
C28   H25   S    
C13   N9    S    
C13   C19   S    
C9    N10   S    
H5    N13   S    
H15   N4    S    
H11   N3    S    
C2    C4    S    
C17   H1    S    
C29   C30   S    
C27   H20   S    
C32   H38   S    
C29   H26   S    
C33   H41   S    
C3    N1    S    
C31   C32   S    
H45   N9    S    
C22   C40   S    
C41   N4    S    
C6    N7    S    
C9    C11   S    
C27   H21   S    
H32   N5    S    
C16   C18   S    
H54   N11   S    
C5    N1    S    
C8    C15   S    
C24   N2    S    
C25   H16   S    
H14   N4    S    
C42   N5    S    
C31   H36   S    
C25   O12   S    
H2    N11   S    
H52   N10   S    
O5    Zn2   S    
O6    Zn2   S    
C37   H50   S    
C19   C21   S    
C22   C39   S    
C7    O10   A    
C26   H19   S    
C4    C5    S    
C10   C13   S    
C30   H30   S    
H3    N12   S    
C31   H37   S    
C23   C38   S    
C23   C41   S    
C32   C33   S    
C16   H12   S    
C25   C26   S    
N1    Zn1   S    
C1    O1    A    
C38   C40   S    
C35   H43   S    
C10   C18   S    
C23   N12   S    
H10   N2    S    
C17   C19   S    
C31   O3    S    
C18   C20   S    
O8    Zn1   S    
O7    Zn1   S    
C33   H42   S    
C24   C34   S    
O11   Zn1   S    
C27   H22   S    
C1    C39   S    
C12   O7    A    
C15   C21   T    
C39   C41   S    
C36   C37   S    
C13   C16   S    
H13   N3    S    
C34   N13   S    
C22   C23   S    
C25   H17   S    
H23   N8    S    
C26   H18   S    
C28   O2    S    
O10   Zn2   S    
C8    O9    A    
H7    N14   S    
