data_mof_unit_28567.cif
_audit_creation_date              2013-03-05T15:47:38-0500
_audit_creation_method            fapswitch 2.2
_symmetry_space_group_name_H-M    P1
_symmetry_Int_Tables_number       1
_space_group_crystal_system       triclinic
_cell_length_a                    10.167434
_cell_length_b                    10.932766
_cell_length_c                    10.955731
_cell_angle_alpha                 90.137745
_cell_angle_beta                  94.952503
_cell_angle_gamma                 81.957662
_cell_volume                      1201.28213179

loop_
_atom_site_label
_atom_site_type_symbol
_atom_site_description
_atom_site_fract_x
_atom_site_fract_y
_atom_site_fract_z
_atom_type_partial_charge
O1    O     O_R   0.568940 0.489540 0.307530 -0.603866
O2    O     O_R   0.348880 0.522880 0.340350 -0.602319
C1    C     C_R   0.446263 0.509662 0.268207 1.054413
O3    O     O_R   0.610030 0.298130 0.483570 -0.612186
O4    O     O_R   0.389960 0.331470 0.516390 -0.594135
C2    C     C_R   0.498202 0.258712 0.500131 0.980721
Zn1   Zn    Zn3+2 0.646940 0.477740 0.478080 1.007287
Zn2   Zn    Zn3+2 0.353060 0.522260 0.521920 1.006181
O5    O     O_R   0.651120 0.477120 0.659650 -0.607933
O6    O     O_R   0.431060 0.510460 0.692470 -0.614646
O7    O     O_R   0.610040 0.668530 0.483610 -0.630604
O8    O     O_R   0.389970 0.701870 0.516430 -0.566883
C3    C     C_R   0.554601 0.492862 0.731937 0.968419
C4    C     C_R   0.498197 0.742539 0.492486 0.945207
C5    C     C_3   0.565759 0.067484 0.383772 -0.328450
H1    H     H_    0.668858 0.086041 0.403061 0.211015
C6    C     C_3   0.577757 0.921136 0.378319 -0.037960
H2    H     H_    0.670912 0.873200 0.613502 0.222769
C7    C     C_3   0.577768 0.063669 0.623310 0.100041
C8    C     C_3   0.337908 0.096108 0.492488 -0.058389
C9    C     C_3   0.492744 0.123853 0.499968 -0.132587
C10   C     C_3   0.493669 0.880711 0.489446 -0.104334
C11   C     C_3   0.568706 0.920016 0.615825 -0.082390
C12   C     C_3   0.337391 0.949889 0.471250 -0.248184
C13   C     C_2   0.424557 0.520069 0.136876 -0.347382
C14   C     C_2   0.522813 0.546538 0.068189 0.215549
C15   C     C_2   0.581920 0.486261 0.863658 0.007830
C16   C     C_2   0.494202 0.550708 0.936717 0.153713
H3    H     H_    0.327957 0.503858 0.094439 0.132500
N1    N     N_2   0.157300 0.551950 0.551120 -0.173746
C17   C     C_2   0.061528 0.523988 0.473466 0.148017
N2    N     N_2   0.842730 0.448000 0.448950 -0.233384
C18   C     C_2   0.929798 0.502738 0.515813 -0.100576
H4    H     H_    0.142849 0.545159 0.642575 0.160956
C19   C     C_2   0.234347 0.905925 0.554274 1.018947
O9    O     O_2   0.114555 0.930515 0.523376 -0.582989
O10   O     O_R   0.271705 0.844798 0.665602 -0.830620
H5    H     H_    0.192632 0.825131 0.708629 0.343370
C20   C     C_2   0.537433 0.125312 0.745268 0.898277
O11   O     O_2   0.478959 0.230647 0.746348 -0.665915
O12   O     O_R   0.588730 0.070542 0.858036 -0.785451
H6    H     H_    0.563087 0.123568 0.930596 0.364434
C21   C     C_3   0.539419 0.858551 0.735443 -0.771365
H7    H     H_    0.626331 0.855739 0.804809 0.263580
H8    H     H_    0.452364 0.908110 0.777022 0.299291
H9    H     H_    0.529351 0.760448 0.721091 0.220604
C22   C     C_3   0.363753 0.629806 0.891299 -0.868038
H10   H     H_    0.319988 0.688132 0.964764 0.228270
H11   H     H_    0.379581 0.694161 0.819563 0.279356
H12   H     H_    0.288762 0.570280 0.857234 0.258750
C23   C     C_3   0.658712 0.580152 0.116787 -0.755385
H13   H     H_    0.704997 0.626596 0.044788 0.224398
H14   H     H_    0.653385 0.644825 0.193895 0.260350
H15   H     H_    0.726824 0.495790 0.147498 0.275246
C24   C     C_3   0.701022 0.395204 0.913204 -0.789940
H16   H     H_    0.733918 0.327935 0.842039 0.257924
H17   H     H_    0.786672 0.444131 0.942452 0.264287
H18   H     H_    0.674887 0.340340 0.990513 0.261551
C25   C     C_2   0.891566 0.567105 0.628274 0.970531
O13   O     O_2   0.896998 0.508028 0.723563 -0.647294
O14   O     O_R   0.866427 0.695745 0.629273 -0.822196
H19   H     H_    0.849746 0.729044 0.713840 0.326845
C26   C     C_3   0.068544 0.541648 0.338686 -0.696805
H20   H     H_    0.967459 0.561177 0.289848 0.215371
H21   H     H_    0.117013 0.622846 0.322205 0.274578
H22   H     H_    0.122771 0.459116 0.299175 0.253852
C27   C     C_2   0.885680 0.337351 0.387672 1.111395
O15   O     O_2   0.887503 0.238560 0.440053 -0.584521
O16   O     O_R   0.909729 0.340550 0.264171 -0.844105
H23   H     H_    0.928132 0.255196 0.227770 0.377015
C28   C     C_2   0.534865 0.140893 0.262188 1.001662
O17   O     O_2   0.605834 0.217733 0.237930 -0.627367
O18   O     O_R   0.431358 0.119715 0.175941 -0.711062
H24   H     H_    0.423096 0.175896 0.101364 0.340079
C29   C     C_2   0.536469 0.873996 0.249766 0.984879
O19   O     O_2   0.585569 0.908973 0.159982 -0.586766
O20   O     O_R   0.458185 0.779650 0.233897 -0.852076
H25   H     H_    0.425297 0.771066 0.144841 0.349525
C30   C     C_3   0.730664 0.865462 0.388396 -0.802388
H26   H     H_    0.789801 0.876916 0.474720 0.275054
H27   H     H_    0.747777 0.765736 0.366438 0.253855
H28   H     H_    0.782766 0.910722 0.319533 0.257712
C31   C     C_3   0.729176 0.082536 0.635461 -0.841748
H29   H     H_    0.789231 0.049372 0.560723 0.270438
H30   H     H_    0.742019 0.180912 0.649783 0.265253
H31   H     H_    0.781795 0.031398 0.717299 0.253876
C32   C     C_3   0.267867 0.138841 0.612743 -0.793160
H32   H     H_    0.307221 0.080479 0.693417 0.238442
H33   H     H_    0.266633 0.236720 0.637010 0.278381
H34   H     H_    0.159485 0.132388 0.602974 0.260106
C33   C     C_2   0.244106 0.171751 0.392547 1.035257
O21   O     O_2   0.127860 0.154115 0.377879 -0.588910
O22   O     O_R   0.286876 0.256692 0.315543 -0.810281
H35   H     H_    0.220825 0.280285 0.241936 0.344759
C34   C     C_2   0.274546 0.916691 0.342716 0.968167
O23   O     O_2   0.272431 0.982182 0.252339 -0.574642
O24   O     O_R   0.219124 0.807018 0.327549 -0.765362
H36   H     H_    0.181261 0.795891 0.240102 0.338056

loop_
_geom_bond_atom_site_label_1
_geom_bond_atom_site_label_2
_geom_bond_distance
_ccdc_geom_bond_type
C32   H32   1.103913 S    
C26   H21   1.096377 S    
C16   C22   1.523720 S    
O22   H35   1.013345 S    
O12   H6    1.013538 S    
C34   O23   1.220214 D    
C24   H16   1.110879 S    
O24   H36   1.014747 S    
C20   O12   1.400657 S    
O20   H25   1.012208 S    
Zn1   O7    2.068719 S    
C19   O10   1.389752 S    
N1    C17   1.305547 D    
O7    C4    1.310924 A    
C15   C24   1.517857 S    
C5    H1    1.098050 S    
C8    C32   1.589684 S    
C6    C30   1.582902 S    
C11   C21   1.544432 S    
Zn1   O5    1.986023 S    
O18   H24   1.013915 S    
C8    C12   1.615542 S    
O5    C3    1.306198 A    
C31   H29   1.094402 S    
C17   C18   1.502646 S    
C26   H22   1.098013 S    
C25   O13   1.222031 D    
C18   C25   1.471859 S    
O14   H19   1.013867 S    
O3    Zn1   2.052066 S    
C7    C31   1.575898 S    
C22   H12   1.110276 S    
C13   H3    1.087056 S    
C8    C33   1.547812 S    
C25   O14   1.393999 S    
C12   C19   1.569574 S    
N1    H4    1.029486 S    
C23   H13   1.111019 S    
C17   C26   1.498719 S    
C1    C13   1.439033 S    
C30   H26   1.092681 S    
C22   H11   1.093061 S    
C12   C34   1.558867 S    
C20   O11   1.220395 D    
C30   H27   1.108949 S    
C13   C14   1.363743 D    
C2    C9    1.483154 S    
C27   O15   1.221367 D    
O1    C1    1.273061 A    
C19   O9    1.227998 D    
C7    C11   1.587553 S    
C21   H7    1.111716 S    
O10   H5    1.014446 S    
C33   O22   1.394033 S    
C21   H8    1.103972 S    
C22   H10   1.110133 S    
Zn2   O8    2.052067 S    
C29   O20   1.390187 S    
C7    C20   1.555821 S    
N2    C27   1.415513 S    
O3    C2    1.297888 A    
C31   H30   1.110567 S    
O8    C4    1.290219 A    
C24   H17   1.108383 S    
C10   C12   1.657187 S    
C32   H34   1.110008 S    
O4    Zn2   2.068719 S    
C33   O21   1.220964 D    
C28   O18   1.396221 S    
C27   O16   1.396960 S    
C5    C6    1.588891 S    
C29   O19   1.225987 D    
Zn1   N2    2.024467 S    
C7    C9    1.627793 S    
O1    Zn1   1.963047 S    
O2    Zn2   1.986021 S    
O6    C3    1.280917 A    
C30   H28   1.113024 S    
C34   O24   1.398121 S    
C5    C28   1.542549 S    
C14   C16   1.444175 S    
C6    C10   1.642123 S    
C23   H15   1.107237 S    
Zn2   N1    2.024343 S    
N2    C18   1.308656 D    
C4    C10   1.505213 S    
C32   H33   1.100634 S    
O2    C1    1.311667 A    
C28   O17   1.225084 D    
C14   C23   1.530312 S    
O4    C2    1.289915 A    
H2    C11   1.094611 S    
O16   H23   1.013452 S    
C21   H9    1.101214 S    
C26   H20   1.110134 S    
C5    C9    1.607119 S    
C31   H31   1.112908 S    
C8    C9    1.639617 S    
Zn2   O6    1.963049 S    
C24   H18   1.110700 S    
C15   C16   1.370127 D    
C6    C29   1.542840 S    
C10   C11   1.609423 S    
C3    C15   1.445880 S    
C23   H14   1.100378 S    
