data_mof_unit_45800.cif
_audit_creation_date              2012-12-11T16:17:52-0500
_audit_creation_method            fapswitch 2.2
_symmetry_space_group_name_H-M    P1
_symmetry_Int_Tables_number       1
_space_group_crystal_system       triclinic
_cell_length_a                    14.026264
_cell_length_b                    14.043857
_cell_length_c                    30.080242
_cell_angle_alpha                 97.086578
_cell_angle_beta                  97.08298
_cell_angle_gamma                 61.332331
_cell_volume                      5145.22668401

loop_
_atom_site_label
_atom_site_type_symbol
_atom_type_description
_atom_site_fract_x
_atom_site_fract_y
_atom_site_fract_z
_atom_type_partial_charge
C1    C     C_R   0.386011 0.709986 0.441948 0.545453
C2    C     C_R   0.416884 0.291241 0.221095 -0.102448
C3    C     C_R   0.426824 0.295656 0.267895 -0.133022
C4    C     C_R   0.333861 0.351332 0.292227 0.039302
C5    C     C_R   0.313919 0.343162 0.198371 -0.000047
C6    C     C_1   0.302823 0.326895 0.150445 -0.037062
C7    C     C_1   0.348150 0.357640 0.340355 0.003326
C8    C     C_1   0.291950 0.305662 0.110833 0.014319
C9    C     C_R   0.761305 0.372422 0.398928 -0.024192
C10   C     C_R   0.781841 0.272857 0.373932 0.148669
C11   C     C_R   0.797757 0.261119 0.327695 0.124034
C12   C     C_R   0.398946 0.381334 0.426354 0.548678
C13   C     C_R   0.795594 0.347417 0.307459 0.038227
C14   C     C_R   0.787511 0.440328 0.333423 0.149294
C15   C     C_R   0.771378 0.451914 0.378692 -0.136159
C16   C     C_R   0.809198 0.417336 0.152831 0.176722
C17   C     C_R   0.845590 0.399149 0.110049 -0.125568
C18   C     C_R   0.875486 0.212679 0.105604 0.151988
C19   C     C_R   0.839946 0.231429 0.148656 -0.119680
C20   C     C_R   0.811881 0.331265 0.172944 0.004955
C21   C     C_1   0.800769 0.338798 0.219949 0.058580
C22   C     C_1   0.797524 0.342599 0.259759 0.087828
C23   C     C_R   0.710163 0.405527 0.442259 0.568667
C24   C     C_R   0.885368 0.295404 0.086963 -0.007077
C25   C     C_R   0.365975 0.763841 0.400341 -0.014575
C26   C     C_R   0.451570 0.768925 0.382821 -0.131785
C27   C     C_R   0.442203 0.792733 0.338452 -0.120569
C28   C     C_R   0.347401 0.811905 0.311260 0.039531
C29   C     C_R   0.257812 0.814868 0.329213 0.150583
C30   C     C_R   0.267499 0.792148 0.373986 -0.076273
C31   C     C_R   0.265875 0.811988 0.148463 -0.088443
C32   C     C_R   0.249156 0.836999 0.103288 0.133484
C33   C     C_R   0.391802 0.893025 0.117951 0.129127
C34   C     C_R   0.389685 0.711597 0.568273 0.548032
C35   C     C_R   0.407665 0.865108 0.161988 -0.066944
C36   C     C_R   0.341164 0.830774 0.177676 -0.021898
C37   C     C_1   0.345724 0.821743 0.224623 -0.007442
C38   C     C_1   0.347189 0.817667 0.264210 -0.004773
C39   C     C_R   0.305242 0.888616 0.089078 0.022505
C40   C     C_R   0.365294 0.365482 0.593674 0.041623
C41   C     C_R   0.432043 0.275653 0.619804 0.130985
C42   C     C_R   0.402152 0.274059 0.662316 -0.079048
C43   C     C_R   0.309438 0.361342 0.679635 0.023974
C44   C     C_R   0.239950 0.446686 0.653239 -0.120756
C45   C     C_R   0.402924 0.383660 0.553054 0.549754
C46   C     C_R   0.266924 0.448104 0.610331 -0.155183
C47   C     C_R   0.221303 0.435620 0.841659 0.199595
C48   C     C_R   0.228696 0.415944 0.887491 0.144677
C49   C     C_R   0.382630 0.235213 0.872788 0.103169
C50   C     C_R   0.382015 0.261630 0.829630 -0.131760
C51   C     C_R   0.297964 0.356529 0.813046 0.022133
C52   C     C_1   0.291685 0.366976 0.765871 0.024002
C53   C     C_1   0.294557 0.367509 0.726232 0.013048
C54   C     C_R   0.299703 0.308649 0.901075 0.023348
C55   C     C_1   0.762382 0.376356 0.612453 -0.011278
C56   C     C_R   0.713321 0.407644 0.568463 0.545632
C57   C     C_R   0.729087 0.357119 0.723674 -0.114988
C58   C     C_R   0.748720 0.340686 0.769687 0.126183
C59   C     C_R   0.942224 0.276769 0.763107 0.139765
C60   C     C_R   0.921286 0.292829 0.717232 -0.076849
C61   C     C_R   0.814912 0.333569 0.697600 -0.023747
C62   C     C_R   0.855889 0.301385 0.789637 0.070912
C63   C     C_1   0.877940 0.291533 0.837400 0.027353
C64   C     C_1   0.791436 0.354607 0.650905 -0.055689
C65   C     C_1   0.905241 0.282357 0.876842 0.024717
C66   C     C_1   0.375969 0.758048 0.613654 0.019561
C67   C     C_1   0.367001 0.365648 0.380302 0.028525
C68   C     C_R   0.362054 0.726327 0.725573 -0.116785
C69   C     C_R   0.350435 0.744781 0.771843 0.176943
C70   C     C_R   0.329834 0.925838 0.768998 -0.102420
C71   C     C_R   0.341218 0.907522 0.722734 0.188332
C72   C     C_R   0.356913 0.807347 0.700845 0.015577
C73   C     C_R   0.334160 0.845192 0.793677 0.020773
C74   C     C_1   0.315369 0.870465 0.840671 0.006542
C75   C     C_1   0.366686 0.785229 0.653128 0.004860
C76   C     C_1   0.294482 0.900609 0.879183 0.012324
C77   C     C_R   0.949320 0.273278 0.047847 0.561603
C78   C     C_R   0.230313 0.404969 0.269509 0.171062
C79   C     C_R   0.275463 0.270322 0.065363 0.545902
C80   C     C_R   0.262324 0.951827 0.048474 0.555199
C81   C     C_R   0.951919 0.269234 0.922150 0.551356
C82   C     C_R   0.277634 0.267709 0.940076 0.546855
C83   C     C_R   0.261791 0.950301 0.923008 0.536787
C84   C     C_R   0.220785 0.400182 0.222533 -0.080753
Cr1   Cr    Cr6+3 0.581000 0.584320 0.508140 1.041758
Cr2   Cr    Cr6+3 0.339110 0.576430 0.496080 1.046514
Cr3   Cr    Cr6+3 0.579910 0.339270 0.495810 1.093417
Cr4   Cr    Cr6+3 0.082090 0.079210 0.982490 1.088660
Cr5   Cr    Cr6+3 0.082460 0.324610 0.994920 1.039106
Cr6   Cr    Cr6+3 0.323630 0.087860 0.996130 1.096592
H1    H     H_    0.839558 0.165857 0.164133 0.152356
H2    H     H_    0.219548 0.779946 0.161658 0.115799
H3    H     H_    0.199996 0.790419 0.387249 0.160019
H4    H     H_    0.528410 0.747436 0.402347 0.151704
H5    H     H_    0.469227 0.874864 0.184699 0.175116
H6    H     H_    0.140807 0.439082 0.204915 0.158638
H7    H     H_    0.511203 0.790389 0.324656 0.163572
H8    H     H_    0.167694 0.514504 0.666538 0.129532
H9    H     H_    0.213661 0.517719 0.591320 0.144046
H10   H     H_    0.443658 0.203470 0.807761 0.121714
H11   H     H_    0.455634 0.207781 0.683067 0.130703
H12   H     H_    0.646598 0.388712 0.708268 0.112342
H13   H     H_    0.489169 0.245670 0.202638 0.144700
H14   H     H_    0.987703 0.274879 0.697099 0.171582
H15   H     H_    0.373972 0.648937 0.708780 0.137282
H16   H     H_    0.315873 0.003910 0.785590 0.168606
H17   H     H_    0.507129 0.255302 0.285152 0.134193
H18   H     H_    0.848654 0.465046 0.096087 0.173417
H19   H     H_    0.759025 0.527675 0.397214 0.175815
O1    O     O_R   0.688580 0.499770 0.460490 -0.525807
O2    O     O_R   0.348600 0.476260 0.536540 -0.514843
O3    O     O_R   0.494840 0.313840 0.539010 -0.469604
O4    O     O_R   0.672120 0.351750 0.545910 -0.498166
O5    O     O_3   0.500010 0.500010 0.500010 -0.266803
O6    O     O_R   0.167510 0.972920 0.030390 -0.469250
O7    O     O_R   0.990840 0.178580 0.027590 -0.442698
O8    O     O_R   0.972840 0.345510 0.038590 -0.521853
O9    O     O_R   0.181550 0.320660 0.045200 -0.508314
O10   O     O_R   0.346150 0.177650 0.050510 -0.460555
O11   O     O_R   0.314200 0.996600 0.036060 -0.455595
O12   O     O_R   0.480400 0.672610 0.462660 -0.499871
O13   O     O_R   0.168690 0.969990 0.933130 -0.501650
O14   O     O_R   0.991920 0.175870 0.937430 -0.491816
O15   O     O_R   0.974010 0.342590 0.941330 -0.495546
O16   O     O_R   0.182630 0.317940 0.955040 -0.505639
O17   O     O_R   0.347320 0.174720 0.953250 -0.467132
O18   O     O_R   0.315290 0.993890 0.945900 -0.503133
O19   O     O_3   0.162730 0.163890 0.991180 -0.265840
O20   O     O_R   0.315310 0.685650 0.451800 -0.507498
O21   O     O_R   0.346220 0.474990 0.446280 -0.489441
O22   O     O_R   0.492270 0.312460 0.441630 -0.480342
O23   O     O_R   0.669740 0.350480 0.455640 -0.443075
O24   O     O_R   0.691150 0.501150 0.557860 -0.498414
O25   O     O_R   0.482790 0.673890 0.552920 -0.490521
O26   O     O_R   0.317880 0.687030 0.549170 -0.504854
Br1   Br    Br    0.100767 0.484194 0.301252 -0.454363
Br2   Br    Br    0.913761 0.070288 0.076658 -0.470231
N1    N     N_2   0.810512 0.165381 0.300762 -0.517328
H20   H     H_    0.765616 0.130780 0.309266 0.292696
C85   C     C_3   0.922308 0.086746 0.293393 -0.272534
H21   H     H_    0.967770 0.054476 0.325702 0.200865
H22   H     H_    0.962947 0.124349 0.277951 0.154339
H23   H     H_    0.924165 0.018080 0.270165 0.155331
N2    N     N_2   0.176895 0.812262 0.071926 -0.464347
H24   H     H_    0.205199 0.782935 0.040428 0.254004
C86   C     C_3   0.117809 0.762040 0.086334 -0.268084
H25   H     H_    0.063850 0.753016 0.057737 0.161967
H26   H     H_    0.065437 0.814305 0.113595 0.185794
H27   H     H_    0.175521 0.679975 0.097711 0.125019
N3    N     N_2   0.159362 0.836512 0.302415 -0.539291
H28   H     H_    0.143459 0.883209 0.275853 0.248849
C87   C     C_3   0.142948 0.742337 0.289766 -0.274424
H29   H     H_    0.062719 0.767654 0.270557 0.171633
H30   H     H_    0.143382 0.704084 0.320031 0.194837
H31   H     H_    0.207897 0.681817 0.268300 0.151798
Br3   Br    Br    0.491155 0.939244 0.101831 -0.440950
N4    N     N_2   0.166861 0.502811 0.919513 -0.502364
H32   H     H_    0.181147 0.482557 0.952268 0.256868
C88   C     C_3   0.164745 0.606627 0.917393 -0.263549
H33   H     H_    0.159002 0.648787 0.951547 0.116770
H34   H     H_    0.091746 0.660220 0.896454 0.197478
H35   H     H_    0.239914 0.595709 0.903823 0.185656
N5    N     N_2   0.135365 0.533157 0.824525 -0.506525
H36   H     H_    0.154070 0.560383 0.798218 0.276687
C89   C     C_3   0.031198 0.533931 0.816460 -0.278967
H37   H     H_    0.967768 0.615154 0.806243 0.140141
H38   H     H_    0.007472 0.517562 0.847440 0.195880
H39   H     H_    0.035061 0.471580 0.789094 0.179396
N6    N     N_2   0.532671 0.190316 0.605208 -0.484879
H40   H     H_    0.542055 0.114053 0.608680 0.261891
C90   C     C_3   0.626861 0.201363 0.624681 -0.271398
H41   H     H_    0.638928 0.190769 0.661323 0.119082
H42   H     H_    0.616530 0.282711 0.619326 0.168985
H43   H     H_    0.700595 0.138353 0.608404 0.163455
N7    N     N_2   0.465596 0.132847 0.886858 -0.480162
H44   H     H_    0.543011 0.121487 0.884092 0.246555
C91   C     C_3   0.452026 0.040743 0.866650 -0.257633
H45   H     H_    0.468343 0.026245 0.830560 0.127104
H46   H     H_    0.367961 0.055355 0.869855 0.179110
H47   H     H_    0.510210 0.966904 0.884054 0.155513
N8    N     N_2   0.660074 0.367645 0.795890 -0.500026
H48   H     H_    0.587626 0.430833 0.784351 0.287245
C92   C     C_3   0.646857 0.275512 0.804187 -0.295530
H49   H     H_    0.625994 0.238850 0.772065 0.132422
H50   H     H_    0.579819 0.302907 0.826627 0.162516
H51   H     H_    0.722596 0.213077 0.820906 0.158512
Br4   Br    Br    0.089893 0.223487 0.788441 -0.568221
Br5   Br    Br    0.354440 0.632374 0.803638 -0.591028
Br6   Br    Br    0.333178 0.021566 0.690778 -0.513142
Br7   Br    Br    0.764418 0.558452 0.183664 -0.411952
Br8   Br    Br    0.789067 0.558295 0.307943 -0.394431
Br9   Br    Br    0.792911 0.150998 0.401968 -0.485125

loop_
_geom_bond_atom_site_label_1
_geom_bond_atom_site_label_2
_ccdc_geom_bond_type
C58   C62   A    
C46   H9    S    
C80   O11   A    
C26   H4    S    
C89   H37   S    
C12   O22   A    
C61   C64   S    
C41   C42   A    
C15   H19   S    
C35   C36   A    
C85   H23   S    
C49   N7    S    
C90   H41   S    
C34   C66   S    
C63   C65   T    
C56   O24   A    
C33   Br3   S    
N7    C91   S    
Cr5   O16   S    
N8    H48   S    
C40   C46   A    
C57   H12   S    
C90   H42   S    
C26   C27   A    
C33   C39   A    
C12   O21   A    
C81   O14   A    
C58   N8    S    
C18   C24   A    
C2    H13   S    
C28   C29   A    
N5    C89   S    
C11   N1    S    
C85   H22   S    
C30   H3    S    
C1    O20   A    
C92   H50   S    
C84   H6    S    
C5    C6    S    
C55   C56   S    
C68   C72   A    
C34   O25   A    
C49   C54   A    
C79   O9    A    
C7    C67   T    
C18   C19   A    
C73   C74   S    
C32   C39   A    
Cr3   O22   S    
C82   O17   A    
Cr3   O5    S    
C9    C23   S    
C29   N3    S    
C44   H8    S    
C43   C53   S    
N4    H32   S    
C62   C63   S    
C88   H33   S    
C16   C17   A    
C91   H46   S    
C79   O10   A    
C23   O23   A    
C8    C79   S    
Cr6   O18   S    
C87   H31   S    
Cr1   O12   S    
C70   C71   A    
C13   C14   A    
C77   O7    A    
C9    C10   A    
C31   C36   A    
C16   C20   A    
Cr1   O25   S    
C47   N5    S    
C59   C60   A    
N4    C88   S    
C21   C22   T    
C1    C25   S    
N6    C90   S    
C89   H38   S    
Cr4   O14   S    
C76   C83   S    
C12   C67   S    
C44   C46   A    
C86   H26   S    
N8    C92   S    
C40   C45   S    
C90   H43   S    
C45   O3    A    
C17   C24   A    
Cr3   O4    S    
C81   O15   A    
C51   C52   S    
N6    H40   S    
C19   H1    S    
C85   H21   S    
Cr4   O13   S    
Cr1   O1    S    
C70   H16   S    
C17   H18   S    
C5    C84   A    
C68   C69   A    
C47   C51   A    
Cr3   O3    S    
C4    C7    S    
C25   C26   A    
C41   N6    S    
C10   Br9   S    
C60   C61   A    
Cr6   O11   S    
Cr3   O23   S    
Cr4   O7    S    
C18   Br2   S    
C48   C54   A    
C43   C44   A    
C82   O16   A    
C4    C78   A    
C37   C38   T    
C86   H27   S    
Cr2   O26   S    
C65   C81   S    
C31   C32   A    
C80   O6    A    
C28   C38   S    
C56   O4    A    
C91   H47   S    
C55   C64   T    
C20   C21   S    
C70   C73   A    
C88   H34   S    
C50   C51   A    
Cr6   O17   S    
C88   H35   S    
C92   H49   S    
C71   Br6   S    
C69   C73   A    
C69   Br5   S    
C16   Br7   S    
C91   H45   S    
C14   Br8   S    
N2    C86   S    
C40   C41   A    
C87   H30   S    
Cr5   O8    S    
C49   C50   A    
C89   H39   S    
N3    C87   S    
C92   H51   S    
C2    C5    A    
C42   C43   A    
C74   C76   T    
C3    C4    A    
C42   H11   S    
C54   C82   S    
C52   C53   T    
C86   H25   S    
C25   C30   A    
C23   O1    A    
C27   H7    S    
C59   C62   A    
N3    H28   S    
C50   H10   S    
Cr2   O21   S    
C83   O18   A    
N2    H24   S    
C47   C48   A    
C6    C8    T    
C45   O2    A    
Cr2   O20   S    
C57   C61   A    
N1    C85   S    
Cr5   O15   S    
C35   H5    S    
C48   N4    S    
C77   O8    A    
Cr2   O5    S    
C3    H17   S    
Cr6   O10   S    
C19   C20   A    
Cr2   O2    S    
C9    C15   A    
C71   C72   A    
Cr4   O19   S    
N7    H44   S    
C39   C80   S    
C11   C13   A    
C72   C75   S    
C57   C58   A    
C34   O26   A    
Cr4   O6    S    
C66   C75   T    
C33   C35   A    
C13   C22   S    
C2    C3    A    
C83   O13   A    
C1    O12   A    
C32   N2    S    
N5    H36   S    
Cr1   O5    S    
C10   C11   A    
C29   C30   A    
C78   C84   A    
C24   C77   S    
Cr5   O9    S    
C36   C37   S    
C31   H2    S    
C68   H15   S    
C27   C28   A    
Cr6   O19   S    
C14   C15   A    
C87   H29   S    
C59   Br4   S    
C60   H14   S    
C78   Br1   S    
N1    H20   S    
Cr1   O24   S    
Cr5   O19   S    
