data_mof_unit_30484.cif
_audit_creation_date              2012-12-11T20:57:24-0500
_audit_creation_method            fapswitch 2.2
_symmetry_space_group_name_H-M    P1
_symmetry_Int_Tables_number       1
_space_group_crystal_system       triclinic
_cell_length_a                    8.400657
_cell_length_b                    18.827194
_cell_length_c                    22.828623
_cell_angle_alpha                 100.755997
_cell_angle_beta                  90.44701
_cell_angle_gamma                 91.651369
_cell_volume                      3545.3657118

loop_
_atom_site_label
_atom_site_type_symbol
_atom_type_description
_atom_site_fract_x
_atom_site_fract_y
_atom_site_fract_z
_atom_type_partial_charge
Ba1   Ba    Ba6+2 0.157800 0.534120 0.474430 1.799566
Ba2   Ba    Ba6+2 0.652390 0.465870 0.525520 1.771438
C1    C     C_3   0.441520 0.766564 0.279847 -0.077984
C2    C     C_3   0.428046 0.713179 0.322990 0.499156
C3    C     C_3   0.526995 0.704009 0.664407 0.551784
C4    C     C_3   0.466500 0.783081 0.680154 0.189893
C5    C     C_3   0.873079 0.266257 0.647935 0.320368
C6    C     C_3   0.838190 0.195109 0.668576 0.454452
C7    C     C_3   0.378791 0.276720 0.674010 0.494090
C8    C     C_3   0.296644 0.210406 0.692677 0.559991
C9    C     C_R   0.998081 0.952270 0.524957 0.042907
C10   C     C_R   0.075100 0.905975 0.558179 0.142179
C11   C     C_R   0.219896 0.045086 0.535108 -0.049917
C12   C     C_3   0.896060 0.726608 0.323618 0.353098
C13   C     C_R   0.059949 0.022878 0.520843 0.084541
C14   C     C_R   0.271627 0.116690 0.539439 -0.107572
C15   C     C_R   0.168451 0.168895 0.526376 -0.013874
C16   C     C_R   0.016864 0.145627 0.501375 0.051405
C17   C     C_R   0.962541 0.072080 0.498135 0.081137
C18   C     C_R   0.214381 0.243055 0.535210 -0.066951
C19   C     C_R   0.109167 0.292879 0.519481 -0.228741
C20   C     C_R   0.971223 0.269724 0.485769 0.114078
C21   C     C_R   0.923447 0.194909 0.476995 -0.080108
C22   C     C_R   0.848149 0.928083 0.497752 0.022844
C23   C     C_3   0.960285 0.797771 0.306444 0.776553
C24   C     C_R   0.790849 0.855233 0.496682 0.012611
C25   C     C_R   0.881529 0.807023 0.523511 -0.127095
C26   C     C_R   0.019558 0.834750 0.555132 -0.023252
C27   C     C_R   0.787811 0.166892 0.443274 -0.006236
C28   C     C_R   0.731977 0.096114 0.441521 -0.078593
C29   C     C_R   0.813190 0.048123 0.471190 0.013231
C30   C     C_R   0.754228 0.976281 0.471924 0.031254
C31   C     C_R   0.601238 0.951529 0.449380 -0.085132
C32   C     C_R   0.641420 0.831036 0.469689 -0.112411
C33   C     C_R   0.546891 0.880761 0.448076 -0.101234
C34   C     C_3   0.832419 0.328233 0.324191 0.472321
C35   C     C_R   0.591242 0.757704 0.464868 -0.099064
C36   C     C_R   0.692107 0.709164 0.485146 0.355131
C37   C     C_R   0.829990 0.733085 0.518688 -0.005584
C38   C     C_R   0.622118 0.535987 0.338544 -0.231566
C39   C     C_R   0.499965 0.481329 0.925085 -0.002511
C40   C     C_R   0.456401 0.472405 0.864172 0.578023
C41   C     C_R   0.180783 0.460052 0.888503 0.635433
C42   C     C_R   0.222665 0.461707 0.948747 -0.106047
C43   C     C_R   0.381885 0.475884 0.967548 -0.053373
C44   C     C_R   0.658541 0.496509 0.944699 -0.069963
C45   C     C_3   0.944733 0.316380 0.269111 0.622898
C46   C     C_R   0.698530 0.505523 0.005232 -0.055762
C47   C     C_R   0.582401 0.497866 0.047830 0.003505
C48   C     C_R   0.423182 0.484278 0.029061 -0.128324
C49   C     C_R   0.108517 0.449968 0.990784 -0.128133
C50   C     C_R   0.148393 0.458812 0.051319 0.647254
C51   C     C_R   0.305093 0.479151 0.071541 -0.116102
C52   C     C_R   0.346792 0.494461 0.132938 0.623040
C53   C     C_R   0.622880 0.502483 0.108586 0.603858
C54   C     C_2   0.140363 0.420502 0.755151 -0.107860
C55   C     C_3   0.096144 0.421227 0.690877 -0.080126
C56   C     C_3   0.057561 0.717853 0.664965 0.909763
C57   C     C_1   0.293797 0.518544 0.694285 0.040926
C58   C     C_2   0.328545 0.522552 0.751759 0.113003
C59   C     C_2   0.252481 0.467736 0.784609 0.167274
C60   C     C_R   0.681266 0.557495 0.239800 -0.062784
C61   C     C_R   0.724998 0.563607 0.299912 -0.066080
C62   C     C_R   0.494325 0.489427 0.315620 -0.003647
C63   C     C_R   0.461655 0.476116 0.254074 -0.093440
C64   C     C_R   0.548567 0.513047 0.215213 0.203344
C65   C     C_2   0.159018 0.488237 0.670032 -0.063186
C66   C     C_3   0.005397 0.794231 0.692446 -0.028095
C67   C     C_3   0.331941 0.313655 0.392789 0.812546
C68   C     C_3   0.292241 0.233462 0.371710 -0.300773
H1    H     H_    0.060528 0.345398 0.282108 0.057176
H2    H     H_    0.161079 0.721572 0.636744 -0.045643
H3    H     H_    0.913247 0.811323 0.663546 0.015437
H4    H     H_    0.107783 0.833038 0.694206 -0.009858
H5    H     H_    0.433678 0.319658 0.424261 0.022788
H6    H     H_    0.323357 0.773869 0.260213 0.153037
H7    H     H_    0.187002 0.226202 0.341281 0.188203
H8    H     H_    0.265526 0.207425 0.410380 0.041478
H9    H     H_    0.394552 0.206113 0.347720 0.054418
H10   H     H_    0.549705 0.706063 0.339863 -0.073735
H11   H     H_    0.373547 0.789493 0.646973 0.044965
H12   H     H_    0.482098 0.820219 0.305244 0.098091
H13   H     H_    0.825098 0.262154 0.601878 0.041831
H14   H     H_    0.004553 0.274768 0.647926 -0.059883
H15   H     H_    0.708598 0.182279 0.666107 0.081933
H16   H     H_    0.879932 0.199088 0.715372 0.103384
H17   H     H_    0.283503 0.311228 0.661806 -0.157018
H18   H     H_    0.870051 0.736193 0.372143 -0.046542
H19   H     H_    0.222484 0.181622 0.654763 0.069514
H20   H     H_    0.144375 0.349634 0.527587 0.111914
H21   H     H_    0.393775 0.130228 0.553272 0.107467
H22   H     H_    0.087747 0.802032 0.578996 0.034785
H23   H     H_    0.720403 0.199046 0.418133 0.092439
H24   H     H_    0.429642 0.865656 0.429292 0.130809
H25   H     H_    0.310259 0.007516 0.541014 0.104900
H26   H     H_    0.625699 0.080199 0.415071 0.067785
H27   H     H_    0.785615 0.709600 0.297488 -0.111233
H28   H     H_    0.518518 0.985994 0.432838 0.076077
H29   H     H_    0.988192 0.432745 0.976576 0.138073
H30   H     H_    0.820341 0.520045 0.018988 0.124222
H31   H     H_    0.754472 0.586280 0.212718 0.126972
H32   H     H_    0.751716 0.502850 0.913430 0.166841
H33   H     H_    0.089135 0.377721 0.775665 0.166599
H34   H     H_    0.369018 0.436462 0.236876 0.123517
H35   H     H_    0.655102 0.541631 0.385037 0.149706
N1    N     N_R   0.297104 0.465928 0.846525 -0.427656
N2    N     N_R   0.505731 0.503358 0.151517 -0.445671
O1    O     O_2   0.110690 0.676100 0.539200 -0.500157
O2    O     O_3   0.368134 0.345390 0.343553 -0.650020
O3    O     O_3   0.009608 0.672846 0.310081 -0.586825
O4    O     O_2   0.699610 0.323860 0.460780 -0.511688
O5    O     O_3   0.947090 0.413280 0.465240 -0.415349
O6    O     O_3   0.442000 0.370930 0.567190 -0.462688
O7    O     O_3   0.907910 0.297865 0.368423 -0.605750
O8    O     O_3   0.359410 0.538600 0.570730 -0.447366
O9    O     O_3   0.850780 0.407910 0.598320 -0.468527
O10   O     O_2   0.773785 0.464556 0.708666 -0.427895
O11   O     O_3   0.799159 0.322402 0.686550 -0.601461
O12   O     O_3   0.863220 0.586720 0.534720 -0.390143
O13   O     O_3   0.450900 0.461390 0.429220 -0.440387
O14   O     O_2   0.599830 0.538970 0.641850 -0.484552
O15   O     O_3   0.396726 0.656743 0.669920 -0.597150
O16   O     O_2   0.537823 0.242930 0.514111 -0.497773
O17   O     O_3   0.483950 0.253148 0.626862 -0.616925
O18   O     O_2   0.560466 0.470280 0.826852 -0.571638
O19   O     O_2   0.040148 0.455217 0.873850 -0.588438
O20   O     O_2   0.240840 0.501805 0.169704 -0.506938
O21   O     O_2   0.763262 0.504083 0.122809 -0.513404
O22   O     O_3   0.368310 0.629070 0.432760 -0.414536
O23   O     O_2   0.264040 0.756678 0.481938 -0.474796
O24   O     O_3   0.929796 0.676469 0.634256 -0.673937
O25   O     O_3   0.324667 0.742001 0.369227 -0.533029
O26   O     O_2   0.210480 0.460990 0.358130 -0.441541
O27   O     O_3   0.959520 0.592090 0.401630 -0.445794
O28   O     O_2   0.045668 0.533877 0.293751 -0.456745
P1    P     P_3+3 0.935930 0.665430 0.555670 1.011135
P2    P     P_3+3 0.382700 0.439650 0.365620 1.079565
P3    P     P_3+3 0.931328 0.591250 0.325674 0.989514
P4    P     P_3+3 0.874370 0.334570 0.444280 1.082935
P5    P     P_3+3 0.877972 0.404869 0.673517 1.041715
P6    P     P_3+3 0.389612 0.722316 0.437340 1.038091
P7    P     P_3+3 0.419837 0.562568 0.645664 0.990620
P8    P     P_3+3 0.417034 0.277375 0.560650 0.942036
N3    N     N_3   0.365314 0.642994 0.291348 -0.494540
H36   H     H_    0.270731 0.650009 0.263222 0.218489
H37   H     H_    0.319986 0.613516 0.322214 0.213458
F1    F     F_    0.976954 0.243682 0.252839 -0.669239
N4    N     N_3   0.880285 0.341436 0.216887 -0.425008
H38   H     H_    0.758369 0.328959 0.211743 0.183213
H39   H     H_    0.897496 0.397508 0.222144 0.182772
F2    F     F_    0.108318 0.683632 0.710055 -0.704838
N5    N     N_3   0.943575 0.797553 0.752577 -0.443203
H40   H     H_    0.038379 0.791408 0.781015 0.239177
H41   H     H_    0.905241 0.850092 0.767564 0.164761
F3    F     F_    0.204389 0.346237 0.421908 -0.742784
N6    N     N_3   0.552951 0.741696 0.232134 -0.548498
H42   H     H_    0.567256 0.782717 0.207246 0.188281
H43   H     H_    0.500667 0.697300 0.203296 0.190309
N7    N     N_3   0.656810 0.695932 0.705987 -0.463892
H44   H     H_    0.609725 0.695077 0.748055 0.175141
H45   H     H_    0.710934 0.646591 0.693566 0.221535
N8    N     N_3   0.581052 0.692258 0.602952 -0.532346
H46   H     H_    0.625833 0.640817 0.591186 0.224428
H47   H     H_    0.481950 0.693441 0.575108 0.154792
N9    N     N_3   0.394516 0.797261 0.739381 -0.441326
H48   H     H_    0.483083 0.800121 0.772208 0.185523
H49   H     H_    0.346674 0.848753 0.745893 0.178637
N10   N     N_3   0.590448 0.838267 0.676258 -0.513509
H50   H     H_    0.676018 0.838108 0.709421 0.203787
H51   H     H_    0.644632 0.827198 0.634616 0.165254
N11   N     N_3   0.851318 0.856756 0.324559 -0.456034
H52   H     H_    0.831211 0.862291 0.370216 0.158914
H53   H     H_    0.742516 0.843937 0.302434 0.128115
F4    F     F_    0.915422 0.139663 0.632759 -0.738507
N12   N     N_3   0.471018 0.318734 0.723908 -0.429328
H54   H     H_    0.504513 0.368106 0.712192 0.207701
H55   H     H_    0.398345 0.331186 0.761100 0.195294
F5    F     F_    0.196457 0.231851 0.740263 -0.735395
N13   N     N_3   0.413506 0.160893 0.708406 -0.493355
H56   H     H_    0.352111 0.113943 0.714927 0.201544
H57   H     H_    0.466156 0.184152 0.749431 0.210425
F6    F     F_    0.648279 0.638194 0.476556 -0.726846
N14   N     N_3   0.201416 0.931939 0.599965 -0.503550
H58   H     H_    0.298416 0.898314 0.590093 0.176039
H59   H     H_    0.162600 0.928427 0.642722 0.182433
F7    F     F_    0.035070 0.443963 0.089562 -0.622345
N15   N     N_3   0.397305 0.589254 0.784390 -0.448646
H60   H     H_    0.521047 0.585444 0.782572 0.197911
H61   H     H_    0.364520 0.596752 0.829108 0.185189
F8    F     F_    0.103511 0.817939 0.335669 -0.668300
N16   N     N_3   0.047042 0.530892 0.644758 -0.432254
H62   H     H_    0.103556 0.564113 0.619170 0.197568
H63   H     H_    0.988986 0.563064 0.679897 0.233894
N17   N     N_3   0.985621 0.788489 0.242015 -0.447915
H64   H     H_    0.877630 0.773345 0.219424 0.143205
H65   H     H_    0.062790 0.746090 0.228750 0.178322
N18   N     N_3   0.679455 0.290018 0.308444 -0.494847
H66   H     H_    0.699278 0.236733 0.287573 0.218900
H67   H     H_    0.623541 0.285361 0.348090 0.155831
N19   N     N_3   0.806979 0.405072 0.344129 -0.506728
H68   H     H_    0.765152 0.423692 0.307098 0.065052
H69   H     H_    0.916540 0.431770 0.355496 0.196687

loop_
_geom_bond_atom_site_label_1
_geom_bond_atom_site_label_2
_ccdc_geom_bond_type
O28   P3    D    
N17   H65   S    
N11   H52   S    
C47   C48   A    
O26   P2    D    
N9    H48   S    
C53   O21   D    
C68   H8    S    
C32   C35   A    
C39   C40   A    
C5    H13   S    
C18   P8    S    
C64   N2    S    
N14   H58   S    
C17   C29   A    
C15   C18   A    
N16   H63   S    
O4    P4    D    
C5    C6    S    
C2    O25   S    
C51   C52   A    
C56   F2    S    
C13   C17   A    
N11   H53   S    
Ba2   O5    S    
C24   C25   A    
C67   F3    S    
C38   C61   A    
C35   P6    S    
C52   N2    Am   
C11   H25   S    
C8    N13   S    
C21   C27   A    
N6    H42   S    
C35   C36   A    
N4    H39   S    
O1    P1    D    
Ba1   O22   S    
C23   F8    S    
N14   H59   S    
Ba1   O5    S    
C3    C4    S    
C32   C33   A    
Ba2   O6    S    
C6    F4    S    
C33   H24   S    
C10   N14   S    
O22   P6    S    
C66   H4    S    
C9    C22   A    
C7    O17   S    
C54   C55   S    
C34   C45   S    
O2    P2    S    
C6    H15   S    
Ba1   O12   S    
N18   H67   S    
O23   P6    D    
C28   H26   S    
C40   O18   D    
C57   C65   D    
C9    C13   A    
C24   C32   A    
C31   H28   S    
C57   P7    S    
C25   C37   A    
C14   C15   A    
C3    N7    S    
N19   H68   S    
C39   C44   A    
N7    H45   S    
O17   P8    S    
C7    N12   S    
Ba1   P1    S    
C7    C8    S    
C6    H16   S    
C19   H20   S    
C60   H31   S    
C23   N11   S    
N10   H51   S    
N17   H64   S    
C4    N9    S    
C34   O7    S    
C57   C58   D    
N9    H49   S    
C4    H11   S    
C19   C20   A    
C68   H7    S    
C5    O11   S    
C67   C68   S    
C50   F7    S    
C55   C65   S    
O11   P5    S    
C67   O2    S    
C41   O19   D    
O15   P7    S    
N8    H47   S    
C37   P1    S    
C49   H29   S    
C46   H30   S    
C44   C46   A    
Ba2   O4    S    
Ba1   O26   S    
C48   C51   A    
C60   C64   A    
C49   C50   A    
C8    F5    S    
O3    P3    S    
C34   N18   S    
C8    H19   S    
N12   H55   S    
O24   P1    S    
Ba2   O13   S    
C16   C17   A    
C66   H3    S    
C47   C53   A    
C20   P4    S    
C16   C21   A    
C55   P5    S    
C53   N2    Am   
C58   C59   S    
C41   N1    Am   
C41   C42   A    
C22   C30   A    
O27   P3    S    
C60   C61   A    
C66   N5    S    
C44   H32   S    
Ba2   O8    S    
N7    H44   S    
C56   O24   S    
Ba2   O12   S    
C1    H12   S    
C15   C16   A    
C26   H22   S    
O7    P4    S    
N5    H40   S    
C59   N1    S    
C40   N1    Am   
C45   H1    S    
C42   C49   A    
N3    H37   S    
C46   C47   A    
C10   C26   A    
C28   C29   A    
C58   N15   S    
C11   C13   A    
C61   P3    S    
O10   P5    D    
Ba2   P4    S    
C67   H5    S    
C1    C2    S    
C25   C26   A    
Ba1   P2    S    
C50   C51   A    
C12   H27   S    
N8    H46   S    
Ba2   O14   S    
C56   C66   S    
O25   P6    S    
C12   O3    S    
C4    N10   S    
O8    P7    S    
C45   N4    S    
N10   H50   S    
C39   C43   A    
C68   H9    S    
C54   C59   D    
O14   P7    D    
C29   C30   A    
C42   C43   A    
C34   N19   S    
C54   H33   S    
N5    H41   S    
N3    H36   S    
C38   C62   A    
C2    N3    S    
Ba2   O9    S    
C9    C10   A    
C2    H10   S    
C52   O20   D    
Ba1   O13   S    
O12   P1    S    
C36   F6    S    
C3    N8    S    
N6    H43   S    
C12   H18   S    
N15   H60   S    
C45   F1    S    
C30   C31   A    
C27   H23   S    
C22   C24   A    
C56   H2    S    
C36   C37   A    
C43   C48   A    
Ba1   Ba2   S    
C62   C63   A    
C1    N6    S    
C31   C33   A    
C5    H14   S    
N12   H54   S    
C65   N16   S    
N4    H38   S    
C12   C23   S    
N18   H66   S    
N16   H62   S    
N15   H61   S    
Ba1   O1    S    
C27   C28   A    
N13   H56   S    
O6    P8    S    
C18   C19   A    
C14   H21   S    
O5    P4    S    
C63   C64   A    
C11   C14   A    
O16   P8    D    
C62   P2    S    
C1    H6    S    
C20   C21   A    
O13   P2    S    
Ba1   O8    S    
C63   H34   S    
O9    P5    S    
C3    O15   S    
N19   H69   S    
C7    H17   S    
C23   N17   S    
Ba1   O27   S    
C38   H35   S    
N13   H57   S    
