data_mof_unit_56910.cif
_audit_creation_date              2012-10-26T21:13:39-0400
_audit_creation_method            fapswitch 2.2
_symmetry_space_group_name_H-M    P1
_symmetry_Int_Tables_number       1
_space_group_crystal_system       triclinic
_cell_length_a                    9.062975
_cell_length_b                    10.864965
_cell_length_c                    9.56315
_cell_angle_alpha                 89.744596
_cell_angle_beta                  89.719013
_cell_angle_gamma                 90.515807
_cell_volume                      941.613895142

loop_
_atom_site_label
_atom_site_type_symbol
_atom_type_description
_atom_site_fract_x
_atom_site_fract_y
_atom_site_fract_z
_atom_type_partial_charge
C1    C     C_R   0.499757 0.262653 0.500278 0.564356
C2    C     C_R   0.609836 0.558795 0.925499 0.146994
C3    C     C_3   0.770150 0.529320 0.917338 -0.250428
C4    C     C_R   0.220743 0.500055 0.500192 0.562246
C5    C     C_3   0.771042 0.527288 0.075811 0.129114
C6    C     C_R   0.500788 0.737200 0.499528 0.540595
C7    C     C_R   0.779244 0.500298 0.499825 0.543124
C8    C     C_1   0.065568 0.500294 0.500299 -0.042618
C9    C     C_1   0.934393 0.500384 0.499768 -0.044306
C10   C     C_R   0.507191 0.060960 0.622404 0.067507
C11   C     C_R   0.500180 0.129818 0.499475 0.008043
C12   C     C_R   0.495675 0.936077 0.370759 -0.170019
C13   C     C_R   0.495057 0.065078 0.371689 -0.177737
C14   C     C_3   0.819529 0.734333 0.144956 -0.099969
C15   C     C_2   0.384230 0.861791 0.836928 0.615255
C16   C     C_3   0.774235 0.874155 0.742219 -0.129731
C17   C     C_3   0.364397 0.126501 0.971305 -0.058290
C18   C     C_3   0.699025 0.116957 0.947874 -0.109307
C19   C     C_3   0.134545 0.423367 0.897279 -0.109038
C20   C     C_R   0.502572 0.869776 0.497617 -0.015510
C21   C     C_R   0.510614 0.936913 0.620366 -0.051504
C22   C     C_3   0.519531 0.926404 0.776971 0.297664
C23   C     C_3   0.513944 0.071842 0.779077 0.516610
C24   C     C_R   0.609482 0.559398 0.073155 0.169914
C25   C     C_R   0.386992 0.449075 0.075846 -0.023389
C26   C     C_R   0.384962 0.449832 0.926232 0.387057
Cu1   Cu    Cu3+1 0.499990 0.499980 0.640670 1.070018
Cu2   Cu    Cu3+1 0.500010 0.500020 0.359330 0.944695
H1    H     H_    0.490041 0.113424 0.272612 0.119258
H2    H     H_    0.301449 0.745527 0.983196 0.323935
H3    H     H_    0.873864 0.851072 0.803532 0.150165
H4    H     H_    0.794947 0.965330 0.692549 0.150715
H5    H     H_    0.760548 0.801711 0.661793 0.133363
H6    H     H_    0.432658 0.200273 0.018315 0.119171
H7    H     H_    0.389609 0.036475 0.020223 0.092594
H8    H     H_    0.247765 0.146980 0.997107 0.144044
H9    H     H_    0.641205 0.042687 0.007092 0.126825
H10   H     H_    0.694094 0.203079 0.009619 0.101045
H11   H     H_    0.816872 0.091250 0.939075 0.143134
H12   H     H_    0.836002 0.605680 0.869892 0.148249
H13   H     H_    0.055008 0.397177 0.814601 0.148251
H14   H     H_    0.127032 0.524982 0.910947 0.129374
H15   H     H_    0.099996 0.374298 0.994291 0.094522
H16   H     H_    0.789410 0.433131 0.118087 0.130471
H17   H     H_    0.490282 0.889105 0.271200 0.155288
H18   H     H_    0.300776 0.402063 0.133966 0.121489
H19   H     H_    0.790416 0.437158 0.871384 0.117116
H20   H     H_    0.732005 0.739487 0.226182 0.155583
H21   H     H_    0.778956 0.769130 0.043166 0.165327
H22   H     H_    0.911299 0.795692 0.177911 0.129038
N1    N     N_R   0.500920 0.500930 0.147930 -0.286419
N2    N     N_R   0.500930 0.500890 0.852020 -0.209826
O1    O     O_R   0.500000 0.319640 0.618810 -0.413214
O2    O     O_2   0.262387 0.878320 0.785780 -0.540995
O3    O     O_R   0.398880 0.783736 0.952499 -0.696506
O4    O     O_3   0.651306 0.875261 0.834053 -0.599164
O5    O     O_3   0.380195 0.126777 0.824442 -0.509954
O6    O     O_3   0.644072 0.140043 0.812158 -0.558951
O7    O     O_3   0.276506 0.386155 0.854251 -0.507894
O8    O     O_R   0.500020 0.319680 0.381230 -0.538935
O9    O     O_R   0.288380 0.499980 0.618770 -0.448230
O10   O     O_R   0.288400 0.500020 0.381190 -0.503771
O11   O     O_R   0.499980 0.680320 0.618770 -0.480461
O12   O     O_R   0.500000 0.680360 0.381190 -0.511045
O13   O     O_R   0.711600 0.499980 0.618810 -0.523985
O14   O     O_R   0.711620 0.500020 0.381230 -0.482575
O15   O     O_3   0.873564 0.613212 0.134034 -0.568377

loop_
_geom_bond_atom_site_label_1
_geom_bond_atom_site_label_2
_ccdc_geom_bond_type
C6    O11   A    
C8    C9    T    
C23   O6    S    
Cu2   O14   S    
C14   O15   S    
Cu1   O1    S    
Cu2   O10   S    
Cu1   O13   S    
C17   H8    S    
C26   N2    A    
C16   H5    S    
C16   H4    S    
C6    C20   S    
H2    O3    S    
C25   N1    A    
C1    C11   S    
C19   H14   S    
C4    C8    S    
C5    O15   S    
C12   C20   A    
C24   N1    A    
C16   O4    S    
C2    C3    S    
C18   H10   S    
C3    C5    S    
C4    O9    A    
C25   C26   A    
C21   C22   S    
Cu1   N2    S    
C7    O14   A    
C11   C13   A    
C14   H22   S    
C5    C24   S    
C2    N2    A    
Cu2   O12   S    
C3    H19   S    
Cu1   O9    S    
C18   H9    S    
C19   H15   S    
C3    H12   S    
Cu2   O8    S    
C10   C21   A    
C2    C24   A    
C10   C23   S    
Cu2   N1    S    
C14   H21   S    
C7    O13   A    
C17   H6    S    
C22   O4    S    
C6    O12   A    
C15   O2    D    
C4    O10   A    
C12   C13   A    
C23   O5    S    
C10   C11   A    
C1    O8    A    
C13   H1    S    
Cu1   Cu2   S    
C7    C9    S    
C18   H11   S    
C1    O1    A    
C22   C23   S    
Cu1   O11   S    
C26   O7    S    
C14   H20   S    
C17   H7    S    
C19   O7    S    
C20   C21   A    
C25   H18   S    
C5    H16   S    
C15   C22   S    
C18   O6    S    
C19   H13   S    
C17   O5    S    
C12   H17   S    
C16   H3    S    
C15   O3    S    
