data_mof_unit_17291.cif
_audit_creation_date              2013-03-05T15:55:21-0500
_audit_creation_method            fapswitch 2.2
_symmetry_space_group_name_H-M    P1
_symmetry_Int_Tables_number       1
_space_group_crystal_system       triclinic
_cell_length_a                    27.487794
_cell_length_b                    10.592084
_cell_length_c                    9.939954
_cell_angle_alpha                 89.884585
_cell_angle_beta                  89.44725
_cell_angle_gamma                 91.86953
_cell_volume                      2892.36471656

loop_
_atom_site_label
_atom_site_type_symbol
_atom_site_description
_atom_site_fract_x
_atom_site_fract_y
_atom_site_fract_z
_atom_type_partial_charge
O1    O     O_R   0.500000 0.316780 0.614690 -0.651051
O2    O     O_R   0.500000 0.316750 0.385360 -0.644635
C1    C     C_R   0.501740 0.258565 0.500500 0.858330
O3    O     O_R   0.428760 0.500030 0.614650 -0.659462
O4    O     O_R   0.428750 0.500010 0.385320 -0.616734
C2    C     C_R   0.406015 0.499726 0.500033 0.846960
Zn1   Zn    Zn3+2 0.500000 0.500020 0.653130 0.973209
Zn2   Zn    Zn3+2 0.500000 0.499980 0.346870 1.035510
O5    O     O_R   0.500000 0.683250 0.614640 -0.593636
O6    O     O_R   0.500000 0.683220 0.385310 -0.509547
O7    O     O_R   0.571250 0.499990 0.614680 -0.564771
O8    O     O_R   0.571240 0.499970 0.385350 -0.560842
C3    C     C_R   0.490422 0.735980 0.501239 0.975573
C4    C     C_R   0.593732 0.501124 0.499634 0.980714
C5    C     C_R   0.179504 0.577758 0.380182 0.548918
O9    O     O_2   0.203278 0.544434 0.266837 -0.510845
N1    N     N_R   0.204978 0.606622 0.493649 -0.354248
C6    C     C_R   0.182613 0.644529 0.609462 0.617829
C7    C     C_R   0.290224 0.665739 0.439316 0.162030
C8    C     C_R   0.339079 0.632350 0.437474 -0.238507
C9    C     C_R   0.319011 0.433324 0.552463 0.015348
C10   C     C_R   0.269676 0.464343 0.551252 0.406483
C11   C     C_R   0.255660 0.580076 0.496368 0.136929
C12   C     C_R   0.104464 0.604021 0.504545 -0.103117
C13   C     C_R   0.128835 0.577792 0.382718 -0.001865
C14   C     C_R   0.102103 0.548449 0.267273 -0.076591
C15   C     C_R   0.131301 0.642732 0.618963 -0.119026
C16   C     C_R   0.353781 0.520512 0.498018 -0.126987
H1    H     H_    0.119882 0.535668 0.170730 0.222124
C17   C     C_R   0.646363 0.509544 0.499821 -0.179994
C18   C     C_R   0.977968 0.500817 0.415656 0.014943
C19   C     C_R   0.976217 0.615653 0.630674 0.018025
C20   C     C_R   0.951479 0.553193 0.524126 0.061173
C21   C     C_R   0.953357 0.414794 0.327360 0.125061
C22   C     C_R   0.902608 0.414141 0.323577 -0.107743
C23   C     C_R   0.875893 0.478160 0.420656 -0.049047
C24   C     C_R   0.900041 0.543001 0.525557 -0.105921
C25   C     C_R   0.872776 0.598676 0.630232 -0.132054
C26   C     C_R   0.821490 0.588355 0.624455 0.624413
N2    N     N_R   0.799315 0.528853 0.518539 -0.345393
C27   C     C_R   0.825132 0.473535 0.418348 0.582256
C28   C     C_R   0.722228 0.411020 0.545758 -0.102411
C29   C     C_R   0.671804 0.403948 0.539642 -0.254846
C30   C     C_R   0.671215 0.624046 0.467895 0.344007
C31   C     C_R   0.722127 0.630587 0.472590 0.398421
C32   C     C_R   0.747420 0.523730 0.512346 0.134024
O10   O     O_2   0.801524 0.414448 0.316625 -0.512258
C33   C     C_R   0.027666 0.537039 0.400685 0.053985
C34   C     C_R   0.053220 0.588198 0.511896 0.094225
C35   C     C_R   0.027889 0.622072 0.629974 0.007105
C36   C     C_R   0.051971 0.531121 0.275705 -0.239324
H2    H     H_    0.652542 0.316393 0.566300 0.173396
H3    H     H_    0.741893 0.329065 0.576650 0.185658
H4    H     H_    0.883901 0.357174 0.248543 0.201917
H5    H     H_    0.032435 0.511422 0.183747 0.164074
O11   O     O_2   0.210361 0.679422 0.714914 -0.456116
C37   C     C_R   0.105757 0.671864 0.738730 0.453196
H6    H     H_    0.366670 0.694474 0.392286 0.194275
C38   C     C_R   0.948489 0.670887 0.733517 -0.260932
C39   C     C_R   0.897858 0.663009 0.734657 0.444691
O12   O     O_2   0.793568 0.636858 0.722494 -0.429650
C40   C     C_R   0.055080 0.661988 0.742631 -0.264890
H7    H     H_    0.965284 0.725624 0.812821 0.181852
H8    H     H_    0.037900 0.681281 0.838032 0.177464
H9    H     H_    0.475661 0.113494 0.294031 0.196033
C41   C     C_R   0.524952 0.102098 0.740685 -0.115392
H10   H     H_    0.549459 0.183375 0.732134 0.170741
C42   C     C_R   0.517488 0.044050 0.866613 0.175823
C43   C     C_R   0.485326 0.939483 0.875257 -0.125849
H11   H     H_    0.476472 0.900256 0.973168 0.203671
C44   C     C_R   0.464992 0.883684 0.759924 0.219600
C45   C     C_R   0.479778 0.932677 0.631001 0.068513
C46   C     C_R   0.501556 0.053718 0.624854 0.033394
C47   C     C_R   0.498328 0.121930 0.502579 -0.157461
C48   C     C_R   0.481051 0.061713 0.386281 -0.202458
C49   C     C_R   0.470856 0.933721 0.387112 0.413667
C50   C     C_R   0.476038 0.866604 0.507297 -0.261973
C51   C     C_R   0.438345 0.329304 0.141903 -0.271617
H12   H     H_    0.434961 0.327453 0.248518 0.233874
C52   C     C_R   0.410287 0.239338 0.073263 0.365400
C53   C     C_R   0.410907 0.238203 0.933668 0.357152
C54   C     C_R   0.439146 0.327876 0.863107 -0.255949
H13   H     H_    0.436781 0.325662 0.756940 0.231138
C55   C     C_R   0.469670 0.415949 0.929201 0.004993
C56   C     C_R   0.469556 0.416162 0.073313 0.037377
N3    N     N_R   0.499540 0.498800 0.142780 -0.153353
C57   C     C_R   0.529264 0.580766 0.070384 0.386181
C58   C     C_R   0.529351 0.580564 0.927247 0.321100
N4    N     N_R   0.499520 0.498720 0.857170 -0.175512
C59   C     C_3   0.333448 0.305459 0.603980 -0.340635
C60   C     C_3   0.324340 0.202795 0.499215 -0.712547
H14   H     H_    0.285146 0.192792 0.474436 0.295250
H15   H     H_    0.345369 0.226902 0.406587 0.278186
H16   H     H_    0.336621 0.111072 0.538494 0.261323
H17   H     H_    0.372411 0.305209 0.628280 0.206863
H18   H     H_    0.313361 0.281601 0.698520 0.293170
C61   C     C_3   0.273430 0.791253 0.384573 -0.418245
C62   C     C_3   0.313421 0.881628 0.330296 -0.684147
H19   H     H_    0.340228 0.905654 0.409791 0.247104
H20   H     H_    0.332043 0.839495 0.242326 0.306174
H21   H     H_    0.296743 0.970323 0.296965 0.289410
H22   H     H_    0.247231 0.772799 0.302061 0.257557
H23   H     H_    0.253904 0.840793 0.466353 0.226242
Cl1   Cl    Cl    0.134084 0.719219 0.890116 -0.503522
Cl2   Cl    Cl    0.638730 0.760600 0.429715 -0.426508
Cl3   Cl    Cl    0.869035 0.739018 0.870433 -0.464996
Cl4   Cl    Cl    0.754504 0.771514 0.428464 -0.438045
C63   C     C_3   0.539963 0.093332 0.995923 -0.377567
C64   C     C_3   0.577171 0.202974 0.980043 -0.794436
H24   H     H_    0.607900 0.175068 0.914348 0.277112
H25   H     H_    0.559881 0.287199 0.937534 0.245334
H26   H     H_    0.591862 0.228932 0.080293 0.270890
H27   H     H_    0.510305 0.123925 0.063823 0.211844
H28   H     H_    0.558299 0.014316 0.046346 0.270359
Cl5   Cl    Cl    0.224227 0.358672 0.617704 -0.562565
C65   C     C_3   0.424053 0.784659 0.782282 -0.391112
C66   C     C_3   0.379057 0.807006 0.697848 -0.759972
H29   H     H_    0.363333 0.899038 0.721761 0.316986
H30   H     H_    0.388090 0.805020 0.589581 0.220722
H31   H     H_    0.351009 0.731624 0.719263 0.267338
H32   H     H_    0.436348 0.688002 0.766278 0.246057
H33   H     H_    0.411817 0.785361 0.889268 0.238516
Cl6   Cl    Cl    0.449058 0.862621 0.238357 -0.633164
Cl7   Cl    Cl    0.568109 0.687929 0.155240 -0.421854
Cl8   Cl    Cl    0.374790 0.127526 0.164459 -0.590867
Cl9   Cl    Cl    0.376847 0.123643 0.845236 -0.620491
Cl10  Cl    Cl    0.568946 0.685993 0.839196 -0.474529
C67   C     C_3   0.978812 0.311877 0.249094 -0.454154
C68   C     C_3   0.959053 0.179404 0.286364 -0.754717
H34   H     H_    0.960357 0.165196 0.397043 0.267926
H35   H     H_    0.921088 0.163991 0.251621 0.266922
H36   H     H_    0.981746 0.107562 0.237174 0.261290
H37   H     H_    0.974332 0.327598 0.139406 0.223067
H38   H     H_    0.018162 0.310556 0.271388 0.237663

loop_
_geom_bond_atom_site_label_1
_geom_bond_atom_site_label_2
_geom_bond_distance
_ccdc_geom_bond_type
C41   C42   1.403790 A    
C57   C58   1.422757 A    
C53   Cl9   1.751471 S    
C46   C47   1.417692 A    
C7    C8    1.399785 A    
C12   C15   1.415671 A    
C67   C68   1.531472 S    
C61   C62   1.527615 S    
C7    C61   1.522705 S    
C37   C40   1.393674 A    
C30   Cl2   1.766921 S    
C63   C64   1.529155 S    
Zn1   O7    1.991836 S    
C45   C50   1.418981 A    
C65   H33   1.112379 S    
C23   C24   1.409269 A    
C58   Cl10  1.759552 S    
C64   H25   1.109190 S    
C28   H3    1.082956 S    
C25   C26   1.412136 A    
O7    C4    1.294439 A    
C51   C52   1.390418 A    
C29   H2    1.083908 S    
C5    C13   1.392749 A    
C52   Cl8   1.754871 S    
C5    O9    1.350352 S    
Zn1   N4    2.028079 S    
C65   C66   1.525941 S    
C5    N1    1.363281 A    
C21   C22   1.395628 A    
C28   C32   1.398238 A    
C63   H28   1.111932 S    
C43   C44   1.403391 A    
C1    C47   1.447321 S    
O5    C3    1.290206 A    
C54   C55   1.402821 A    
C40   H8    1.078171 S    
C33   C36   1.407332 A    
C2    C16   1.459987 S    
C22   C23   1.397012 A    
C42   C43   1.396400 A    
C18   C20   1.419159 A    
C36   H5    1.081830 S    
C61   H22   1.110113 S    
C6    O11   1.347467 S    
C68   H36   1.110761 S    
C41   H10   1.078384 S    
C38   C39   1.391438 A    
O1    Zn1   1.978901 S    
C9    C10   1.405886 A    
C22   H4    1.083390 S    
C17   C30   1.406587 A    
C23   C27   1.394984 A    
C4    C17   1.446585 S    
O3    Zn1   1.998860 S    
C57   Cl7   1.755595 S    
C53   C54   1.391155 A    
C9    C59   1.513325 S    
C26   O12   1.347589 S    
C3    C50   1.452522 S    
C47   C48   1.400886 A    
C59   H17   1.100264 S    
C12   C13   1.410759 A    
O3    C2    1.304801 A    
C15   C37   1.415974 A    
C66   H31   1.110522 S    
C26   N2    1.366435 A    
C51   H12   1.063020 S    
C45   C46   1.398105 A    
C8    C16   1.400645 A    
C13   C14   1.398626 A    
C56   N3    1.374260 A    
C41   C46   1.413140 A    
C20   C24   1.414449 A    
O1    C1    1.294033 A    
C63   H27   1.110247 S    
C7    C11   1.406695 A    
C48   C49   1.375381 A    
C24   C25   1.417140 A    
C67   H38   1.106729 S    
C60   H15   1.107341 S    
Zn2   O8    1.998857 S    
N1    C6    1.366998 A    
C27   O10   1.350522 S    
C18   C21   1.425702 A    
N1    C11   1.430687 S    
C55   C56   1.432451 A    
C19   C35   1.419716 A    
C61   H23   1.111699 S    
C25   C39   1.415299 A    
C51   C56   1.407807 A    
Zn2   O6    1.978901 S    
N2    C27   1.361829 A    
C9    C16   1.410524 A    
O8    C4    1.298440 A    
C34   C35   1.411863 A    
C62   H20   1.110694 S    
C18   C33   1.413227 A    
C35   C40   1.410249 A    
C17   C29   1.396888 A    
C64   H26   1.110528 S    
C14   C36   1.385956 A    
C28   C29   1.387551 A    
N2    C32   1.427681 S    
C8    H6    1.081488 S    
C60   H14   1.109211 S    
C39   Cl3   1.767122 S    
C30   C31   1.400140 A    
C68   H34   1.111173 S    
C12   C34   1.414244 A    
Zn1   O5    1.977383 S    
C37   Cl1   1.767027 S    
C10   Cl5   1.771913 S    
N3    C57   1.370770 A    
C49   Cl6   1.761993 S    
O2    Zn2   1.977381 S    
C6    C15   1.412183 A    
C52   C53   1.387583 A    
O6    C3    1.309896 A    
O4    Zn2   1.991839 S    
C59   H18   1.109839 S    
C62   H21   1.110090 S    
C38   H7    1.077996 S    
H9    C48   1.081422 S    
C19   C20   1.417415 A    
C66   H30   1.102497 S    
O2    C1    1.300810 A    
C44   C45   1.431859 A    
C67   H37   1.111231 S    
C60   H16   1.110280 S    
C49   C50   1.399748 A    
C59   C60   1.523626 S    
O4    C2    1.294921 A    
C33   C34   1.414774 A    
C62   H19   1.109922 S    
C44   C65   1.527440 S    
Zn2   N3    2.028868 S    
C43   H11   1.079930 S    
C31   C32   1.405496 A    
C58   N4    1.369735 A    
C14   H1    1.083434 S    
C21   C67   1.525067 S    
C54   H13   1.058174 S    
C55   N4    1.376120 A    
C64   H24   1.110711 S    
C10   C11   1.407462 A    
C65   H32   1.099955 S    
C42   C63   1.517643 S    
C19   C38   1.408780 A    
C66   H29   1.104546 S    
C31   Cl4   1.765153 S    
C68   H35   1.109525 S    
