data_mof_unit_23861.cif
_audit_creation_date              2013-03-05T16:13:26-0500
_audit_creation_method            fapswitch 2.2
_symmetry_space_group_name_H-M    P1
_symmetry_Int_Tables_number       1
_space_group_crystal_system       triclinic
_cell_length_a                    22.052116
_cell_length_b                    27.008778
_cell_length_c                    8.523257
_cell_angle_alpha                 90.092771
_cell_angle_beta                  102.921917
_cell_angle_gamma                 90.34248
_cell_volume                      4947.78911818

loop_
_atom_site_label
_atom_site_type_symbol
_atom_site_description
_atom_site_fract_x
_atom_site_fract_y
_atom_site_fract_z
_atom_type_partial_charge
P1    P     P_3+3 0.869190 0.445350 0.992760 0.498848
P2    P     P_3+3 0.869190 0.554650 0.492760 0.504147
P3    P     P_3+3 0.369190 0.945350 0.992760 0.499226
P4    P     P_3+3 0.369190 0.054650 0.492760 0.505190
O1    O     O_2   0.875320 0.428620 0.822840 -0.337040
O2    O     O_2   0.875320 0.571380 0.322840 -0.307555
O3    O     O_2   0.375320 0.928620 0.822840 -0.343858
O4    O     O_2   0.375320 0.071380 0.322840 -0.309766
O5    O     O_3   0.927380 0.474960 0.096800 -0.396001
O6    O     O_3   0.927380 0.525040 0.596800 -0.388413
O7    O     O_3   0.427380 0.974960 0.096800 -0.393803
O8    O     O_3   0.427380 0.025040 0.596800 -0.386313
O9    O     O_3   0.978260 0.384470 0.628120 -0.332794
O10   O     O_3   0.978260 0.615530 0.128120 -0.399235
O11   O     O_3   0.478260 0.884470 0.628120 -0.346163
O12   O     O_3   0.478260 0.115530 0.128120 -0.426602
O13   O     O_2   0.878592 0.343746 0.697366 -0.441344
O14   O     O_2   0.865142 0.645668 0.150556 -0.391398
O15   O     O_2   0.383431 0.837735 0.703727 -0.446639
O16   O     O_2   0.366281 0.147808 0.153385 -0.401016
O17   O     O_3   0.810467 0.490771 0.937599 -0.601240
O18   O     O_3   0.810318 0.508819 0.432940 -0.600388
O19   O     O_3   0.310847 0.991107 0.937875 -0.599149
O20   O     O_3   0.310298 0.008856 0.432732 -0.599666
O21   O     O_3   0.944825 0.283999 0.573057 -0.601955
O22   O     O_3   0.947808 0.714851 0.156968 -0.480274
O23   O     O_3   0.449090 0.784048 0.550734 -0.572455
O24   O     O_3   0.449510 0.216322 0.148883 -0.513197
H1    H     H_    0.033755 0.309165 0.568856 0.104649
H2    H     H_    0.033084 0.702846 0.097157 -0.013132
H3    H     H_    0.517885 0.795532 0.756756 0.090830
H4    H     H_    0.540104 0.194039 0.239687 0.094649
C1    C     C_3   0.024297 0.231590 0.517819 0.134182
C2    C     C_3   0.023202 0.779251 0.156785 0.239959
C3    C     C_3   0.541943 0.735067 0.618108 0.087045
C4    C     C_3   0.537335 0.271269 0.178129 0.170614
H5    H     H_    0.044258 0.224031 0.647577 0.078630
H6    H     H_    0.060870 0.790316 0.095563 0.027054
H7    H     H_    0.588856 0.735793 0.701160 0.062923
H8    H     H_    0.588485 0.270815 0.185926 0.021046
H9    H     H_    0.986346 0.204452 0.471662 0.092986
H10   H     H_    0.043727 0.773059 0.286792 0.095676
H11   H     H_    0.512761 0.706068 0.658523 0.088998
H12   H     H_    0.528487 0.283787 0.295487 0.089623
P5    P     P_3+3 0.130420 0.444720 0.696970 0.504863
P6    P     P_3+3 0.130420 0.555280 0.196970 0.507847
P7    P     P_3+3 0.630420 0.944720 0.696970 0.503421
P8    P     P_3+3 0.630420 0.055280 0.196970 0.505136
P9    P     P_3+3 0.076985 0.337072 0.111920 0.463796
P10   P     P_3+3 0.080902 0.660147 0.610822 0.484202
P11   P     P_3+3 0.574596 0.835809 0.113538 0.451262
P12   P     P_3+3 0.580474 0.160284 0.610199 0.452395
O25   O     O_2   0.124210 0.428020 0.866900 -0.383168
O26   O     O_2   0.124210 0.571980 0.366900 -0.333876
O27   O     O_2   0.624210 0.928020 0.866900 -0.387314
O28   O     O_2   0.624210 0.071980 0.366900 -0.336528
O29   O     O_3   0.021040 0.384370 0.061630 -0.420633
O30   O     O_3   0.021040 0.615630 0.561630 -0.358011
O31   O     O_3   0.521040 0.884370 0.061630 -0.408786
O32   O     O_3   0.521040 0.115630 0.561630 -0.367693
O33   O     O_2   0.122988 0.343105 0.000032 -0.390025
O34   O     O_2   0.126050 0.652094 0.498597 -0.368417
O35   O     O_2   0.621210 0.840670 0.002660 -0.401260
O36   O     O_2   0.624243 0.154217 0.493098 -0.387383
O37   O     O_3   0.198280 0.481761 0.734894 -0.613057
O38   O     O_3   0.191990 0.513831 0.265786 -0.521796
O39   O     O_3   0.698412 0.981596 0.734107 -0.609429
O40   O     O_3   0.691973 0.013814 0.265877 -0.518592
O41   O     O_3   0.042562 0.278951 0.059684 -0.505743
O42   O     O_3   0.049162 0.717880 0.547859 -0.538204
O43   O     O_3   0.536422 0.779262 0.057972 -0.535083
O44   O     O_3   0.546139 0.217816 0.557005 -0.580756
C5    C     C_3   0.978652 0.285441 0.997508 0.354220
C6    C     C_3   0.019188 0.736812 0.663716 0.200376
C7    C     C_3   0.473739 0.784261 0.065913 0.292927
C8    C     C_3   0.506903 0.228445 0.661394 0.228743
H13   H     H_    0.971322 0.310584 0.892605 0.125548
H14   H     H_    0.976765 0.714516 0.665418 0.063028
H15   H     H_    0.451142 0.813495 0.981916 0.087646
H16   H     H_    0.473292 0.197675 0.662835 0.076733
H17   H     H_    0.956054 0.301127 0.090427 0.016672
H18   H     H_    0.050784 0.737129 0.785194 0.037605
H19   H     H_    0.469842 0.793752 0.190398 0.085121
H20   H     H_    0.535282 0.235393 0.784544 0.077686
C9    C     C_3   0.948236 0.235779 0.939755 0.186321
C10   C     C_3   0.000776 0.790292 0.619982 0.131259
C11   C     C_3   0.438632 0.736009 0.012180 0.167096
C12   C     C_3   0.470000 0.274979 0.603987 0.164415
H21   H     H_    0.898153 0.241449 0.881682 0.035034
H22   H     H_    0.967895 0.791430 0.499483 0.117762
H23   H     H_    0.387523 0.742946 0.982082 0.027622
H24   H     H_    0.441158 0.267855 0.480846 0.108093
H25   H     H_    0.970220 0.221315 0.843958 0.104454
H26   H     H_    0.043096 0.811033 0.607435 0.103218
H27   H     H_    0.450196 0.723586 0.898076 0.100942
H28   H     H_    0.503496 0.305731 0.599483 0.073513
C13   C     C_3   0.209485 0.488018 0.140701 0.281378
C14   C     C_3   0.184462 0.532486 0.726068 0.345308
C15   C     C_3   0.709380 0.987890 0.140881 0.282828
C16   C     C_3   0.684610 0.032332 0.726296 0.346424
H29   H     H_    0.207745 0.447815 0.166246 -0.019490
H30   H     H_    0.173815 0.544176 0.839227 0.005722
H31   H     H_    0.707685 0.947704 0.166667 -0.016461
H32   H     H_    0.673812 0.043792 0.839483 0.005228
H33   H     H_    0.177927 0.493929 0.024150 0.111797
H34   H     H_    0.144670 0.541857 0.628001 0.156032
H35   H     H_    0.677762 0.993740 0.024425 0.110806
H36   H     H_    0.644899 0.041840 0.628143 0.156572
C17   C     C_3   0.276475 0.500845 0.136184 0.158444
C18   C     C_3   0.241476 0.562493 0.709240 0.170161
C19   C     C_3   0.776314 0.000736 0.136050 0.158007
C20   C     C_3   0.741619 0.062484 0.710411 0.170167
H37   H     H_    0.306891 0.491078 0.254946 0.090306
H38   H     H_    0.282900 0.547870 0.794951 0.110890
H39   H     H_    0.806830 0.990281 0.253983 0.092721
H40   H     H_    0.783022 0.047832 0.796175 0.110737
H41   H     H_    0.289670 0.477966 0.040337 0.048754
H42   H     H_    0.233866 0.601688 0.741070 0.043311
H43   H     H_    0.789267 0.978446 0.038601 0.051860
H44   H     H_    0.733866 0.101598 0.742858 0.040486
Ba1   Ba    Ba6+2 0.999850 0.464270 0.844920 1.573532
Ba2   Ba    Ba6+2 0.999850 0.535730 0.344920 1.604923
Ba3   Ba    Ba6+2 0.499850 0.964270 0.844920 1.569424
Ba4   Ba    Ba6+2 0.499850 0.035730 0.344920 1.593089
C21   C     C_3   0.753222 0.487633 0.991065 1.613332
C22   C     C_3   0.753312 0.509334 0.488744 1.608191
C23   C     C_3   0.253487 0.988279 0.990874 1.607032
C24   C     C_3   0.253235 0.009533 0.488171 1.611292
C25   C     C_3   0.743732 0.439605 0.080457 -1.068669
C26   C     C_3   0.738781 0.558020 0.566642 -1.076871
C27   C     C_3   0.243090 0.939965 0.077671 -1.057472
C28   C     C_3   0.238432 0.058586 0.563675 -1.079098
H45   H     H_    0.780409 0.435790 0.191774 0.219193
H46   H     H_    0.772060 0.564121 0.682419 0.219821
H47   H     H_    0.279107 0.935785 0.190104 0.218917
H48   H     H_    0.271176 0.064929 0.680222 0.222041
H49   H     H_    0.740178 0.407590 0.997812 0.211086
H50   H     H_    0.736086 0.589047 0.480781 0.208380
H51   H     H_    0.240029 0.908195 0.994148 0.211956
H52   H     H_    0.236499 0.089362 0.477134 0.207567
H53   H     H_    0.699574 0.440108 0.121679 0.249798
H54   H     H_    0.693203 0.556185 0.600797 0.242777
H55   H     H_    0.198531 0.940394 0.116971 0.249588
H56   H     H_    0.192496 0.057144 0.595966 0.241573
O45   O     O_3   0.072510 0.524860 0.092920 -0.463736
O46   O     O_3   0.072510 0.475140 0.592920 -0.366821
O47   O     O_3   0.572510 0.024860 0.092920 -0.462032
O48   O     O_3   0.572510 0.975140 0.592920 -0.364278
P13   P     P_3+3 0.918749 0.658596 0.068222 0.462957
P14   P     P_3+3 0.915425 0.344253 0.563136 0.420818
P15   P     P_3+3 0.419569 0.159238 0.068100 0.450424
P16   P     P_3+3 0.417010 0.842897 0.563424 0.433038
C29   C     C_3   0.996978 0.283517 0.503917 0.239427
C30   C     C_3   0.995168 0.730697 0.081999 0.332605
C31   C     C_3   0.512477 0.785493 0.628128 0.349164
C32   C     C_3   0.513001 0.218511 0.145248 0.398458
H57   H     H_    0.983371 0.293987 0.374860 0.076935
H58   H     H_    0.975755 0.737175 0.952025 0.036586
H59   H     H_    0.537985 0.812671 0.569309 0.080045
H60   H     H_    0.521029 0.206937 0.026485 -0.029498
C33   C     C_2   0.893644 0.381699 0.254748 -0.360659
C34   C     C_2   0.876946 0.614321 0.765676 -0.455977
C35   C     C_2   0.392607 0.882946 0.258919 -0.349798
C36   C     C_2   0.376494 0.114472 0.765903 -0.515705
C37   C     C_3   0.861974 0.359350 0.366444 0.169315
C38   C     C_3   0.891691 0.661295 0.843255 0.138225
C39   C     C_3   0.361513 0.859862 0.371126 0.174936
C40   C     C_3   0.392333 0.161343 0.843446 0.187128
C41   C     C_2   0.825292 0.317068 0.299821 -0.242352
C42   C     C_2   0.843614 0.696139 0.787353 -0.221824
C43   C     C_2   0.324470 0.817820 0.303090 -0.233047
C44   C     C_2   0.345965 0.197377 0.785817 -0.124331
C45   C     C_2   0.807469 0.309717 0.131130 0.135159
C46   C     C_2   0.813504 0.695411 0.622207 0.124026
C47   C     C_2   0.307684 0.810042 0.134413 0.133901
C48   C     C_2   0.316150 0.196690 0.620581 0.130399
C49   C     C_2   0.828363 0.344814 0.030465 -0.360488
C50   C     C_2   0.825729 0.654611 0.526918 -0.236174
C51   C     C_2   0.328700 0.845089 0.033891 -0.374390
C52   C     C_2   0.326934 0.155140 0.526315 -0.266939
C53   C     C_1   0.862798 0.386073 0.096108 0.264256
C54   C     C_1   0.856909 0.612736 0.599447 0.230082
C55   C     C_1   0.362537 0.886580 0.099209 0.250303
C56   C     C_1   0.357116 0.112912 0.599437 0.242816
C57   C     C_R   0.169583 0.695166 0.893083 -0.363353
C58   C     C_R   0.169072 0.304393 0.389738 -0.223813
C59   C     C_R   0.668297 0.195489 0.892400 -0.355347
C60   C     C_R   0.663376 0.801149 0.395191 -0.265976
C61   C     C_R   0.124932 0.656692 0.822611 0.078295
C62   C     C_R   0.119807 0.339380 0.326127 0.144423
C63   C     C_R   0.624696 0.156478 0.821385 0.098199
C64   C     C_R   0.616236 0.837548 0.328994 0.152896
C65   C     C_R   0.145177 0.611492 0.080952 0.227205
C66   C     C_R   0.142054 0.386034 0.584321 0.241475
C67   C     C_R   0.644964 0.111429 0.080208 0.218001
C68   C     C_R   0.640936 0.885658 0.584637 0.225221
C69   C     C_R   0.186942 0.646908 0.148127 -0.307759
C70   C     C_R   0.189061 0.354243 0.643703 -0.385713
C71   C     C_R   0.686433 0.147049 0.147214 -0.323060
C72   C     C_R   0.686943 0.853136 0.644886 -0.393834
C73   C     C_R   0.200917 0.691170 0.054908 0.144720
C74   C     C_R   0.203111 0.310295 0.548525 0.118418
C75   C     C_R   0.699952 0.191411 0.053825 0.137168
C76   C     C_R   0.699086 0.808099 0.551849 0.132649
C77   C     C_2   0.766782 0.267514 0.055097 -0.204209
C78   C     C_2   0.768959 0.734804 0.546801 -0.220535
C79   C     C_2   0.267395 0.767655 0.057753 -0.196054
C80   C     C_2   0.273155 0.236927 0.544202 -0.187301
C81   C     C_2   0.244512 0.730875 0.137125 -0.182794
C82   C     C_2   0.250020 0.272877 0.625950 -0.143237
C83   C     C_2   0.743564 0.231124 0.135301 -0.177616
C84   C     C_2   0.746595 0.771098 0.628773 -0.166607
C85   C     C_R   0.113990 0.615206 0.925289 0.185289
C86   C     C_R   0.106443 0.378417 0.435227 0.182140
C87   C     C_R   0.613899 0.114939 0.924268 0.180448
C88   C     C_R   0.604949 0.878008 0.435894 0.197863
H61   H     H_    0.756526 0.229614 0.265359 0.125498
H62   H     H_    0.762493 0.774184 0.757985 0.133083
H63   H     H_    0.257681 0.729121 0.267163 0.123860
H64   H     H_    0.264255 0.274960 0.755747 0.130910
H65   H     H_    0.813815 0.341224 0.900933 0.172321
H66   H     H_    0.804663 0.653537 0.399041 0.145291
H67   H     H_    0.315114 0.841101 0.904244 0.173952
H68   H     H_    0.305704 0.154015 0.398561 0.149994
H69   H     H_    0.174730 0.726712 0.819546 0.159345
H70   H     H_    0.175514 0.273666 0.314248 0.163082
H71   H     H_    0.672762 0.227334 0.819420 0.162541
H72   H     H_    0.667894 0.769239 0.322441 0.158902
H73   H     H_    0.256898 0.767252 0.927528 0.134351
H74   H     H_    0.259647 0.235598 0.414188 0.127747
H75   H     H_    0.756385 0.266808 0.924859 0.134822
H76   H     H_    0.754031 0.732830 0.417071 0.140693
H77   H     H_    0.807525 0.293321 0.381646 0.135480
H78   H     H_    0.835825 0.725148 0.868234 0.138370
H79   H     H_    0.305906 0.794307 0.384099 0.129235
H80   H     H_    0.339634 0.227297 0.865166 0.144683
H81   H     H_    0.211305 0.643145 0.272559 0.176045
H82   H     H_    0.218050 0.361022 0.762263 0.169364
H83   H     H_    0.710791 0.143435 0.271710 0.180052
H84   H     H_    0.716284 0.859937 0.762992 0.174133
H85   H     H_    0.943231 0.388800 0.287716 0.188910
H86   H     H_    0.878314 0.580637 0.835760 0.146440
H87   H     H_    0.441953 0.891033 0.292656 0.192628
H88   H     H_    0.377617 0.080802 0.835892 0.157188
O49   O     O_3   0.281512 0.551675 0.103245 -0.602471
C89   C     C_3   0.344438 0.563674 0.110314 -0.316130
H89   H     H_    0.365639 0.538738 0.033520 0.134395
H90   H     H_    0.372082 0.562738 0.236451 0.142277
H91   H     H_    0.346737 0.601736 0.063816 0.177936
O50   O     O_3   0.250071 0.558986 0.550801 -0.529070
C90   C     C_3   0.299606 0.590369 0.534552 -0.170817
H92   H     H_    0.344177 0.578419 0.614298 0.098408
H93   H     H_    0.289863 0.629714 0.558578 0.112722
H94   H     H_    0.304941 0.588250 0.408769 0.189457
O51   O     O_3   0.781449 0.051753 0.106118 -0.600339
C91   C     C_3   0.844439 0.063891 0.115098 -0.314206
H95   H     H_    0.865258 0.040354 0.033818 0.138340
H96   H     H_    0.872208 0.060943 0.240749 0.141581
H97   H     H_    0.846988 0.102728 0.075756 0.174178
O52   O     O_3   0.750363 0.059273 0.552027 -0.529065
C92   C     C_3   0.799501 0.091140 0.536209 -0.161861
H98   H     H_    0.844172 0.079575 0.616350 0.100363
H99   H     H_    0.789128 0.130367 0.560046 0.111363
H100  H     H_    0.805046 0.089169 0.410583 0.189293
O53   O     O_3   0.704137 0.491705 0.850424 -0.630984
C93   C     C_3   0.643635 0.493380 0.881387 -0.421638
H101  H     H_    0.641558 0.512846 0.995049 0.201129
H102  H     H_    0.612891 0.513603 0.781526 0.173450
H103  H     H_    0.624574 0.455260 0.882242 0.169820
O54   O     O_3   0.704441 0.499894 0.350666 -0.632127
C94   C     C_3   0.644859 0.492464 0.384057 -0.413217
H104  H     H_    0.645859 0.474917 0.502403 0.204191
H105  H     H_    0.617535 0.467642 0.290178 0.166183
H106  H     H_    0.619830 0.528239 0.375903 0.171338
O55   O     O_3   0.204591 0.993319 0.850249 -0.633379
C95   C     C_3   0.144073 0.995631 0.880879 -0.405739
H107  H     H_    0.142313 0.014501 0.995753 0.199917
H108  H     H_    0.113958 0.016777 0.782252 0.173473
H109  H     H_    0.124050 0.957760 0.878961 0.178113
O56   O     O_3   0.204500 0.999486 0.350301 -0.633356
C96   C     C_3   0.144930 0.991984 0.383725 -0.408050
H110  H     H_    0.145976 0.975150 0.503141 0.204439
H111  H     H_    0.117983 0.966507 0.291356 0.167403
H112  H     H_    0.119474 0.027598 0.373043 0.171107
O57   O     O_3   0.751740 0.527677 0.098705 -0.639020
C97   C     C_3   0.753510 0.574248 0.024354 -0.107840
H113  H     H_    0.712170 0.580257 0.924953 0.115568
H114  H     H_    0.796716 0.579121 0.980186 0.156746
H115  H     H_    0.752836 0.603451 0.115523 0.160380
O58   O     O_3   0.755756 0.471427 0.605329 -0.639024
C98   C     C_3   0.765600 0.424343 0.544033 -0.123680
H116  H     H_    0.812847 0.422613 0.521098 0.162998
H117  H     H_    0.730108 0.414412 0.433979 0.110686
H118  H     H_    0.762428 0.396186 0.636474 0.156912
O59   O     O_3   0.252567 0.027932 0.100303 -0.639769
C99   C     C_3   0.255399 0.074755 0.028295 -0.106796
H119  H     H_    0.214594 0.081437 0.927945 0.115394
H120  H     H_    0.299057 0.079448 0.986137 0.157167
H121  H     H_    0.254657 0.103641 0.120426 0.160237
O60   O     O_3   0.255763 0.972083 0.606268 -0.637978
C100  C     C_3   0.266147 0.924800 0.547198 -0.132184
H122  H     H_    0.313762 0.923023 0.526777 0.161667
H123  H     H_    0.231350 0.914528 0.436180 0.112786
H124  H     H_    0.262428 0.896909 0.640016 0.153761
O61   O     O_3   0.070478 0.228877 0.427248 -0.578937
C101  C     C_3   0.098956 0.182035 0.448653 -0.101917
H125  H     H_    0.064512 0.151764 0.408262 0.119994
H126  H     H_    0.123747 0.176421 0.576126 0.109074
H127  H     H_    0.134124 0.180147 0.373926 0.153482
O62   O     O_3   0.976446 0.815674 0.136361 -0.556705
C102  C     C_3   0.003207 0.861244 0.197681 -0.198854
H128  H     H_    0.037462 0.874574 0.128970 0.138916
H129  H     H_    0.025413 0.858588 0.328124 0.103405
H130  H     H_    0.965796 0.889232 0.184146 0.154043
O63   O     O_3   0.546639 0.726208 0.457960 -0.556990
C103  C     C_3   0.581031 0.682696 0.451857 -0.096659
H131  H     H_    0.558507 0.650100 0.495496 0.094630
H132  H     H_    0.629844 0.687100 0.521647 0.112709
H133  H     H_    0.582711 0.675472 0.324749 0.182790
O64   O     O_3   0.506924 0.302342 0.052260 -0.535744
C104  C     C_3   0.532995 0.350304 0.075567 -0.181956
H134  H     H_    0.582759 0.350204 0.068282 0.121362
H135  H     H_    0.527960 0.366408 0.192233 0.105536
H136  H     H_    0.507639 0.374561 0.978075 0.153974
O65   O     O_3   0.958175 0.200824 0.066380 -0.558503
C105  C     C_3   0.907512 0.200377 0.142174 -0.192385
H137  H     H_    0.863201 0.191022 0.055634 0.129639
H138  H     H_    0.903582 0.236325 0.202265 0.142535
H139  H     H_    0.915509 0.171296 0.236063 0.139391
O66   O     O_3   0.978109 0.812907 0.745289 -0.605024
C106  C     C_3   0.912930 0.817746 0.700574 -0.167622
H140  H     H_    0.890004 0.781718 0.661324 0.130813
H141  H     H_    0.899664 0.845740 0.603540 0.132103
H142  H     H_    0.895883 0.830614 0.806569 0.188017
O67   O     O_3   0.456844 0.698533 0.128760 -0.566638
C107  C     C_3   0.414196 0.695327 0.229647 -0.107561
H143  H     H_    0.367598 0.683184 0.160768 0.101833
H144  H     H_    0.410250 0.731172 0.290386 0.174888
H145  H     H_    0.431032 0.667322 0.324154 0.147282
O68   O     O_3   0.431909 0.286368 0.711782 -0.573198
C108  C     C_3   0.398392 0.329913 0.660939 -0.138392
H146  H     H_    0.367534 0.325131 0.539239 0.118671
H147  H     H_    0.430256 0.362098 0.662526 0.105425
H148  H     H_    0.368361 0.338148 0.746073 0.161583
O69   O     O_3   0.074590 0.577820 0.853741 -0.649489
C109  C     C_3   0.013589 0.590663 0.859605 0.260469
H149  H     H_    0.006709 0.630802 0.879642 -0.068372
H150  H     H_    0.993788 0.565019 0.934582 0.153924
H151  H     H_    0.983003 0.582058 0.747524 0.135368
O70   O     O_3   0.057835 0.408884 0.377642 -0.661011
C110  C     C_3   0.079447 0.445252 0.286801 0.146425
H152  H     H_    0.109058 0.431782 0.206365 0.064892
H153  H     H_    0.106963 0.473735 0.363509 0.137694
H154  H     H_    0.037347 0.460583 0.210532 0.223877
O71   O     O_3   0.574464 0.077508 0.853036 -0.645938
C111  C     C_3   0.513473 0.090313 0.859386 0.256890
H155  H     H_    0.506703 0.130345 0.879924 -0.065500
H156  H     H_    0.493636 0.064684 0.934368 0.157292
H157  H     H_    0.482779 0.082053 0.747228 0.137708
O72   O     O_3   0.557149 0.909125 0.377563 -0.658540
C112  C     C_3   0.579786 0.944936 0.286853 0.141031
H158  H     H_    0.609471 0.930773 0.207503 0.065593
H159  H     H_    0.607462 0.973344 0.363598 0.138766
H160  H     H_    0.538045 0.960527 0.209750 0.224925

loop_
_geom_bond_atom_site_label_1
_geom_bond_atom_site_label_2
_geom_bond_distance
_ccdc_geom_bond_type
C28   H56   1.107986 S    
C15   H31   1.109803 S    
C11   H23   1.115586 S    
C98   H116  1.103461 S    
C2    H10   1.112598 S    
C47   C79   1.500904 S    
C18   H42   1.115325 S    
C37   C41   1.436070 A    
C100  H122  1.103378 S    
C96   H112  1.110176 S    
C14   C18   1.525457 S    
O38   C13   1.398673 S    
C30   H58   1.109286 S    
C77   C83   1.359467 D    
C94   H104  1.110984 S    
C91   H97   1.106676 S    
C16   H32   1.088959 S    
C58   C74   1.401436 A    
C12   O68   1.411249 S    
C9    O65   1.415655 S    
C69   H81   1.081631 S    
O55   C95   1.417696 S    
O42   C6    1.402789 S    
C105  H137  1.112118 S    
P4    O8    1.605672 S    
C33   H85   1.082296 S    
C13   H33   1.090528 S    
P9    O41   1.752418 S    
O49   C89   1.411175 S    
C26   H46   1.101649 S    
P11   O43   1.751973 S    
C5    H17   1.110410 S    
O31   Ba3   2.815305 S    
P3    Ba3   3.429179 S    
C24   O60   1.420660 S    
C44   H80   1.082460 S    
C19   O51   1.410224 S    
C112  H160  1.091553 S    
O27   Ba3   2.883983 S    
O30   Ba2   2.806424 S    
O66   C106  1.409132 S    
C35   C55   1.378345 A    
C36   C40   1.431839 A    
O68   C108  1.409310 S    
C10   H22   1.117516 S    
C23   O55   1.428994 S    
C20   H44   1.115412 S    
P1    C53   1.848342 S    
C79   H73   1.081986 S    
C39   C43   1.437983 A    
P5    Ba1   3.435043 S    
C14   H30   1.089129 S    
C111  H157  1.062958 S    
C103  H131  1.112920 S    
C58   C62   1.455213 S    
P12   O44   1.748203 S    
C112  H159  1.096946 S    
P7    Ba3   3.435043 S    
O71   C111  1.403405 S    
C76   C84   1.494516 S    
C105  H139  1.108593 S    
C101  H125  1.112939 S    
C65   C85   1.355165 D    
C50   C54   1.398411 A    
O39   C16   1.403932 S    
C25   H45   1.105931 S    
C99   H119  1.109985 S    
C88   O72   1.357259 S    
C4    H12   1.113495 S    
C26   H50   1.106546 S    
P16   C39   1.872459 S    
C27   H55   1.106888 S    
O60   C100  1.410582 S    
C23   O59   1.422257 S    
C42   C46   1.415732 A    
C100  H124  1.109172 S    
P5    C66   1.900040 S    
C97   H115  1.108822 S    
C21   O53   1.429057 S    
C22   O54   1.428275 S    
O22   P13   1.749030 S    
O3    Ba3   2.870629 S    
C107  H143  1.110701 S    
O29   Ba1   2.815305 S    
O9    P14   1.744542 S    
P6    O38   1.762081 S    
C14   H34   1.099091 S    
O16   P15   1.543710 D    
C48   C80   1.497431 S    
O12   Ba4   2.813929 S    
C97   H114  1.107213 S    
C95   H107  1.111545 S    
C68   C88   1.351649 D    
O10   P13   1.748243 S    
C52   H68   1.085124 S    
O12   P15   1.747701 S    
Ba2   O46   2.870747 S    
P10   O42   1.748448 S    
O70   C110  1.397631 S    
C23   C27   1.542092 S    
P3    O7    1.596576 S    
O67   C107  1.411503 S    
C21   C25   1.542150 S    
H2    C30   1.114068 S    
C25   H49   1.105685 S    
C104  H134  1.112943 S    
C51   H67   1.083320 S    
C46   C78   1.497458 S    
C5    H13   1.106964 S    
P6    Ba2   3.430376 S    
C7    H15   1.109627 S    
C33   C37   1.432703 A    
C52   C56   1.399306 A    
O23   P16   1.756586 S    
C10   O66   1.415605 S    
C110  H152  1.109508 S    
C7    H19   1.113115 S    
C110  H154  1.091554 S    
Ba3   Ba4   4.681154 S    
C43   H79   1.082757 S    
C41   H77   1.082558 S    
C103  H133  1.109274 S    
C98   H117  1.110278 S    
C3    C31   1.522969 S    
C92   H98   1.112651 S    
C1    C29   1.524030 S    
C93   H102  1.109165 S    
C59   H71   1.079107 S    
P4    Ba4   3.433701 S    
C19   H43   1.113752 S    
P10   C61   1.851409 S    
P12   O32   1.755141 S    
H4    C32   1.110530 S    
C9    H25   1.110217 S    
C99   H121  1.108818 S    
C91   H96   1.111670 S    
C70   C74   1.508871 S    
C35   H87   1.082380 S    
C3    H11   1.113653 S    
C18   H38   1.109473 S    
C28   H48   1.102128 S    
C17   O49   1.410419 S    
C22   O58   1.420739 S    
C75   C83   1.498058 S    
C107  H145  1.109214 S    
C73   C81   1.499750 S    
O72   C112  1.397029 S    
C67   C71   1.357241 D    
C108  H147  1.112642 S    
C16   H36   1.099275 S    
C31   H59   1.108581 S    
C81   H63   1.082310 S    
C32   H60   1.110630 S    
O56   C96   1.418532 S    
C90   H94   1.105795 S    
P9    C62   1.859251 S    
C60   C76   1.401920 A    
P4    C56   1.866124 S    
P12   C63   1.848854 S    
P2    O18   1.777734 S    
C78   C84   1.360129 D    
O9    Ba1   2.804972 S    
C109  H150  1.096084 S    
C72   C76   1.508603 S    
C104  H136  1.109366 S    
C15   C19   1.523772 S    
C111  H156  1.096283 S    
C5    C9    1.526688 S    
C61   C85   1.474439 S    
C7    C11   1.528060 S    
C38   C42   1.422753 A    
C2    C30   1.523020 S    
C102  H129  1.112754 S    
P8    C67   1.880134 S    
P5    O37   1.763372 S    
C77   H75   1.082214 S    
C94   H105  1.109298 S    
C20   H40   1.109637 S    
C109  H151  1.063368 S    
C85   O69   1.377286 S    
C89   H89   1.113439 S    
C8    H16   1.112175 S    
Ba3   O47   2.855887 S    
O52   C92   1.409874 S    
C60   H72   1.078938 S    
C93   H103  1.110401 S    
C71   H83   1.081690 S    
C92   H100  1.105770 S    
C57   C61   1.459920 S    
C96   H111  1.109301 S    
C60   C64   1.455043 S    
C13   C17   1.524214 S    
C20   O52   1.408287 S    
C66   C70   1.358430 D    
O8    Ba3   2.872511 S    
C49   C53   1.388995 A    
C99   H120  1.107012 S    
C33   C53   1.376602 A    
C26   H54   1.108027 S    
C106  H142  1.109377 S    
P1    Ba1   3.429179 S    
C27   H51   1.106098 S    
C48   C52   1.430811 A    
Ba3   O48   2.966902 S    
O24   P15   1.751625 S    
C79   C81   1.359383 D    
C41   C45   1.416530 A    
Ba1   O46   2.966902 S    
C105  H138  1.109849 S    
C49   H65   1.082634 S    
P3    C55   1.850847 S    
C24   O56   1.428346 S    
C44   C48   1.414823 A    
C89   H91   1.107316 S    
C94   H106  1.110185 S    
C12   H28   1.114627 S    
O10   Ba2   2.813929 S    
O13   P14   1.544148 D    
C8    H20   1.110299 S    
C17   H41   1.113864 S    
C90   H92   1.112623 S    
C18   O50   1.408115 S    
Ba4   O48   2.870747 S    
P1    O1    1.551163 D    
O28   Ba4   2.872624 S    
P7    O27   1.552423 D    
O37   C14   1.403760 S    
C2    O62   1.411933 S    
P3    O3    1.551163 D    
P4    O20   1.777552 S    
C25   H53   1.106818 S    
C22   C26   1.539483 S    
P8    O47   1.603413 S    
C59   C75   1.401527 A    
C103  H132  1.112897 S    
O58   C98   1.410364 S    
C57   C73   1.402368 A    
C70   H82   1.082784 S    
C63   C87   1.475703 S    
C34   C38   1.431336 A    
O7    Ba4   2.857643 S    
O20   C24   1.439873 S    
C101  H126  1.112732 S    
O41   C5    1.402512 S    
C34   H86   1.086024 S    
C46   C50   1.430093 A    
C67   C87   1.356029 D    
P4    O4    1.552059 D    
C100  H123  1.110410 S    
O63   C103  1.409644 S    
C71   C75   1.504335 S    
C6    H18   1.111224 S    
O11   P16   1.742390 S    
Ba4   O47   2.968109 S    
C21   O57   1.422349 S    
P2    Ba2   3.433701 S    
O23   C31   1.406201 S    
C83   H61   1.082011 S    
C101  H127  1.109512 S    
P9    O33   1.548021 D    
O21   C29   1.404782 S    
P10   O30   1.759528 S    
P7    C68   1.901021 S    
P1    O5    1.596576 S    
C107  H144  1.110143 S    
P12   O36   1.544949 D    
O59   C99   1.413709 S    
C9    H21   1.116247 S    
O4    Ba4   2.881824 S    
C86   O70   1.357783 S    
O50   C90   1.409918 S    
C4    O64   1.411688 S    
C78   H76   1.081959 S    
C1    H5    1.114750 S    
C3    H7    1.115315 S    
C106  H140  1.109859 S    
C72   H84   1.082774 S    
O57   C97   1.413622 S    
C95   H109  1.110297 S    
P6    O26   1.551535 D    
O5    Ba2   2.857643 S    
P11   O35   1.549288 D    
P8    O40   1.762232 S    
Ba1   Ba2   4.681154 S    
C16   C20   1.525213 S    
C87   O71   1.377779 S    
O17   C21   1.436861 S    
C36   H88   1.085757 S    
C4    C32   1.522907 S    
O19   C23   1.436806 S    
O62   C102  1.409812 S    
C66   C86   1.350834 D    
H3    C31   1.108989 S    
C110  H153  1.096712 S    
C28   H52   1.106860 S    
C15   H35   1.090241 S    
C1    H9    1.112162 S    
H1    C29   1.111410 S    
O25   Ba1   2.883983 S    
C11   O67   1.415183 S    
C29   H57   1.111027 S    
O65   C105  1.410073 S    
O18   C22   1.440240 S    
C40   C44   1.422242 A    
O61   C101  1.409681 S    
C6    H14   1.112376 S    
O54   C94   1.418429 S    
C45   C77   1.499873 S    
C102  H128  1.112882 S    
P1    O17   1.775257 S    
P3    O19   1.775704 S    
C68   C72   1.357816 D    
O6    Ba1   2.872511 S    
P9    O29   1.766857 S    
C108  H146  1.112887 S    
C42   H78   1.082301 S    
O11   Ba3   2.804972 S    
C34   C54   1.387091 A    
C27   H47   1.105861 S    
C97   H113  1.109941 S    
C90   H93   1.113130 S    
P6    O45   1.603413 S    
P15   C40   1.875305 S    
O1    Ba1   2.870629 S    
C82   H64   1.081598 S    
P2    C54   1.863340 S    
Ba2   O45   2.968109 S    
O32   Ba4   2.806424 S    
C10   H26   1.111216 S    
C12   H24   1.114649 S    
C104  H135  1.113031 S    
C69   C73   1.504521 S    
O14   P13   1.542317 D    
O53   C93   1.417717 S    
C8    C12   1.522313 S    
C59   C63   1.458261 S    
C17   H37   1.115089 S    
O26   Ba2   2.872624 S    
P2    O2    1.552059 D    
C74   C82   1.495409 S    
C24   C28   1.540243 S    
P7    O39   1.763283 S    
C51   C55   1.387341 A    
C89   H90   1.111417 S    
P5    O46   1.612680 S    
C4    H8    1.115129 S    
C98   H118  1.109037 S    
C92   H99   1.113139 S    
C47   C51   1.421198 A    
C96   H110  1.110997 S    
P14   C37   1.868230 S    
C43   C47   1.417091 A    
C11   H27   1.111000 S    
O21   P14   1.750550 S    
C35   C39   1.436538 A    
C36   C56   1.387764 A    
C58   H70   1.078628 S    
C45   C49   1.421701 A    
C91   H95   1.113166 S    
O15   P16   1.546988 D    
O44   C8    1.403244 S    
C6    C10   1.526824 S    
C106  H141  1.112519 S    
C95   H108  1.109178 S    
C62   C86   1.478609 S    
C57   H69   1.078907 S    
P10   O34   1.543146 D    
Ba1   O45   2.855887 S    
O22   C30   1.405782 S    
P11   O31   1.759968 S    
O2    Ba2   2.881824 S    
C1    O61   1.410931 S    
O51   C91   1.410586 S    
P2    O6    1.605672 S    
P6    C65   1.879261 S    
C3    O63   1.411951 S    
C108  H148  1.109363 S    
P8    O28   1.551535 D    
P7    O48   1.612680 S    
C2    H6    1.114878 S    
P13   C38   1.878090 S    
P8    Ba4   3.430376 S    
C112  H158  1.110147 S    
O64   C104  1.409693 S    
O40   C15   1.398671 S    
O43   C7    1.406255 S    
C109  H149  1.113729 S    
C84   H62   1.081394 S    
C65   C69   1.357524 D    
C111  H155  1.111284 S    
C93   H101  1.111527 S    
P5    O25   1.552423 D    
C80   C82   1.360610 D    
C102  H130  1.109283 S    
O24   C32   1.408250 S    
C50   H66   1.085304 S    
C19   H39   1.115180 S    
O69   C109  1.402845 S    
C64   C88   1.479101 S    
C13   H29   1.109900 S    
P11   C64   1.860847 S    
C80   H74   1.081720 S    
