data_mof_unit_19776.cif
_audit_creation_date              2013-03-05T16:03:00-0500
_audit_creation_method            fapswitch 2.2
_symmetry_space_group_name_H-M    P1
_symmetry_Int_Tables_number       1
_space_group_crystal_system       triclinic
_cell_length_a                    14.982562
_cell_length_b                    14.2444
_cell_length_c                    10.49651
_cell_angle_alpha                 90.079922
_cell_angle_beta                  86.7719
_cell_angle_gamma                 89.942743
_cell_volume                      2236.58205407

loop_
_atom_site_label
_atom_site_type_symbol
_atom_site_description
_atom_site_fract_x
_atom_site_fract_y
_atom_site_fract_z
_atom_type_partial_charge
O1    O     O_R   0.367850 0.580280 0.500030 -0.636028
O2    O     O_R   0.632150 0.419720 0.499970 -0.636028
O3    O     O_R   0.632150 0.580280 0.499970 -0.630933
O4    O     O_R   0.367850 0.419720 0.500030 -0.630933
C1    C     C_R   0.326902 0.500057 0.500803 0.877415
C2    C     C_R   0.673098 0.499943 0.499197 0.877415
O5    O     O_R   0.499970 0.580260 0.313950 -0.624871
O6    O     O_R   0.500030 0.419740 0.686050 -0.624871
O7    O     O_R   0.500030 0.580260 0.686050 -0.627145
O8    O     O_R   0.499970 0.419740 0.313950 -0.627145
C3    C     C_R   0.499019 0.499888 0.257891 0.887046
C4    C     C_R   0.500981 0.500112 0.742108 0.887046
Zn1   Zn    Zn3+2 0.500000 0.607200 0.500000 0.930287
Zn2   Zn    Zn3+2 0.500000 0.392800 0.500000 0.930288
C5    C     C_3   0.447403 0.570828 0.045843 -0.209994
C6    C     C_3   0.552597 0.429172 0.954157 -0.209994
C7    C     C_3   0.532563 0.583204 0.956730 -0.199588
C8    C     C_3   0.467437 0.416796 0.043270 -0.199588
C9    C     C_3   0.417228 0.488283 0.964036 0.230711
C10   C     C_3   0.582772 0.511717 0.035964 0.230711
H1    H     H_    0.404066 0.627731 0.087141 0.152183
H2    H     H_    0.595934 0.372269 0.912859 0.152183
H3    H     H_    0.559771 0.650448 0.917917 0.155182
H4    H     H_    0.440229 0.349552 0.082083 0.155182
C11   C     C_3   0.501179 0.500431 0.877057 -0.020942
C12   C     C_3   0.498821 0.499569 0.122942 -0.020942
C13   C     C_R   0.816194 0.580956 0.462064 -0.259545
C14   C     C_R   0.183806 0.419044 0.537936 -0.259545
C15   C     C_R   0.769046 0.499768 0.498501 -0.067458
C16   C     C_R   0.230954 0.500232 0.501499 -0.067458
C17   C     C_R   0.813431 0.418489 0.534764 -0.262835
C18   C     C_R   0.186569 0.581511 0.465236 -0.262835
C19   C     C_R   0.905740 0.418007 0.535840 0.116852
C20   C     C_R   0.094260 0.581993 0.464160 0.116852
C21   C     C_R   0.953572 0.499906 0.499500 0.060290
C22   C     C_R   0.046428 0.500094 0.500500 0.060290
C23   C     C_R   0.908548 0.581632 0.462228 0.120066
C24   C     C_R   0.091452 0.418367 0.537772 0.120066
C25   C     C_R   0.950827 0.337254 0.573009 -0.219139
C26   C     C_R   0.049173 0.662745 0.426991 -0.219140
C27   C     C_R   0.043545 0.337442 0.574004 -0.217480
C28   C     C_R   0.956455 0.662558 0.425996 -0.217480
H5    H     H_    0.781158 0.643381 0.432947 0.159321
H6    H     H_    0.218842 0.356619 0.567052 0.159321
H7    H     H_    0.776184 0.356000 0.563546 0.164955
H8    H     H_    0.223816 0.644000 0.436454 0.164955
H9    H     H_    0.914428 0.274196 0.601222 0.146679
H10   H     H_    0.085572 0.725804 0.398778 0.146679
H11   H     H_    0.077752 0.274510 0.602884 0.146033
H12   H     H_    0.922248 0.725490 0.397116 0.146033
C29   C     C_R   0.548623 0.799180 0.405776 0.239586
C30   C     C_R   0.451377 0.200820 0.594224 0.239586
C31   C     C_R   0.451337 0.799404 0.594240 0.229704
C32   C     C_R   0.548663 0.200595 0.405759 0.229704
N1    N     N_R   0.500000 0.750030 0.500000 -0.108399
N2    N     N_R   0.500000 0.249970 0.500000 -0.108399
C33   C     C_R   0.454632 0.899576 0.599151 0.016571
C34   C     C_R   0.545368 0.100424 0.400849 0.016571
C35   C     C_R   0.545320 0.899320 0.400846 0.016524
C36   C     C_R   0.454680 0.100680 0.599154 0.016524
C37   C     C_R   0.499986 0.949623 0.499999 0.024723
C38   C     C_R   0.500014 0.050377 0.500001 0.024723
C39   C     C_R   0.412723 0.951348 0.700431 -0.201237
C40   C     C_R   0.587277 0.048652 0.299569 -0.201237
C41   C     C_R   0.587245 0.950802 0.299559 -0.201133
C42   C     C_R   0.412755 0.049198 0.700441 -0.201133
H13   H     H_    0.379671 0.917274 0.782047 0.153593
H14   H     H_    0.620329 0.082726 0.217953 0.153593
H15   H     H_    0.620270 0.916491 0.217920 0.154222
H16   H     H_    0.379730 0.083509 0.782080 0.154222
C43   C     C_3   0.323099 0.475865 0.919533 -0.942647
H17   H     H_    0.305644 0.536354 0.859160 0.239206
H18   H     H_    0.319253 0.410199 0.863315 0.241483
H19   H     H_    0.274941 0.471935 0.003611 0.251395
C44   C     C_3   0.676901 0.524135 0.080467 -0.942647
H20   H     H_    0.694356 0.463646 0.140840 0.239206
H21   H     H_    0.725059 0.528065 0.996389 0.251395
H22   H     H_    0.680747 0.589801 0.136685 0.241483
C45   C     C_3   0.608319 0.748932 0.307077 -0.863883
H23   H     H_    0.621328 0.676034 0.329901 0.288702
H24   H     H_    0.578662 0.752041 0.212558 0.224423
H25   H     H_    0.675634 0.781724 0.300847 0.198575
C46   C     C_3   0.391681 0.251068 0.692923 -0.863883
H26   H     H_    0.378672 0.323966 0.670099 0.288702
H27   H     H_    0.324366 0.218276 0.699153 0.198575
H28   H     H_    0.421338 0.247959 0.787442 0.224423
C47   C     C_3   0.391663 0.749394 0.693037 -0.844203
H29   H     H_    0.378635 0.676324 0.670690 0.290851
H30   H     H_    0.421271 0.752898 0.787570 0.218213
H31   H     H_    0.324343 0.782324 0.699146 0.202670
C48   C     C_3   0.608337 0.250606 0.306963 -0.844203
H32   H     H_    0.621365 0.323676 0.329310 0.290851
H33   H     H_    0.675657 0.217676 0.300853 0.202670
H34   H     H_    0.578729 0.247102 0.212430 0.218213

loop_
_geom_bond_atom_site_label_1
_geom_bond_atom_site_label_2
_geom_bond_distance
_ccdc_geom_bond_type
C34   C38   1.405888 A    
O5    Zn1   1.989723 S    
Zn2   N2    2.034529 S    
C47   H29   1.086889 S    
C13   C15   1.398267 A    
C9    C43   1.520821 S    
C21   C22   1.391861 A    
C8    C12   1.534034 S    
O3    C2    1.297694 A    
C25   C27   1.389783 A    
O5    C3    1.286937 A    
C19   C25   1.400375 A    
C8    H4    1.110310 S    
C40   H14   1.081007 S    
C21   C23   1.411648 A    
C48   H33   1.110480 S    
C7    C10   1.538116 S    
C36   C38   1.405441 A    
C8    C9    1.538116 S    
C23   C28   1.400269 A    
O7    Zn1   1.990772 S    
C30   C36   1.428357 A    
C6    H2    1.110312 S    
C17   C19   1.383717 A    
C20   C22   1.411442 A    
O3    Zn1   2.016343 S    
C6    C10   1.538245 S    
C26   C28   1.389783 A    
C39   C42   1.393816 A    
C36   C42   1.410862 A    
O2    C2    1.297360 A    
C9    C11   1.522190 S    
C27   H11   1.084198 S    
O7    C4    1.285544 A    
C33   C39   1.410667 A    
C39   H13   1.081007 S    
C31   N1    1.385838 A    
C34   C40   1.410667 A    
C32   N2    1.385838 A    
C35   C37   1.405441 A    
C24   C27   1.400269 A    
O8    Zn2   1.990773 S    
C48   H32   1.086889 S    
C45   H24   1.110604 S    
C31   C33   1.428743 A    
C5    C12   1.532852 S    
C3    C12   1.416664 S    
C14   H6    1.085151 S    
C10   C44   1.520821 S    
C18   C20   1.383717 A    
C30   C46   1.509247 S    
C5    C9    1.538245 S    
C44   H20   1.110010 S    
C45   H25   1.110510 S    
C46   H26   1.085891 S    
C14   C24   1.383841 A    
O6    C4    1.286937 A    
C46   H28   1.110604 S    
C31   C47   1.510348 S    
C7    H3    1.110310 S    
C44   H21   1.109542 S    
C28   H12   1.084198 S    
C46   H27   1.110510 S    
C47   H30   1.110551 S    
O1    C1    1.297360 A    
O1    Zn1   2.017097 S    
C25   H9    1.084185 S    
C1    C16   1.437161 S    
C32   C34   1.428743 A    
C6    C11   1.532852 S    
C26   H10   1.084184 S    
O6    Zn2   1.989721 S    
C18   H8    1.085239 S    
O4    C1    1.297694 A    
C43   H19   1.109542 S    
C33   C37   1.405888 A    
C4    C11   1.416664 S    
C7    C11   1.534034 S    
C40   C41   1.393816 A    
C22   C24   1.411648 A    
C32   C48   1.510348 S    
C15   C17   1.398476 A    
C35   C41   1.410862 A    
C48   H34   1.110551 S    
C16   C18   1.398476 A    
C42   H16   1.081018 S    
C5    H1    1.110312 S    
C10   C12   1.522190 S    
C13   C23   1.383841 A    
C41   H15   1.081018 S    
C14   C16   1.398267 A    
C19   C21   1.411442 A    
C29   N1    1.385946 A    
O4    Zn2   2.016344 S    
C37   C38   1.435176 A    
O2    Zn2   2.017095 S    
C44   H22   1.108535 S    
C29   C45   1.509248 S    
O8    C3    1.285544 A    
C45   H23   1.085891 S    
C13   H5    1.085151 S    
C43   H17   1.110010 S    
C2    C15   1.437161 S    
C29   C35   1.428357 A    
C6    C8    1.549338 S    
C17   H7    1.085239 S    
C47   H31   1.110480 S    
C43   H18   1.108535 S    
C20   C26   1.400376 A    
C5    C7    1.549338 S    
C30   N2    1.385947 A    
Zn1   N1    2.034528 S    
