data_mof_unit_27408.cif
_audit_creation_date              2012-12-10T20:43:33-0500
_audit_creation_method            fapswitch 2.2
_symmetry_space_group_name_H-M    P1
_symmetry_Int_Tables_number       1
_space_group_crystal_system       triclinic
_cell_length_a                    18.577182
_cell_length_b                    18.72859
_cell_length_c                    18.89074
_cell_angle_alpha                 109.689272
_cell_angle_beta                  109.372587
_cell_angle_gamma                 109.054441
_cell_volume                      5077.91710116

loop_
_atom_site_label
_atom_site_type_symbol
_atom_type_description
_atom_site_fract_x
_atom_site_fract_y
_atom_site_fract_z
_atom_type_partial_charge
C1    C     C_R   0.380309 0.501313 0.380434 0.892126
C2    C     C_R   0.300665 0.449377 0.031731 -0.127962
C3    C     C_R   0.120670 0.118388 0.498687 0.902795
C4    C     C_R   0.002772 0.380150 0.882003 0.895547
C5    C     C_R   0.120012 0.497285 0.117357 0.868762
C6    C     C_R   0.999671 0.620131 0.119710 0.958682
C7    C     C_R   0.879665 0.499476 0.879483 0.869066
C8    C     C_R   0.121518 0.782434 0.557020 -0.099868
C9    C     C_R   0.111066 0.792420 0.484611 0.566013
C10   C     C_R   0.028160 0.738826 0.407130 0.091427
C11   C     C_R   0.961503 0.671394 0.402821 -0.144652
C12   C     C_R   0.973236 0.662113 0.475478 -0.148677
C13   C     C_R   0.333333 0.533755 0.044916 -0.306080
C14   C     C_R   0.874708 0.836689 0.821944 0.451496
C15   C     C_R   0.052814 0.718208 0.552788 -0.211100
C16   C     C_R   0.006906 0.679607 0.259526 0.388528
C17   C     C_R   0.000660 0.686794 0.186507 -0.216724
C18   C     C_R   0.002512 0.760567 0.180901 -0.156809
C19   C     C_R   0.001450 0.823637 0.245604 0.409467
C20   C     C_R   0.004287 0.814293 0.317017 -0.202665
C21   C     C_R   0.012804 0.745246 0.327217 -0.125569
C22   C     C_R   0.099205 0.822269 0.128990 -0.253832
C23   C     C_R   0.115001 0.828008 0.062881 0.458274
C24   C     C_R   0.082167 0.263260 0.749041 0.423341
C25   C     C_R   0.044154 0.786391 0.979633 -0.114366
C26   C     C_R   0.826660 0.817354 0.575375 -0.190061
C27   C     C_R   0.001104 0.188276 0.684936 -0.133696
C28   C     C_R   0.922744 0.176898 0.685265 -0.050507
C29   C     C_R   0.925707 0.241165 0.751059 -0.169434
C30   C     C_R   0.005683 0.315277 0.816873 -0.146138
C31   C     C_R   0.085678 0.326645 0.818381 -0.138805
C32   C     C_R   0.778895 0.093076 0.548148 0.504534
C33   C     C_R   0.813390 0.852519 0.843497 0.190669
C34   C     C_R   0.698434 0.016027 0.486144 -0.251885
C35   C     C_R   0.676648 0.942900 0.496032 -0.250028
C36   C     C_R   0.734507 0.945488 0.567484 -0.125757
C37   C     C_R   0.814820 0.020861 0.630371 0.381934
C38   C     C_R   0.812097 0.810884 0.495748 -0.113982
C39   C     C_R   0.837698 0.095756 0.620599 -0.047165
C40   C     C_R   0.732609 0.744742 0.418801 0.032859
C41   C     C_R   0.673339 0.680880 0.423237 -0.177890
C42   C     C_R   0.688084 0.687655 0.503218 -0.074180
C43   C     C_R   0.763096 0.759356 0.581092 0.010603
C44   C     C_R   0.958193 0.741977 0.962535 -0.137605
C45   C     C_R   0.636016 0.754595 0.299746 -0.327939
C46   C     C_R   0.609579 0.754759 0.221062 0.399595
C47   C     C_R   0.654778 0.741728 0.176308 -0.186736
C48   C     C_R   0.622506 0.620388 0.502650 0.917554
C49   C     C_R   0.725031 0.727290 0.207855 0.428448
C50   C     C_R   0.751489 0.726268 0.286871 0.351429
C51   C     C_R   0.707252 0.741822 0.333971 -0.049219
C52   C     C_R   0.378408 0.776537 0.531271 0.506761
C53   C     C_R   0.326973 0.696579 0.453505 0.425139
C54   C     C_R   0.366803 0.663712 0.407507 -0.192768
C55   C     C_R   0.941586 0.737125 0.028196 0.405776
C56   C     C_R   0.458253 0.713903 0.440689 0.464959
C57   C     C_R   0.507829 0.792121 0.519370 -0.173414
C58   C     C_R   0.469025 0.823492 0.564274 -0.415238
C59   C     C_R   0.251679 0.575554 0.254503 -0.202675
C60   C     C_R   0.617969 0.497722 0.619738 0.902757
C61   C     C_R   0.185661 0.495221 0.181744 -0.070581
C62   C     C_R   0.179287 0.416113 0.177023 0.033167
C63   C     C_R   0.247006 0.421378 0.242432 -0.238737
C64   C     C_R   0.313030 0.501808 0.315354 -0.083002
C65   C     C_R   0.311914 0.579349 0.324571 -0.011822
C66   C     C_R   0.013409 0.775148 0.111810 -0.030517
C67   C     C_R   0.065654 0.266420 0.129921 -0.203441
C68   C     C_R   0.996000 0.182779 0.065714 -0.246278
C69   C     C_R   0.963248 0.158549 0.977723 0.530685
C70   C     C_R   0.001267 0.219081 0.955605 -0.108034
C71   C     C_R   0.070537 0.302858 0.019936 -0.153775
C72   C     C_R   0.377992 0.380178 0.498320 0.873743
C73   C     C_R   0.103590 0.327741 0.107742 0.131513
C74   C     C_R   0.243001 0.536634 0.578568 0.424613
C75   C     C_R   0.260536 0.469098 0.576804 -0.061789
C76   C     C_R   0.223160 0.392896 0.498190 -0.019510
C77   C     C_R   0.289027 0.550430 0.982524 -0.100969
C78   C     C_R   0.167063 0.383894 0.420701 -0.314626
C79   C     C_R   0.147811 0.450871 0.421638 0.473344
C80   C     C_R   0.185733 0.526698 0.500603 -0.203013
C81   C     C_R   0.175223 0.253411 0.496679 -0.202401
C82   C     C_R   0.187899 0.184756 0.499776 -0.058268
C83   C     C_R   0.263800 0.181311 0.503693 0.117437
C84   C     C_R   0.737106 0.840064 0.778360 0.383696
C85   C     C_R   0.323798 0.245463 0.500318 -0.135090
C86   C     C_R   0.311616 0.314495 0.498443 -0.080925
C87   C     C_R   0.237733 0.319906 0.498018 0.038710
C88   C     C_R   0.210486 0.483510 0.906946 0.474660
C89   C     C_R   0.323251 0.120322 0.593520 0.572336
C90   C     C_R   0.353440 0.062085 0.601665 -0.348760
C91   C     C_R   0.346994 0.999532 0.530136 -0.072149
C92   C     C_R   0.308811 0.992499 0.448998 0.503519
C93   C     C_R   0.276992 0.049451 0.439962 -0.406179
C94   C     C_R   0.284239 0.113379 0.511793 0.011486
C95   C     C_R   0.542820 0.593797 0.831229 -0.154517
C96   C     C_R   0.720875 0.806294 0.693271 -0.161217
C97   C     C_R   0.612222 0.588708 0.820707 0.533655
C98   C     C_R   0.601221 0.505645 0.770554 -0.133074
C99   C     C_R   0.172960 0.398062 0.895535 -0.174357
C100  C     C_R   0.519299 0.429182 0.731578 0.425669
C101  C     C_R   0.450381 0.436647 0.742473 0.500830
C102  C     C_R   0.462801 0.519089 0.792571 -0.449795
C103  C     C_R   0.740302 0.501254 0.823482 0.456090
C104  C     C_R   0.812744 0.500021 0.814323 -0.235041
C105  C     C_R   0.819106 0.497236 0.741013 0.057748
C106  C     C_R   0.752148 0.493152 0.676613 -0.174215
C107  C     C_R   0.681525 0.495116 0.685578 -0.195096
C108  C     C_R   0.776381 0.781160 0.669520 -0.194935
C109  C     C_R   0.674856 0.499448 0.758800 -0.069434
C110  C     C_R   0.221961 0.380771 0.957341 0.428097
C111  C     C_R   0.954860 0.579558 0.741881 0.423401
C112  C     C_R   0.022190 0.583427 0.722429 -0.480543
C113  C     C_R   0.029799 0.509002 0.688369 0.436761
C114  C     C_R   0.970768 0.430036 0.675016 0.448616
C115  C     C_R   0.903012 0.424898 0.695622 0.202301
C116  C     C_R   0.895235 0.500661 0.729124 -0.061662
C117  C     C_R   0.999698 0.878596 0.380717 0.998114
C118  C     C_R   0.879376 0.877704 0.497340 0.888948
C119  C     C_R   0.999950 0.120388 0.619539 0.957671
C120  C     C_R   0.854389 0.796852 0.735148 0.399369
H1    H     H_    0.509753 0.884951 0.624662 0.192135
H2    H     H_    0.410253 0.525585 0.801713 0.197127
H3    H     H_    0.756704 0.491561 0.620319 0.167157
H4    H     H_    0.900443 0.625054 0.342528 0.181392
H5    H     H_    0.056112 0.790002 0.928413 0.223296
H6    H     H_    0.316570 0.615892 0.992400 0.186040
H7    H     H_    0.614425 0.884149 0.448333 0.188091
H8    H     H_    0.717021 0.888310 0.574298 0.171651
H9    H     H_    0.773129 0.859677 0.926967 0.376137
H10   H     H_    0.634564 0.742030 0.115667 0.202807
H11   H     H_    0.812351 0.702160 0.186726 0.368100
H12   H     H_    0.577295 0.829903 0.545630 0.168507
H13   H     H_    0.824096 0.701130 0.365138 0.328021
H14   H     H_    0.382736 0.863841 0.627154 0.323653
H15   H     H_    0.209833 0.593654 0.377039 0.373273
H16   H     H_    0.459563 0.639064 0.340197 0.327363
H17   H     H_    0.710448 0.910381 0.856863 0.347503
H18   H     H_    0.089823 0.283288 0.197100 0.135008
H19   H     H_    0.967898 0.137015 0.084618 0.155613
H20   H     H_    0.874523 0.042640 0.938794 0.344703
H21   H     H_    0.976969 0.201012 0.888202 0.146461
H22   H     H_    0.170023 0.577655 0.501243 0.202288
H23   H     H_    0.251897 0.635174 0.259696 0.180087
H24   H     H_    0.263186 0.652178 0.647439 0.340989
H25   H     H_    0.303048 0.475778 0.636891 0.161154
H26   H     H_    0.069861 0.386588 0.297262 0.331228
H27   H     H_    0.665759 0.802916 0.645721 0.198339
H28   H     H_    0.382030 0.243218 0.502178 0.167494
H29   H     H_    0.361823 0.181498 0.716370 0.336983
H30   H     H_    0.280497 0.936900 0.329124 0.322315
H31   H     H_    0.248796 0.045712 0.377698 0.168141
H32   H     H_    0.550821 0.656757 0.869308 0.200381
H33   H     H_    0.730595 0.656456 0.842429 0.356679
H34   H     H_    0.246568 0.361966 0.238144 0.162784
H35   H     H_    0.885737 0.734823 0.655540 0.333744
H36   H     H_    0.556393 0.348091 0.680532 0.330454
H37   H     H_    0.329379 0.377871 0.716170 0.333634
H38   H     H_    0.789407 0.531638 0.945243 0.359680
H39   H     H_    0.990869 0.701015 0.775949 0.371459
H40   H     H_    0.067840 0.644244 0.732251 0.170016
H41   H     H_    0.130496 0.571110 0.679795 0.347566
H42   H     H_    0.939794 0.308906 0.639160 0.412934
H43   H     H_    0.802863 0.350588 0.699010 0.343517
H44   H     H_    0.061895 0.710784 0.609019 0.161231
H45   H     H_    0.098533 0.348495 0.001350 0.124371
H46   H     H_    0.965810 0.895146 0.942509 0.376033
H47   H     H_    0.183933 0.823979 0.616655 0.165378
H48   H     H_    0.170269 0.849614 0.435441 0.346377
H49   H     H_    0.920782 0.610781 0.471551 0.157646
H50   H     H_    0.958146 0.559823 0.228697 0.349371
H51   H     H_    0.986093 0.889636 0.185312 0.355910
H52   H     H_    0.153707 0.851480 0.193089 0.150275
H53   H     H_    0.241145 0.897770 0.139106 0.332770
H54   H     H_    0.903899 0.711511 0.897876 0.218469
H55   H     H_    0.885580 0.871939 0.634397 0.222487
H56   H     H_    0.137507 0.324449 0.360224 0.142742
H57   H     H_    0.852480 0.700735 0.060741 0.368311
H58   H     H_    0.394215 0.586132 0.102966 0.201259
H59   H     H_    0.126601 0.450695 0.791646 0.374968
H60   H     H_    0.139281 0.255419 0.895278 0.344419
H61   H     H_    0.336997 0.436972 0.079830 0.179938
H62   H     H_    0.205160 0.331457 0.782153 0.345056
H63   H     H_    0.865193 0.232944 0.751252 0.196701
H64   H     H_    0.753541 0.153271 0.485201 0.339398
H65   H     H_    0.652520 0.012591 0.430078 0.156573
H66   H     H_    0.613419 0.627532 0.364347 0.170640
H67   H     H_    0.117368 0.256244 0.495303 0.182166
H68   H     H_    0.922349 0.074639 0.740118 0.339961
H69   H     H_    0.601270 0.764858 0.334791 0.194067
H70   H     H_    0.514846 0.775392 0.225345 0.335402
H71   H     H_    0.383470 0.066115 0.663778 0.158422
H72   H     H_    0.371719 0.956092 0.537759 0.188528
O1    O     O_R   0.408360 0.551710 0.460090 -0.613992
O2    O     O_R   0.948290 0.356630 0.908390 -0.634676
O3    O     O_R   0.143340 0.551690 0.091580 -0.625651
O4    O     O_R   0.408400 0.448280 0.356670 -0.622546
O5    O     O_R   0.039900 0.448270 0.091610 -0.601949
O6    O     O_R   0.051710 0.643320 0.091560 -0.615951
O7    O     O_R   0.948270 0.539900 0.091590 -0.628958
O8    O     O_R   0.960100 0.551680 0.908340 -0.605612
O9    O     O_R   0.856660 0.448270 0.908370 -0.614383
O10   O     O_R   0.591600 0.643340 0.551710 -0.612233
O11   O     O_R   0.591630 0.539900 0.448290 -0.630453
O12   O     O_R   0.948280 0.908380 0.356650 -0.557828
O13   O     O_R   0.591600 0.551720 0.643330 -0.626059
O14   O     O_R   0.591640 0.448290 0.539910 -0.621708
O15   O     O_R   0.408370 0.460100 0.551710 -0.626853
O16   O     O_R   0.408400 0.356660 0.448290 -0.627846
O17   O     O_R   0.051730 0.908360 0.460060 -0.654739
O18   O     O_3   0.829786 0.879443 0.927540 -0.772920
O19   O     O_3   0.765239 0.713452 0.158791 -0.737699
O20   O     O_3   0.819183 0.709223 0.315053 -0.836027
O21   O     O_3   0.338043 0.806798 0.574013 -0.708302
O22   O     O_3   0.238128 0.653727 0.424965 -0.697793
O23   O     O_R   0.960110 0.908350 0.551690 -0.629407
O24   O     O_3   0.501917 0.690192 0.398762 -0.817185
O25   O     O_3   0.679474 0.864255 0.795497 -0.744848
O26   O     O_3   0.894687 0.076809 0.912349 -0.745063
O27   O     O_3   0.281882 0.610828 0.657213 -0.745958
O28   O     O_3   0.091509 0.443746 0.347052 -0.739727
O29   O     O_3   0.332936 0.185393 0.664342 -0.664269
O30   O     O_3   0.304737 0.930408 0.380389 -0.765057
O31   O     O_3   0.688502 0.666567 0.859588 -0.713910
O32   O     O_3   0.914601 0.778030 0.717711 -0.718310
O33   O     O_3   0.503404 0.346036 0.682749 -0.726583
O34   O     O_R   0.856660 0.908370 0.448270 -0.624122
O35   O     O_3   0.371365 0.361855 0.703508 -0.668161
O36   O     O_3   0.731346 0.505469 0.894490 -0.712738
O37   O     O_3   0.944362 0.651567 0.771193 -0.748425
O38   O     O_3   0.094444 0.511249 0.666979 -0.680689
O39   O     O_3   0.981152 0.358852 0.640351 -0.710729
O40   O     O_3   0.844642 0.344960 0.679074 -0.750329
O41   O     O_3   0.955944 0.859767 0.884217 -0.723832
O42   O     O_3   0.183390 0.854100 0.492424 -0.747264
O43   O     O_3   0.016415 0.612976 0.269251 -0.713224
O44   O     O_3   0.002105 0.897296 0.243811 -0.745484
O45   O     O_R   0.051720 0.091580 0.643310 -0.577330
O46   O     O_3   0.198605 0.872236 0.077209 -0.746472
O47   O     O_3   0.855242 0.695464 0.007955 -0.738005
O48   O     O_3   0.173093 0.504746 0.846552 -0.734856
O49   O     O_3   0.196306 0.298753 0.948555 -0.748204
O50   O     O_3   0.156102 0.270912 0.742329 -0.733674
O51   O     O_3   0.801653 0.165965 0.538971 -0.729950
O52   O     O_3   0.867757 0.017957 0.699628 -0.755907
O53   O     O_3   0.540057 0.767588 0.186367 -0.755200
O54   O     O_R   0.948270 0.091600 0.539890 -0.617612
O55   O     O_R   0.143340 0.091590 0.551680 -0.579015
O56   O     O_R   0.039890 0.091610 0.448270 -0.620825
O57   O     O_R   0.051730 0.460050 0.908360 -0.597330
Zn1   Zn    Zn3+2 0.499980 0.569060 0.569060 1.014406
Zn2   Zn    Zn3+2 0.500020 0.430940 0.430940 0.980541
Zn3   Zn    Zn3+2 0.069070 0.999960 0.569030 1.041684
Zn4   Zn    Zn3+2 0.930930 0.999990 0.430930 1.038668
Zn5   Zn    Zn3+2 0.069070 0.569030 0.999960 1.021693
Zn6   Zn    Zn3+2 0.930930 0.430930 0.000000 1.004565

loop_
_geom_bond_atom_site_label_1
_geom_bond_atom_site_label_2
_ccdc_geom_bond_type
H36   O33   S    
C8    C9    A    
C40   C41   A    
C16   C21   A    
C70   H21   S    
C107  C109  A    
C41   C42   A    
C108  C120  A    
C57   H12   S    
C35   C36   A    
C44   C55   A    
C24   C27   A    
O7    Zn6   S    
C19   O44   S    
C55   C66   A    
C14   C33   A    
C97   C98   A    
C90   C91   A    
C113  O38   S    
C72   O16   A    
C54   C65   S    
C85   C86   A    
C118  O34   A    
C4    O2    A    
C48   O11   A    
C101  C102  A    
H14   O21   S    
H29   O29   S    
H39   O37   S    
C92   C93   A    
C36   C37   A    
C81   C82   A    
C119  O54   A    
C44   H54   S    
C4    O57   A    
H33   O31   S    
C89   O29   S    
C6    O7    A    
C34   C35   A    
C60   O13   A    
H15   O22   S    
C106  C107  A    
C45   C51   A    
C13   H58   S    
C88   O48   S    
C48   O10   A    
C7    O8    A    
C56   C57   A    
C18   C19   A    
C84   C96   A    
C32   C39   A    
C89   C94   A    
C67   H18   S    
C2    C13   A    
C25   H5    S    
C22   C66   A    
O13   Zn1   S    
C105  C116  S    
O34   Zn4   S    
C2    C110  A    
C11   H4    S    
C77   C88   A    
C16   C17   A    
H70   O53   S    
C74   O27   S    
C85   H28   S    
O45   Zn3   S    
C24   O50   S    
C118  O23   A    
C67   C73   A    
C80   H22   S    
C31   C99   S    
C117  O12   A    
C112  H40   S    
C9    C10   A    
H42   O39   S    
C95   C102  A    
C5    O3    A    
H26   O28   S    
O6    Zn5   S    
H46   O41   S    
H16   O24   S    
C96   C108  A    
C59   H23   S    
O57   Zn5   S    
C120  O32   S    
C37   O52   S    
C74   C80   A    
C78   H56   S    
H30   O30   S    
H35   O32   S    
C36   H8    S    
C3    O55   A    
C3    C82   S    
C53   O22   S    
H62   O50   S    
C25   C44   A    
C104  C105  A    
O15   Zn1   S    
C26   C43   A    
C114  C115  A    
C72   O15   A    
C13   C77   A    
H51   O44   S    
C10   C21   S    
C54   C56   A    
C59   C61   A    
C74   C75   A    
C47   H10   S    
C79   O28   S    
C69   O26   S    
C15   H44   S    
C1    O4    A    
C79   C80   A    
C46   O53   S    
H24   O27   S    
C47   C49   A    
H43   O40   S    
C10   C11   A    
C91   C92   A    
C6    O6    A    
C23   O46   S    
C78   C79   A    
C68   C69   A    
C5    O5    A    
C16   O43   S    
C50   C51   A    
C103  O36   S    
O55   Zn3   S    
C83   C94   S    
C75   H25   S    
C97   O31   S    
O16   Zn2   S    
C32   C34   A    
C101  O35   S    
C106  H3    S    
C34   H65   S    
C1    O1    A    
C75   C76   A    
H59   O48   S    
C8    H47   S    
H50   O43   S    
C33   O18   S    
H60   O49   S    
C12   C15   A    
C29   C30   A    
C49   O19   S    
C62   C63   A    
C95   C97   A    
C17   C18   A    
C5    C61   S    
C62   C73   S    
C93   C94   A    
C42   C48   S    
O1    Zn1   S    
C35   H7    S    
O14   Zn2   S    
C76   C87   S    
C42   C43   A    
C115  O40   S    
C81   C87   A    
C60   C107  S    
C52   C58   A    
C100  O33   S    
O11   Zn2   S    
C45   H69   S    
C67   C68   A    
O10   Zn1   S    
C82   C83   A    
C8    C15   A    
C14   C120  A    
C7    C104  S    
C32   O51   S    
H11   O19   S    
O23   Zn3   S    
C111  O37   S    
C93   H31   S    
C3    O56   A    
O2    Zn6   S    
H17   O25   S    
C1    C64   S    
H38   O36   S    
C114  O39   S    
C70   C71   A    
C52   C53   A    
C86   C87   A    
H48   O42   S    
C113  C114  A    
C91   H72   S    
H20   O26   S    
C2    H61   S    
C6    C17   S    
C46   C47   A    
C28   C29   A    
C58   H1    S    
C29   H63   S    
C111  C112  A    
C83   C85   A    
C9    O42   S    
O56   Zn4   S    
C119  O45   A    
C63   H34   S    
C76   C78   A    
C63   C64   A    
C61   C62   A    
C72   C86   S    
C11   C12   A    
C96   H27   S    
C53   C54   A    
C12   H49   S    
O54   Zn4   S    
C27   C119  S    
C18   C66   S    
C40   C51   S    
C105  C106  A    
C98   C100  A    
C28   C39   S    
H57   O47   S    
C103  C109  A    
C111  C116  A    
C26   C38   A    
C64   C65   A    
C19   C20   A    
C92   O30   S    
H9    O18   S    
C24   C31   A    
C7    O9    A    
O9    Zn6   S    
C59   C65   A    
C38   C40   A    
O12   Zn4   S    
C99   C110  A    
C110  O49   S    
C60   O14   A    
C57   C58   A    
C30   C31   A    
C26   H55   S    
O4    Zn2   S    
C117  O17   A    
C52   O21   S    
H64   O51   S    
C41   H66   S    
C112  C113  A    
C43   C108  S    
C23   C25   A    
C69   C70   A    
C33   C84   A    
C4    C30   S    
C56   O24   S    
C88   C99   A    
H68   O52   S    
C84   O25   S    
H37   O35   S    
O17   Zn3   S    
C50   O20   S    
H41   O38   S    
C38   C118  S    
C45   C46   A    
C20   C21   A    
O5    Zn6   S    
C37   C39   A    
C49   C50   A    
C71   H45   S    
O3    Zn5   S    
C71   C73   A    
C103  C104  A    
C98   C109  S    
H13   O20   S    
C22   C23   A    
C68   H19   S    
C100  C101  A    
C95   H32   S    
H53   O46   S    
C55   O47   S    
C89   C90   A    
C102  H2    S    
C20   C117  S    
C90   H71   S    
C81   H67   S    
C14   O41   S    
C22   H52   S    
C77   H6    S    
C115  C116  A    
O8    Zn5   S    
C27   C28   A    
