data_mof_unit_49037.cif
_audit_creation_date              2012-12-10T20:28:45-0500
_audit_creation_method            fapswitch 2.2
_symmetry_space_group_name_H-M    P1
_symmetry_Int_Tables_number       1
_space_group_crystal_system       triclinic
_cell_length_a                    10.638022
_cell_length_b                    10.668689
_cell_length_c                    9.873025
_cell_angle_alpha                 90.044243
_cell_angle_beta                  89.954883
_cell_angle_gamma                 90.104067
_cell_volume                      1120.52408571

loop_
_atom_site_label
_atom_site_type_symbol
_atom_type_description
_atom_site_fract_x
_atom_site_fract_y
_atom_site_fract_z
_atom_type_partial_charge
C1    C     C_R   0.504177 0.259939 0.499977 0.853762
C2    C     C_R   0.545780 0.935249 0.377914 -0.181439
C3    C     C_R   0.526475 0.871370 0.500360 -0.125168
C4    C     C_R   0.260677 0.497110 0.500062 0.880061
C5    C     C_R   0.532670 0.936116 0.622805 0.097418
C6    C     C_3   0.449520 0.929064 0.745009 -0.202570
C7    C     C_3   0.449309 0.071501 0.744777 -0.532458
C8    C     C_R   0.389894 0.490559 0.071277 0.224927
C9    C     C_R   0.607749 0.519911 0.071784 -0.114421
C10   C     C_R   0.607784 0.519718 0.928027 -0.113770
C11   C     C_R   0.389843 0.490811 0.928831 0.224750
C12   C     C_R   0.065236 0.386856 0.555401 0.097625
C13   C     C_3   0.297992 0.385265 0.923017 -0.514091
C14   C     C_3   0.298373 0.384725 0.076880 -0.502062
C15   C     C_R   0.504549 0.740053 0.500038 0.881577
C16   C     C_R   0.739421 0.498395 0.499895 0.878162
C17   C     C_R   0.129486 0.281456 0.607707 -0.199058
C18   C     C_R   0.063046 0.179495 0.659720 -0.140220
C19   C     C_R   0.932277 0.180137 0.659142 -0.120659
C20   C     C_R   0.867616 0.282821 0.606797 -0.172441
C21   C     C_R   0.933606 0.387856 0.554928 0.077287
C22   C     C_1   0.514983 0.875245 0.862535 0.238118
C23   C     C_R   0.128660 0.490683 0.499905 -0.118010
C24   C     C_1   0.875316 0.702339 0.384706 0.162107
C25   C     C_R   0.066512 0.591575 0.441961 -0.258383
C26   C     C_R   0.937793 0.594000 0.441603 -0.016381
C27   C     C_R   0.872031 0.493199 0.499376 -0.152515
C28   C     C_R   0.532049 0.064190 0.622451 0.104799
C29   C     C_R   0.525990 0.128717 0.500126 -0.102380
C30   C     C_R   0.545742 0.064777 0.377829 -0.218142
H1    H     H_    0.119063 0.669592 0.399357 0.152461
H2    H     H_    0.230935 0.276284 0.607426 0.138718
H3    H     H_    0.113106 0.099313 0.699441 0.132657
H4    H     H_    0.880695 0.100452 0.698360 0.141770
H5    H     H_    0.766153 0.278128 0.606142 0.144603
H6    H     H_    0.551456 0.113549 0.281806 0.174876
H7    H     H_    0.551472 0.886327 0.281909 0.189721
H8    H     H_    0.356132 0.886003 0.724610 0.149324
H9    H     H_    0.355441 0.111519 0.721701 0.183330
H10   H     H_    0.498383 0.115881 0.832083 0.207196
H11   H     H_    0.695115 0.534445 0.125407 0.161528
H12   H     H_    0.695182 0.534047 0.874297 0.160154
H13   H     H_    0.206450 0.414685 0.879231 0.216825
H14   H     H_    0.338738 0.299131 0.877676 0.210548
H15   H     H_    0.206983 0.413642 0.121634 0.212708
H16   H     H_    0.339714 0.298286 0.121137 0.214120
N1    N     N_R   0.499160 0.499140 0.142800 -0.113017
N2    N     N_R   0.499160 0.499180 0.857150 -0.111870
N3    N     N_1   0.566372 0.833087 0.955128 -0.228138
N4    N     N_1   0.825502 0.788918 0.339152 -0.206561
O1    O     O_R   0.500020 0.316790 0.614690 -0.624955
O2    O     O_R   0.500000 0.316760 0.385350 -0.622076
O3    O     O_R   0.316770 0.500020 0.614690 -0.622015
O4    O     O_R   0.316760 0.499980 0.385350 -0.614571
O5    O     O_R   0.500000 0.683240 0.614650 -0.615290
O6    O     O_R   0.499980 0.683210 0.385310 -0.612963
O7    O     O_R   0.683240 0.500020 0.614650 -0.630660
O8    O     O_R   0.683230 0.499980 0.385310 -0.619586
Zn1   Zn    Zn3+2 0.500010 0.500020 0.653130 0.942439
Zn2   Zn    Zn3+2 0.499990 0.499980 0.346870 0.952300

loop_
_geom_bond_atom_site_label_1
_geom_bond_atom_site_label_2
_ccdc_geom_bond_type
C12   C17   A    
C25   H1    S    
C7    H10   S    
C6    H8    S    
C6    C7    S    
O5    Zn1   S    
C4    O3    A    
C10   H12   S    
C5    C28   A    
C11   C13   S    
C9    C10   A    
C9    H11   S    
C19   C20   A    
C2    H7    S    
C30   H6    S    
C2    C30   A    
N1    Zn2   S    
C15   O6    A    
C16   C27   S    
C1    C29   S    
C2    C3    A    
O3    Zn1   S    
C8    N1    A    
C14   H16   S    
O4    Zn2   S    
C13   C14   S    
C24   N4    T    
C1    O1    A    
C12   C23   A    
C26   C27   A    
C29   C30   A    
C8    C11   A    
C28   C29   A    
C1    O2    A    
C24   C26   S    
C9    N1    A    
C14   H15   S    
C16   O7    A    
C22   N3    T    
C10   N2    A    
C5    C6    S    
C21   C27   A    
C18   H3    S    
O7    Zn1   S    
O1    Zn1   S    
O8    Zn2   S    
C6    C22   S    
C13   H13   S    
C23   C25   A    
C3    C15   S    
C20   C21   A    
N2    Zn1   S    
C17   C18   A    
C18   C19   A    
C17   H2    S    
C4    C23   S    
C7    H9    S    
C8    C14   S    
C11   N2    A    
O2    Zn2   S    
C4    O4    A    
C25   C26   A    
C20   H5    S    
C12   C21   A    
C13   H14   S    
C7    C28   S    
O6    Zn2   S    
C15   O5    A    
C3    C5    A    
C19   H4    S    
C16   O8    A    
