data_mof_unit_66303.cif
_audit_creation_date              2012-12-10T19:07:22-0500
_audit_creation_method            fapswitch 2.2
_symmetry_space_group_name_H-M    P1
_symmetry_Int_Tables_number       1
_space_group_crystal_system       triclinic
_cell_length_a                    13.050351
_cell_length_b                    13.623016
_cell_length_c                    19.200275
_cell_angle_alpha                 90.14557
_cell_angle_beta                  93.481583
_cell_angle_gamma                 85.673203
_cell_volume                      3397.50561145

loop_
_atom_site_label
_atom_site_type_symbol
_atom_type_description
_atom_site_fract_x
_atom_site_fract_y
_atom_site_fract_z
_atom_type_partial_charge
C1    C     C_R   0.481159 0.685202 0.499173 0.933417
C2    C     C_2   0.967137 0.526770 0.519857 -0.232987
C3    C     C_1   0.854848 0.519453 0.514305 0.165021
C4    C     C_1   0.145152 0.480547 0.485695 0.165021
C5    C     C_R   0.499688 0.503280 0.634475 0.892862
C6    C     C_R   0.500312 0.496720 0.365525 0.892866
C7    C     C_R   0.441732 0.446326 0.744490 -0.185860
C8    C     C_R   0.558262 0.553677 0.255509 -0.185863
C9    C     C_R   0.446718 0.443584 0.816430 -0.137426
C10   C     C_R   0.553273 0.556420 0.183569 -0.137423
C11   C     C_R   0.508848 0.505820 0.854967 -0.000194
C12   C     C_R   0.518841 0.314798 0.500827 0.933422
C13   C     C_R   0.491146 0.494179 0.145033 -0.000196
C14   C     C_R   0.567842 0.572331 0.821294 -0.083676
C15   C     C_R   0.432159 0.427664 0.178707 -0.083676
C16   C     C_R   0.562653 0.575250 0.747684 -0.108395
C17   C     C_R   0.437351 0.424745 0.252317 -0.108395
C18   C     C_R   0.500014 0.510320 0.709924 -0.108635
C19   C     C_R   0.499986 0.489679 0.290076 -0.108630
C20   C     C_R   0.494278 0.497039 0.069622 0.337130
C21   C     C_R   0.505715 0.502960 0.930378 0.337131
C22   C     C_2   0.635042 0.637109 0.862909 0.973238
C23   C     C_1   0.533846 0.211610 0.501284 -0.129845
C24   C     C_2   0.364963 0.362881 0.137093 0.973242
C25   C     C_2   0.622377 0.645341 0.710493 0.976552
C26   C     C_2   0.377633 0.354649 0.289510 0.976546
C27   C     C_1   0.466154 0.788390 0.498716 -0.129850
C28   C     C_2   0.544640 0.020405 0.501530 -0.140152
C29   C     C_2   0.455360 0.979594 0.498470 -0.140153
C30   C     C_1   0.457317 0.875834 0.498478 0.032426
C31   C     C_1   0.542683 0.124166 0.501522 0.032427
C32   C     C_2   0.032863 0.473230 0.480144 -0.232986
H1    H     H_    0.394123 0.396441 0.715624 0.158913
H2    H     H_    0.256586 0.351809 0.058546 0.357580
H3    H     H_    0.759925 0.699051 0.697911 0.350001
H4    H     H_    0.240091 0.300928 0.302093 0.350001
H5    H     H_    0.605868 0.603566 0.284374 0.158910
H6    H     H_    0.400640 0.393400 0.842265 0.163248
H7    H     H_    0.599347 0.606607 0.157734 0.163249
H8    H     H_    0.381995 0.023328 0.495981 0.166716
H9    H     H_    0.618005 0.976672 0.504019 0.166717
H10   H     H_    0.997621 0.577854 0.557862 0.174186
H11   H     H_    0.002379 0.422146 0.442138 0.174187
H12   H     H_    0.743416 0.648174 0.941460 0.357580
N1    N     N_R   0.511264 0.415330 0.964046 -0.142940
N2    N     N_R   0.488729 0.584669 0.035953 -0.142943
N3    N     N_R   0.506239 0.412438 0.032787 -0.141488
N4    N     N_R   0.493754 0.587561 0.967213 -0.141490
N5    N     N_1   0.234540 0.484780 0.488910 -0.088239
N6    N     N_1   0.765460 0.515220 0.511090 -0.088239
O1    O     O_R   0.402510 0.634760 0.495940 -0.613057
O2    O     O_R   0.702268 0.596862 0.916651 -0.776964
O3    O     O_2   0.368929 0.274614 0.149491 -0.588156
O4    O     O_R   0.297730 0.403123 0.083354 -0.776963
O5    O     O_2   0.579145 0.699770 0.665496 -0.629296
O6    O     O_R   0.727920 0.648679 0.726868 -0.774630
O7    O     O_2   0.420870 0.300224 0.334507 -0.629300
O8    O     O_R   0.272091 0.351303 0.273136 -0.774630
O9    O     O_R   0.597490 0.365240 0.504060 -0.613056
O10   O     O_R   0.572960 0.644530 0.503060 -0.592274
O11   O     O_R   0.427040 0.355470 0.496940 -0.592276
O12   O     O_R   0.414750 0.495120 0.598300 -0.614899
O13   O     O_R   0.585250 0.504880 0.401700 -0.614897
O14   O     O_R   0.585190 0.504900 0.605420 -0.603832
O15   O     O_R   0.414810 0.495100 0.394580 -0.603834
O16   O     O_2   0.631085 0.725375 0.850511 -0.588156
Zn1   Zn    Zn3+2 0.386190 0.493480 0.495250 1.011655
Zn2   Zn    Zn3+2 0.613810 0.506520 0.504750 1.011658

loop_
_geom_bond_atom_site_label_1
_geom_bond_atom_site_label_2
_ccdc_geom_bond_type
C6    O13   A    
C21   N4    A    
C15   C17   A    
C29   C30   S    
C12   O11   A    
C6    O15   A    
O9    Zn2   S    
C1    O1    A    
O11   Zn1   S    
C21   N1    A    
C25   O6    S    
C4    N5    T    
C7    C18   A    
C1    C27   S    
C14   C22   S    
C13   C15   A    
C2    C3    S    
C24   O3    D    
C11   C14   A    
O1    Zn1   S    
C27   C30   T    
C6    C19   S    
C26   O8    S    
C12   C23   S    
H12   O2    S    
C4    C32   S    
O12   Zn1   S    
C2    H10   S    
C17   C26   S    
O14   Zn2   S    
C29   H8    S    
C2    C32   D    
C28   C29   D    
C17   C19   A    
C32   H11   S    
C5    O12   A    
H2    O4    S    
C22   O2    S    
H4    O8    S    
C9    C11   A    
C8    C10   A    
C26   O7    D    
C14   C16   A    
C1    O10   A    
C20   N3    A    
C8    H5    S    
C7    H1    S    
C24   O4    S    
C3    N6    T    
C8    C19   A    
N2    N4    A    
C28   H9    S    
O10   Zn2   S    
C16   C18   A    
N1    N3    A    
C16   C25   S    
C7    C9    A    
O13   Zn2   S    
C22   O16   D    
C9    H6    S    
C5    C18   S    
N5    Zn1   S    
C13   C20   S    
H3    O6    S    
C12   O9    A    
N6    Zn2   S    
C15   C24   S    
C11   C21   S    
C28   C31   S    
C20   N2    A    
C25   O5    D    
C5    O14   A    
C10   H7    S    
O15   Zn1   S    
C10   C13   A    
C23   C31   T    
