data_mof_unit_5432.cif
_audit_creation_date              2012-10-26T21:04:06-0400
_audit_creation_method            fapswitch 2.2
_symmetry_space_group_name_H-M    P1
_symmetry_Int_Tables_number       1
_space_group_crystal_system       triclinic
_cell_length_a                    15.131943
_cell_length_b                    13.880274
_cell_length_c                    10.859614
_cell_angle_alpha                 89.999679
_cell_angle_beta                  90.356088
_cell_angle_gamma                 90.000112
_cell_volume                      2280.86056915

loop_
_atom_site_label
_atom_site_type_symbol
_atom_type_description
_atom_site_fract_x
_atom_site_fract_y
_atom_site_fract_z
_atom_type_partial_charge
C1    C     C_R   0.329914 0.499970 0.499970 0.537399
C2    C     C_R   0.452818 0.107550 0.410980 -0.156364
C3    C     C_R   0.549771 0.209511 0.584961 0.376367
C4    C     C_R   0.450228 0.209512 0.415039 0.376367
C5    C     C_R   0.500002 0.054468 0.499999 -0.059131
C6    C     C_R   0.429794 0.891886 0.447483 -0.141964
C7    C     C_R   0.570207 0.891885 0.552517 -0.141965
C8    C     C_R   0.431570 0.790579 0.447301 0.040143
C9    C     C_R   0.568430 0.790578 0.552699 0.040143
C10   C     C_R   0.500001 0.945139 0.500000 0.035006
C11   C     C_R   0.499856 0.499877 0.262618 0.551760
C12   C     C_R   0.670086 0.499970 0.500031 0.537394
C13   C     C_R   0.500144 0.499877 0.737382 0.551757
C14   C     C_R   0.499902 0.583087 0.061968 0.017614
C15   C     C_R   0.500098 0.583087 0.938031 0.017616
C16   C     C_R   0.499816 0.498600 0.130051 0.008848
C17   C     C_R   0.500184 0.498600 0.869949 0.008847
C18   C     C_R   0.499870 0.410684 0.064575 -0.166263
C19   C     C_R   0.500130 0.410684 0.935426 -0.166268
C20   C     C_3   0.500103 0.690177 0.929065 -0.266269
C21   C     C_3   0.499898 0.690177 0.070931 -0.266271
C22   C     C_R   0.094952 0.581783 0.461645 -0.121593
C23   C     C_R   0.187258 0.417509 0.537629 -0.145414
C24   C     C_R   0.905048 0.581788 0.538349 -0.121595
C25   C     C_R   0.186801 0.582101 0.462410 -0.129830
C26   C     C_R   0.813199 0.582106 0.537581 -0.129830
C27   C     C_R   0.233435 0.499864 0.500013 0.013867
C28   C     C_R   0.766565 0.499864 0.499992 0.013862
C29   C     C_3   0.686728 0.236919 0.675617 0.005312
C30   C     C_3   0.712551 0.201241 0.804094 -0.272688
C31   C     C_3   0.811310 0.179783 0.812628 -0.487331
C32   C     C_3   0.313264 0.236900 0.324393 0.005307
C33   C     C_3   0.287446 0.201198 0.195923 -0.272725
C34   C     C_R   0.812743 0.417504 0.462396 -0.145422
C35   C     C_3   0.188707 0.179646 0.187414 -0.487412
C36   C     C_R   0.095416 0.417532 0.538145 -0.125834
C37   C     C_R   0.904585 0.417527 0.461884 -0.125834
C38   C     C_R   0.048551 0.499616 0.499915 0.034695
C39   C     C_R   0.951449 0.499616 0.500098 0.034695
C40   C     C_R   0.547185 0.107550 0.589019 -0.156356
Cu1   Cu    Cu3+1 0.500000 0.596430 0.500000 0.930944
Cu2   Cu    Cu3+1 0.500000 0.403570 0.500000 1.031002
H1    H     H_    0.499765 0.342180 0.112318 0.164863
H2    H     H_    0.561958 0.718464 0.112610 0.144125
H3    H     H_    0.060265 0.645385 0.429743 0.100854
H4    H     H_    0.939735 0.645394 0.570239 0.100852
H5    H     H_    0.221257 0.646164 0.432042 0.112557
H6    H     H_    0.778742 0.646173 0.567933 0.112559
H7    H     H_    0.222093 0.353541 0.568105 0.115188
H8    H     H_    0.777909 0.353532 0.431933 0.115182
H9    H     H_    0.061119 0.353840 0.569984 0.099833
H10   H     H_    0.938882 0.353830 0.430060 0.099833
H11   H     H_    0.581602 0.070834 0.662757 0.102194
H12   H     H_    0.500234 0.342179 0.887685 0.164864
H13   H     H_    0.418400 0.070833 0.337245 0.102193
H14   H     H_    0.724695 0.303616 0.656292 0.163991
H15   H     H_    0.707014 0.182996 0.604847 0.097422
H16   H     H_    0.695468 0.257167 0.873303 0.174738
H17   H     H_    0.674977 0.134741 0.826093 0.152321
H18   H     H_    0.829543 0.122520 0.745961 0.141201
H19   H     H_    0.827985 0.154568 0.906987 0.145982
H20   H     H_    0.850255 0.245819 0.792913 0.149145
H21   H     H_    0.275284 0.303589 0.343699 0.163981
H22   H     H_    0.292987 0.182985 0.395180 0.097437
H23   H     H_    0.372836 0.927569 0.407839 0.079940
H24   H     H_    0.304472 0.257136 0.126708 0.174723
H25   H     H_    0.325067 0.134740 0.173911 0.152365
H26   H     H_    0.170529 0.122411 0.254117 0.141221
H27   H     H_    0.172030 0.154374 0.093089 0.145981
H28   H     H_    0.149720 0.245640 0.207086 0.149158
H29   H     H_    0.627166 0.927568 0.592161 0.079937
H30   H     H_    0.377509 0.751467 0.405150 0.113894
H31   H     H_    0.622491 0.751465 0.594850 0.113894
H32   H     H_    0.562271 0.718476 0.888770 0.134491
H33   H     H_    0.437730 0.718477 0.111226 0.134492
H34   H     H_    0.438044 0.718464 0.887386 0.144126
N1    N     N_R   0.500000 0.258690 0.500000 -0.201817
N2    N     N_R   0.500000 0.741330 0.500000 -0.221730
O1    O     O_R   0.371460 0.581430 0.500010 -0.518728
O2    O     O_3   0.404258 0.261007 0.326204 -0.542485
O3    O     O_R   0.628540 0.581430 0.499990 -0.518727
O4    O     O_R   0.371470 0.418560 0.500010 -0.491821
O5    O     O_R   0.628530 0.418560 0.499990 -0.491841
O6    O     O_R   0.499990 0.581450 0.319660 -0.508141
O7    O     O_R   0.500010 0.581450 0.680340 -0.508142
O8    O     O_R   0.500010 0.418580 0.319660 -0.461098
O9    O     O_R   0.499990 0.418580 0.680340 -0.461095
O10   O     O_3   0.595730 0.261005 0.673807 -0.542498

loop_
_geom_bond_atom_site_label_1
_geom_bond_atom_site_label_2
_ccdc_geom_bond_type
C7    C10   A    
C34   C37   A    
Cu1   Cu2   S    
C31   H19   S    
Cu2   O4    S    
C12   C28   S    
C14   C21   S    
C24   C26   A    
C4    O2    S    
C2    H13   S    
C7    H29   S    
C30   C31   S    
C23   H7    S    
C11   O8    A    
C22   C38   A    
C24   C39   A    
C20   H34   S    
C15   C17   A    
C18   C19   A    
C29   O10   S    
C17   C19   A    
C6    H23   S    
C35   H28   S    
C22   C25   A    
Cu2   O8    S    
C23   C27   A    
C25   H5    S    
C26   H6    S    
C28   C34   A    
C8    N2    A    
C31   H20   S    
C9    H31   S    
C33   H24   S    
C15   C20   S    
C34   H8    S    
C8    H30   S    
C32   H22   S    
Cu1   N2    S    
C37   H10   S    
C6    C8    A    
C1    O4    A    
Cu1   O6    S    
C12   O5    A    
C31   H18   S    
C2    C4    A    
C6    C10   A    
C29   C30   S    
C32   O2    S    
C21   H2    S    
C11   C16   S    
Cu1   O3    S    
C30   H17   S    
C13   O9    A    
C20   H32   S    
C36   H9    S    
C19   H12   S    
C29   H15   S    
C3    C40   A    
C23   C36   A    
C1    O1    A    
C14   C16   A    
C2    C5    A    
C3    N1    A    
C33   H25   S    
C7    C9    A    
C3    O10   S    
Cu2   O5    S    
C32   H21   S    
Cu1   O1    S    
C29   H14   S    
C11   O6    A    
C25   C27   A    
Cu1   O7    S    
C21   H33   S    
C26   C28   A    
C13   C17   S    
C24   H4    S    
C32   C33   S    
C36   C38   A    
C5    C10   S    
C37   C39   A    
C18   H1    S    
C38   C39   S    
C35   H26   S    
C30   H16   S    
C33   C35   S    
C12   O3    A    
C9    N2    A    
C4    N1    A    
C22   H3    S    
C20   C21   S    
C35   H27   S    
Cu2   N1    S    
C16   C18   A    
C40   H11   S    
C5    C40   A    
C13   O7    A    
C1    C27   S    
C14   C15   A    
Cu2   O9    S    
