data_mof_unit_56822.cif
_audit_creation_date              2013-03-05T16:48:13-0500
_audit_creation_method            fapswitch 2.2
_symmetry_space_group_name_H-M    P1
_symmetry_Int_Tables_number       1
_space_group_crystal_system       triclinic
_cell_length_a                    23.510771
_cell_length_b                    8.918948
_cell_length_c                    8.089394
_cell_angle_alpha                 89.974139
_cell_angle_beta                  89.902533
_cell_angle_gamma                 89.806142
_cell_volume                      1696.26356786

loop_
_atom_site_label
_atom_site_type_symbol
_atom_site_description
_atom_site_fract_x
_atom_site_fract_y
_atom_site_fract_z
_atom_type_partial_charge
O1    O     O_R   0.500000 0.285350 0.636850 -0.623579
O2    O     O_R   0.500000 0.714650 0.363150 -0.623580
O3    O     O_R   0.500000 0.714650 0.636850 -0.614021
O4    O     O_R   0.500000 0.285350 0.363150 -0.614023
C1    C     C_R   0.500017 0.217953 0.500023 0.916874
C2    C     C_R   0.499983 0.782047 0.499977 0.916874
O5    O     O_R   0.416160 0.500000 0.636910 -0.565790
O6    O     O_R   0.583840 0.500000 0.363090 -0.565772
O7    O     O_R   0.583840 0.500000 0.636910 -0.566081
O8    O     O_R   0.416160 0.500000 0.363090 -0.566101
C3    C     C_R   0.208185 0.508848 0.501937 -0.180379
C4    C     C_R   0.791818 0.491173 0.498068 -0.180415
C5    C     C_R   0.388939 0.500695 0.500160 1.037324
C6    C     C_R   0.611061 0.499306 0.499840 1.037268
Zn1   Zn    Zn3+2 0.500000 0.500000 0.682780 1.107807
Zn2   Zn    Zn3+2 0.500000 0.500000 0.317220 1.107805
C7    C     C_R   0.296336 0.471772 0.354791 0.510669
C8    C     C_R   0.703664 0.528074 0.645243 0.510644
C9    C     C_R   0.296843 0.538904 0.646959 0.508699
C10   C     C_R   0.703161 0.461271 0.353009 0.508682
C11   C     C_R   0.326700 0.503595 0.500660 -0.563386
C12   C     C_R   0.673301 0.496412 0.499341 -0.563408
C13   C     C_R   0.879217 0.614989 0.433258 0.645313
C14   C     C_R   0.120787 0.385053 0.566790 0.645304
C15   C     C_R   0.880906 0.373155 0.559647 0.663646
C16   C     C_R   0.119098 0.626864 0.440344 0.663637
N1    N     N_R   0.852354 0.492795 0.496396 -0.291053
N2    N     N_R   0.147650 0.507233 0.503617 -0.291054
C17   C     C_R   0.940665 0.372983 0.564259 -0.085728
C18   C     C_R   0.059339 0.627044 0.435754 -0.085725
C19   C     C_R   0.939093 0.621584 0.430983 -0.087020
C20   C     C_R   0.060911 0.378455 0.569057 -0.087016
C21   C     C_R   0.969952 0.498689 0.498820 -0.062781
C22   C     C_R   0.030052 0.501344 0.501206 -0.062767
C23   C     C_R   0.971496 0.251759 0.632996 0.133128
C24   C     C_R   0.028508 0.748274 0.367031 0.133123
C25   C     C_R   0.969037 0.745852 0.363996 0.038979
C26   C     C_R   0.030966 0.254191 0.636051 0.038970
C27   C     C_1   0.500006 0.065207 0.500033 -0.127972
C28   C     C_1   0.499994 0.934793 0.499967 -0.127971
C29   C     C_R   0.237287 0.474431 0.356070 0.591217
C30   C     C_R   0.762713 0.525426 0.643965 0.591206
C31   C     C_R   0.237797 0.541392 0.646965 0.594932
C32   C     C_R   0.762207 0.458787 0.353006 0.594924
N3    N     N_1   0.500000 0.500000 0.073640 0.027349
N4    N     N_1   0.500000 0.500000 0.926360 0.027350
O9    O     O_2   0.847272 0.728917 0.374568 -0.526873
O10   O     O_2   0.152731 0.271141 0.625521 -0.526855
O11   O     O_2   0.850889 0.255402 0.617267 -0.478609
O12   O     O_2   0.149116 0.744597 0.382678 -0.478582
N5    N     N_3   0.942517 0.124728 0.702367 -0.351588
H1    H     H_    0.953532 0.115449 0.827164 0.221356
H2    H     H_    0.956158 0.027862 0.641025 0.195791
N6    N     N_3   0.057486 0.875310 0.297666 -0.351566
H3    H     H_    0.046457 0.884624 0.172883 0.221356
H4    H     H_    0.043857 0.972165 0.359049 0.195792
N7    N     N_3   0.940892 0.872064 0.289441 -0.455438
H5    H     H_    0.915698 0.926826 0.377314 0.254657
H6    H     H_    0.916745 0.836090 0.188695 0.266213
N8    N     N_3   0.059111 0.127987 0.710627 -0.455425
H7    H     H_    0.083253 0.163972 0.811377 0.266223
H8    H     H_    0.084309 0.073222 0.622767 0.254659
F1    F     F_    0.208102 0.441764 0.216027 -0.536678
F2    F     F_    0.791896 0.557941 0.784045 -0.536605
F3    F     F_    0.209118 0.575175 0.788000 -0.535072
F4    F     F_    0.790887 0.425161 0.211938 -0.535006
F5    F     F_    0.323459 0.435611 0.211791 -0.530603
F6    F     F_    0.676541 0.564059 0.788280 -0.530525
F7    F     F_    0.324476 0.572587 0.789457 -0.531404
F8    F     F_    0.675530 0.427757 0.210473 -0.531323

loop_
_geom_bond_atom_site_label_1
_geom_bond_atom_site_label_2
_geom_bond_distance
_ccdc_geom_bond_type
Zn2   N3    1.970415 S    
O4    Zn2   1.950008 S    
C4    C30   1.396654 A    
O7    C6    1.279319 A    
C19   C21   1.422804 A    
N6    H4    1.045680 S    
C3    C31   1.396336 A    
O1    Zn1   1.950337 S    
C13   N1    1.360353 A    
C15   N1    1.359001 A    
C8    C12   1.409562 A    
O2    Zn2   1.950337 S    
C17   C23   1.413892 A    
C32   F4    1.357624 S    
C18   C24   1.413892 A    
C31   F3    1.357703 S    
O3    C2    1.259627 A    
C6    C12   1.463452 S    
C16   O12   1.349728 S    
C14   C20   1.409247 A    
C21   C22   1.413429 A    
O7    Zn1   2.005144 S    
C26   N8    1.436828 S    
C5    C11   1.463431 S    
C4    C32   1.396262 A    
O8    Zn2   2.005146 S    
N3    N4    1.191405 T    
C23   N5    1.437403 S    
C10   F8    1.358308 S    
N7    H5    1.044810 S    
O2    C2    1.259779 A    
C3    N2    1.423395 S    
O1    C1    1.259779 A    
O5    Zn1   2.006387 S    
C24   C25   1.398695 A    
C9    C11   1.410162 A    
C10   C12   1.410080 A    
C16   C18   1.405534 A    
C13   C19   1.409247 A    
C15   O11   1.349716 S    
C20   C26   1.421666 A    
C8    C30   1.388430 A    
C15   C17   1.405530 A    
C25   N7    1.436829 S    
C7    C29   1.388429 A    
C9    F7    1.358410 S    
N7    H6    1.045209 S    
C24   N6    1.437403 S    
C18   C22   1.419438 A    
C7    F5    1.358392 S    
C8    F6    1.358285 S    
N5    H1    1.045819 S    
C14   O10   1.348180 S    
C30   F2    1.357641 S    
O5    C5    1.278950 A    
C2    C28   1.362337 S    
C13   O9    1.348170 S    
C14   N2    1.360355 A    
N8    H8    1.044811 S    
O6    Zn2   2.006385 S    
C3    C29   1.396735 A    
C27   C28   1.163158 T    
C1    C27   1.362337 S    
C29   F1    1.357720 S    
C23   C26   1.398690 A    
O4    C1    1.259627 A    
O3    Zn1   1.950007 S    
O6    C6    1.278956 A    
C4    N1    1.423409 S    
Zn1   N4    1.970415 S    
C10   C32   1.388331 A    
N6    H3    1.045815 S    
C16   N2    1.358998 A    
C7    C11   1.409640 A    
C19   C25   1.421665 A    
C17   C21   1.419433 A    
C9    C31   1.388329 A    
N8    H7    1.045209 S    
N5    H2    1.045680 S    
O8    C5    1.279314 A    
C20   C22   1.422807 A    
