data_mof_unit_10491.cif
_audit_creation_date              2013-03-05T16:26:05-0500
_audit_creation_method            fapswitch 2.2
_symmetry_space_group_name_H-M    P1
_symmetry_Int_Tables_number       1
_space_group_crystal_system       triclinic
_cell_length_a                    27.921719
_cell_length_b                    25.850387
_cell_length_c                    18.434016
_cell_angle_alpha                 89.992638
_cell_angle_beta                  89.996473
_cell_angle_gamma                 90.001771
_cell_volume                      13305.4374236

loop_
_atom_site_label
_atom_site_type_symbol
_atom_site_description
_atom_site_fract_x
_atom_site_fract_y
_atom_site_fract_z
_atom_type_partial_charge
O1    O     O_R   0.050940 0.449070 0.560830 -0.583069
O2    O     O_R   0.949060 0.550930 0.439170 -0.540064
O3    O     O_R   0.949060 0.550930 0.560830 -0.583082
O4    O     O_R   0.050940 0.449070 0.439170 -0.540069
O5    O     O_R   0.949060 0.449070 0.439170 -0.583091
O6    O     O_R   0.050940 0.550930 0.560830 -0.540010
O7    O     O_R   0.050940 0.550930 0.439170 -0.583103
O8    O     O_R   0.949060 0.449070 0.560830 -0.540050
O9    O     O_R   0.550940 0.949070 0.560830 -0.583045
O10   O     O_R   0.449060 0.050930 0.439170 -0.540072
O11   O     O_R   0.449060 0.050930 0.560830 -0.583072
O12   O     O_R   0.550940 0.949070 0.439170 -0.540076
O13   O     O_R   0.449060 0.949070 0.439170 -0.583118
O14   O     O_R   0.550940 0.050930 0.560830 -0.540034
O15   O     O_R   0.550940 0.050930 0.439170 -0.583112
O16   O     O_R   0.449060 0.949070 0.560830 -0.540229
C1    C     C_R   0.069737 0.434769 0.500249 0.973255
C2    C     C_R   0.930261 0.565227 0.500248 0.973253
C3    C     C_R   0.930256 0.434776 0.499748 0.973198
C4    C     C_R   0.069748 0.565218 0.499742 0.973178
C5    C     C_R   0.569737 0.934770 0.500248 0.973309
C6    C     C_R   0.430260 0.065225 0.500247 0.973320
C7    C     C_R   0.430262 0.934769 0.499739 0.973252
C8    C     C_R   0.569746 0.065222 0.499740 0.973214
C9    C     C_R   0.985624 0.455559 0.195298 -0.087124
C10   C     C_R   0.985299 0.544338 0.804697 -0.087353
C11   C     C_R   0.014379 0.544451 0.195286 -0.087106
C12   C     C_R   0.014702 0.455672 0.804718 -0.087350
C13   C     C_R   0.485657 0.955552 0.195296 -0.087086
C14   C     C_R   0.485254 0.044326 0.804695 -0.087357
C15   C     C_R   0.514348 0.044466 0.195291 -0.087077
C16   C     C_R   0.514769 0.955700 0.804722 -0.087342
Zn1   Zn    Zn3+2 0.000000 0.500000 0.581210 1.156965
Zn2   Zn    Zn3+2 0.000000 0.500000 0.418790 1.156926
Zn3   Zn    Zn3+2 0.500000 0.000000 0.581210 1.156910
Zn4   Zn    Zn3+2 0.500000 0.000000 0.418790 1.156918
N1    N     N_R   0.000000 0.500000 0.310560 -0.197179
N2    N     N_R   0.000000 0.500000 0.689440 -0.197019
N3    N     N_R   0.500000 1.000000 0.310560 -0.197206
N4    N     N_R   0.500000 0.000000 0.689440 -0.197042
N5    N     N_R   0.041727 0.498999 0.036311 -0.184081
N6    N     N_R   0.958276 0.500640 0.963799 -0.184381
N7    N     N_R   0.958277 0.501020 0.036319 -0.184074
N8    N     N_R   0.041727 0.499380 0.963791 -0.184376
N9    N     N_R   0.541729 0.998830 0.036328 -0.184033
N10   N     N_R   0.458288 0.000830 0.963810 -0.184386
N11   N     N_R   0.458286 0.001208 0.036330 -0.184033
N12   N     N_R   0.541733 0.999213 0.963808 -0.184409
C17   C     C_R   0.986323 0.456273 0.272859 0.407468
C18   C     C_R   0.986158 0.543666 0.727127 0.407199
C19   C     C_R   0.013677 0.543730 0.272848 0.407461
C20   C     C_R   0.013843 0.456338 0.727148 0.407119
C21   C     C_R   0.486339 0.956268 0.272856 0.407495
C22   C     C_R   0.486130 0.043657 0.727125 0.407110
C23   C     C_R   0.513662 0.043737 0.272851 0.407460
C24   C     C_R   0.513880 0.956354 0.727151 0.406911
C25   C     C_R   0.870951 0.371192 0.553255 0.276698
C26   C     C_R   0.145196 0.589422 0.435043 0.313528
C27   C     C_R   0.129085 0.628758 0.553251 0.276734
C28   C     C_R   0.854805 0.410578 0.435079 0.313569
C29   C     C_R   0.128980 0.371160 0.446691 0.276769
C30   C     C_R   0.854769 0.589414 0.564822 0.313832
C31   C     C_R   0.871001 0.628818 0.446681 0.276779
C32   C     C_R   0.145225 0.410560 0.564812 0.313804
C33   C     C_R   0.370992 0.871116 0.553145 0.276593
C34   C     C_R   0.645193 0.089438 0.435039 0.313544
C35   C     C_R   0.629064 0.128780 0.553241 0.276739
C36   C     C_R   0.354833 0.910556 0.435011 0.313742
C37   C     C_R   0.628979 0.871162 0.446692 0.276766
C38   C     C_R   0.354753 0.089383 0.564804 0.313868
C39   C     C_R   0.370997 0.128810 0.446682 0.276767
C40   C     C_R   0.645237 0.910585 0.564794 0.313853
C41   C     C_R   0.831376 0.338298 0.543397 0.000640
C42   C     C_R   0.181580 0.626007 0.421592 -0.024914
C43   C     C_R   0.168663 0.661650 0.543377 0.000724
C44   C     C_R   0.818417 0.373997 0.421645 -0.024922
C45   C     C_R   0.168562 0.338271 0.456488 0.000642
C46   C     C_R   0.818369 0.625989 0.578206 -0.024892
C47   C     C_R   0.831412 0.661696 0.456477 0.000649
C48   C     C_R   0.181617 0.373975 0.578200 -0.024887
C49   C     C_R   0.331433 0.838215 0.543254 0.000853
C50   C     C_R   0.681585 0.126019 0.421606 -0.024956
C51   C     C_R   0.668643 0.161671 0.543379 0.000643
C52   C     C_R   0.318449 0.873973 0.421549 -0.025015
C53   C     C_R   0.668569 0.838284 0.456482 0.000645
C54   C     C_R   0.318340 0.125946 0.578181 -0.024896
C55   C     C_R   0.331401 0.161678 0.456472 0.000654
C56   C     C_R   0.681641 0.874012 0.578176 -0.024875
C57   C     C_R   0.809469 0.335797 0.474451 -0.046575
C58   C     C_R   0.190539 0.664192 0.474405 -0.046589
C59   C     C_R   0.190518 0.335768 0.525396 -0.046687
C60   C     C_R   0.809460 0.664194 0.525391 -0.046700
C61   C     C_R   0.309500 0.835762 0.474333 -0.046815
C62   C     C_R   0.690543 0.164197 0.474425 -0.046568
C63   C     C_R   0.690539 0.835800 0.525380 -0.046691
C64   C     C_R   0.309434 0.164158 0.525376 -0.046712
C65   C     C_R   0.000001 0.500010 0.925799 0.319409
C66   C     C_R   0.000002 0.500009 0.074288 0.319169
C67   C     C_R   0.500011 0.000023 0.925810 0.319424
C68   C     C_R   0.500007 0.000017 0.074300 0.319139
C69   C     C_R   0.884921 0.404918 0.496768 -0.270432
C70   C     C_R   0.115091 0.595064 0.496751 -0.270464
C71   C     C_R   0.115059 0.404893 0.503188 -0.270526
C72   C     C_R   0.884932 0.595090 0.503188 -0.270517
C73   C     C_R   0.384945 0.904885 0.496709 -0.270490
C74   C     C_R   0.615082 0.095079 0.496744 -0.270444
C75   C     C_R   0.615062 0.904901 0.503184 -0.270523
C76   C     C_R   0.384926 0.095077 0.503184 -0.270503
N13   N     N_R   0.730401 0.297641 0.458214 -0.179418
N14   N     N_R   0.269590 0.702353 0.457976 -0.179438
N15   N     N_R   0.202239 0.756272 0.457955 -0.162399
N16   N     N_R   0.797763 0.243738 0.457851 -0.162399
N17   N     N_R   0.269585 0.297602 0.541575 -0.179418
N18   N     N_R   0.797761 0.756262 0.541896 -0.162426
N19   N     N_R   0.730396 0.702359 0.541623 -0.179417
N20   N     N_R   0.202218 0.243702 0.541951 -0.162428
N21   N     N_R   0.230400 0.797645 0.458285 -0.179661
N22   N     N_R   0.769610 0.202358 0.458188 -0.179421
N23   N     N_R   0.702249 0.256262 0.457857 -0.162384
N24   N     N_R   0.297750 0.743725 0.457608 -0.162389
N25   N     N_R   0.702247 0.743739 0.541969 -0.162408
N26   N     N_R   0.230366 0.202321 0.541596 -0.179435
N27   N     N_R   0.297733 0.256221 0.541917 -0.162411
N28   N     N_R   0.769612 0.797642 0.541545 -0.179428
C77   C     C_R   0.221424 0.708088 0.458406 0.297180
C78   C     C_R   0.778569 0.291916 0.458466 0.297152
C79   C     C_R   0.778563 0.708084 0.541335 0.297225
C80   C     C_R   0.221418 0.291879 0.541341 0.297228
C81   C     C_R   0.721443 0.208084 0.458444 0.297134
C82   C     C_R   0.278566 0.791907 0.458369 0.297541
C83   C     C_R   0.278533 0.208044 0.541326 0.297233
C84   C     C_R   0.721445 0.791917 0.541330 0.297231
C85   C     C_R   0.000002 0.500006 0.156043 -0.035679
C86   C     C_R   0.000000 0.500007 0.843994 -0.035948
C87   C     C_R   0.500004 0.000012 0.156049 -0.035653
C88   C     C_R   0.500013 0.000017 0.843999 -0.035979
N29   N     N_R   0.974059 0.410031 0.311912 0.226796
O17   O     O_R   0.005317 0.388088 0.353588 -0.303916
O18   O     O_R   0.934267 0.385643 0.299287 -0.421215
N30   N     N_R   0.974053 0.589945 0.688043 0.226649
O19   O     O_R   0.005488 0.611904 0.646685 -0.303814
O20   O     O_R   0.934192 0.614306 0.700243 -0.421167
N31   N     N_R   0.025936 0.589971 0.311891 0.226800
O21   O     O_R   0.994670 0.611914 0.353553 -0.303928
O22   O     O_R   0.065722 0.614369 0.299249 -0.421208
N32   N     N_R   0.025951 0.410057 0.688084 0.226657
O23   O     O_R   0.994528 0.388112 0.646704 -0.303754
O24   O     O_R   0.065805 0.385686 0.700308 -0.421150
N33   N     N_R   0.474060 0.910029 0.311904 0.226790
O25   O     O_R   0.505300 0.888085 0.353608 -0.303903
O26   O     O_R   0.434273 0.885641 0.299238 -0.421230
N34   N     N_R   0.474030 0.089935 0.688036 0.226636
O27   O     O_R   0.505476 0.111897 0.646700 -0.303763
O28   O     O_R   0.434157 0.114285 0.700188 -0.421154
N35   N     N_R   0.525936 0.089973 0.311895 0.226789
O29   O     O_R   0.494682 0.111921 0.353570 -0.303930
O30   O     O_R   0.565721 0.114365 0.299223 -0.421189
N36   N     N_R   0.525964 0.910067 0.688088 0.226628
O31   O     O_R   0.494516 0.888131 0.646742 -0.303757
O32   O     O_R   0.565825 0.885695 0.700249 -0.421112
C89   C     C_3   0.972779 0.406004 0.154807 -0.334888
C90   C     C_3   0.918912 0.403129 0.137427 -0.287306
C91   C     C_3   0.904548 0.348947 0.112909 -0.858616
H1    H     H_    0.925622 0.337351 0.064448 0.263254
H2    H     H_    0.910685 0.320625 0.157274 0.281221
H3    H     H_    0.865926 0.348527 0.098587 0.251532
H4    H     H_    0.897025 0.413944 0.185291 0.280438
H5    H     H_    0.909763 0.430697 0.093625 0.232996
H6    H     H_    0.993510 0.402751 0.103573 0.189511
H7    H     H_    0.984067 0.371687 0.186768 0.246795
C92   C     C_3   0.972107 0.593826 0.845114 -0.334632
C93   C     C_3   0.918111 0.596648 0.861653 -0.285857
C94   C     C_3   0.903578 0.650766 0.886214 -0.859411
H8    H     H_    0.924350 0.662264 0.935014 0.263452
H9    H     H_    0.909974 0.679192 0.842061 0.281168
H10   H     H_    0.864873 0.651134 0.900014 0.251612
H11   H     H_    0.896543 0.585936 0.813434 0.280781
H12   H     H_    0.908616 0.568973 0.905143 0.233250
H13   H     H_    0.992468 0.597082 0.896681 0.189455
H14   H     H_    0.983591 0.628183 0.813392 0.246281
C95   C     C_3   0.027224 0.594009 0.154781 -0.334871
C96   C     C_3   0.081091 0.596888 0.137391 -0.287304
C97   C     C_3   0.095454 0.651069 0.112850 -0.858620
H15   H     H_    0.074382 0.662664 0.064388 0.263255
H16   H     H_    0.089315 0.679393 0.157205 0.281209
H17   H     H_    0.134076 0.651491 0.098524 0.251538
H18   H     H_    0.102977 0.586075 0.185255 0.280459
H19   H     H_    0.090241 0.569319 0.093597 0.232989
H20   H     H_    0.006493 0.597265 0.103548 0.189508
H21   H     H_    0.015935 0.628325 0.186734 0.246800
C98   C     C_3   0.027891 0.406186 0.845159 -0.334623
C99   C     C_3   0.081887 0.403360 0.861686 -0.285817
C100  C     C_3   0.096422 0.349234 0.886226 -0.859371
H22   H     H_    0.075650 0.337718 0.935025 0.263442
H23   H     H_    0.090030 0.320823 0.842064 0.281191
H24   H     H_    0.135127 0.348864 0.900021 0.251601
H25   H     H_    0.103455 0.414089 0.813466 0.280783
H26   H     H_    0.091381 0.431021 0.905184 0.233222
H27   H     H_    0.007532 0.402937 0.896734 0.189434
H28   H     H_    0.016401 0.371827 0.813458 0.246275
C101  C     C_3   0.472843 0.905994 0.154794 -0.334927
C102  C     C_3   0.418991 0.903122 0.137321 -0.287483
C103  C     C_3   0.404643 0.848944 0.112768 -0.858527
H29   H     H_    0.425745 0.837355 0.064333 0.263259
H30   H     H_    0.410754 0.820615 0.157133 0.281200
H31   H     H_    0.366029 0.848524 0.098394 0.251544
H32   H     H_    0.397072 0.913931 0.185155 0.280392
H33   H     H_    0.409880 0.930696 0.093507 0.232996
H34   H     H_    0.493615 0.902739 0.103597 0.189537
H35   H     H_    0.484104 0.871677 0.186778 0.246846
C104  C     C_3   0.472007 0.093803 0.845101 -0.334603
C105  C     C_3   0.417995 0.096599 0.861543 -0.285668
C106  C     C_3   0.403426 0.150704 0.886108 -0.859491
H36   H     H_    0.424160 0.162198 0.934947 0.263480
H37   H     H_    0.409840 0.179144 0.841981 0.281163
H38   H     H_    0.364712 0.151051 0.899850 0.251619
H39   H     H_    0.396467 0.085890 0.813283 0.280822
H40   H     H_    0.408470 0.068907 0.904997 0.233285
H41   H     H_    0.492324 0.097069 0.896705 0.189452
H42   H     H_    0.483501 0.128168 0.813405 0.246224
C107  C     C_3   0.527163 0.094031 0.154783 -0.334912
C108  C     C_3   0.581017 0.096908 0.137308 -0.287471
C109  C     C_3   0.595368 0.151093 0.112764 -0.858523
H43   H     H_    0.574269 0.162695 0.064332 0.263240
H44   H     H_    0.589255 0.179411 0.157134 0.281208
H45   H     H_    0.633983 0.151516 0.098389 0.251527
H46   H     H_    0.602933 0.086087 0.185138 0.280436
H47   H     H_    0.590130 0.069346 0.093487 0.232966
H48   H     H_    0.506395 0.097292 0.103585 0.189532
H49   H     H_    0.515899 0.128343 0.186764 0.246856
C110  C     C_3   0.528031 0.906236 0.845162 -0.334582
C111  C     C_3   0.582046 0.903454 0.861569 -0.285653
C112  C     C_3   0.596620 0.849373 0.886250 -0.859541
H50   H     H_    0.575900 0.837932 0.935135 0.263498
H51   H     H_    0.590189 0.820888 0.842195 0.281135
H52   H     H_    0.635338 0.849037 0.899958 0.251632
H53   H     H_    0.603562 0.914111 0.813268 0.280838
H54   H     H_    0.591585 0.931191 0.904949 0.233289
H55   H     H_    0.507726 0.902981 0.896784 0.189480
H56   H     H_    0.516533 0.871858 0.813507 0.246195
N37   N     N_R   0.896601 0.369790 0.620489 0.232859
O33   O     O_R   0.892150 0.407642 0.666526 -0.331789
O34   O     O_R   0.917513 0.327204 0.640855 -0.361906
N38   N     N_R   0.141783 0.543616 0.390990 0.225072
O35   O     O_R   0.150589 0.498820 0.419998 -0.390961
O36   O     O_R   0.135168 0.546437 0.321294 -0.380796
N39   N     N_R   0.103455 0.630130 0.620511 0.232870
O37   O     O_R   0.107857 0.592220 0.666477 -0.331782
O38   O     O_R   0.082583 0.672717 0.640954 -0.361958
N40   N     N_R   0.858212 0.456392 0.391027 0.225070
O39   O     O_R   0.849399 0.501182 0.420039 -0.391019
O40   O     O_R   0.864817 0.453585 0.321327 -0.380784
N41   N     N_R   0.103270 0.369740 0.379511 0.232831
O41   O     O_R   0.107707 0.407564 0.333411 -0.332111
O42   O     O_R   0.082328 0.327150 0.359236 -0.361980
N42   N     N_R   0.858135 0.543583 0.608845 0.225141
O43   O     O_R   0.849314 0.498810 0.579791 -0.391052
O44   O     O_R   0.864692 0.546363 0.678554 -0.381490
N43   N     N_R   0.896709 0.630244 0.379494 0.232828
O45   O     O_R   0.892283 0.592416 0.333412 -0.332081
O46   O     O_R   0.917639 0.672839 0.359197 -0.361996
N44   N     N_R   0.141873 0.456393 0.608816 0.225142
O47   O     O_R   0.150712 0.501161 0.579744 -0.391050
O48   O     O_R   0.135311 0.453617 0.678527 -0.381425
N45   N     N_R   0.396624 0.869704 0.620383 0.232939
O49   O     O_R   0.391928 0.907409 0.666601 -0.331338
O50   O     O_R   0.417633 0.827144 0.640631 -0.361752
N46   N     N_R   0.641779 0.043639 0.390972 0.225100
O51   O     O_R   0.650551 0.998835 0.419978 -0.390970
O52   O     O_R   0.635203 0.046471 0.321268 -0.380779
N47   N     N_R   0.603423 0.130160 0.620488 0.232858
O53   O     O_R   0.607862 0.092280 0.666497 -0.331779
O54   O     O_R   0.582527 0.172744 0.640891 -0.361909
N48   N     N_R   0.358234 0.956383 0.390984 0.225074
O55   O     O_R   0.349420 0.001164 0.420022 -0.391070
O56   O     O_R   0.364828 0.953596 0.321281 -0.380741
N49   N     N_R   0.603254 0.869724 0.379526 0.232823
O57   O     O_R   0.607687 0.907531 0.333399 -0.332176
O58   O     O_R   0.582305 0.827129 0.359289 -0.361943
N50   N     N_R   0.358127 0.043550 0.608821 0.225132
O59   O     O_R   0.349335 0.998774 0.579755 -0.391114
O60   O     O_R   0.364661 0.046328 0.678535 -0.381567
N51   N     N_R   0.396718 0.130254 0.379507 0.232818
O61   O     O_R   0.392298 0.092440 0.333402 -0.332114
O62   O     O_R   0.417653 0.172854 0.359242 -0.361977
N52   N     N_R   0.641881 0.956421 0.608790 0.225137
O63   O     O_R   0.650724 0.001187 0.579713 -0.391113
O64   O     O_R   0.635323 0.953649 0.678502 -0.381562
C113  C     C_3   0.809297 0.310403 0.608388 -0.376567
C114  C     C_3   0.778372 0.348199 0.652331 -0.312525
C115  C     C_3   0.753015 0.321201 0.715070 -0.867231
H57   H     H_    0.727166 0.292261 0.693952 0.263239
H58   H     H_    0.779451 0.301779 0.750928 0.273213
H59   H     H_    0.732934 0.350170 0.747507 0.264724
H60   H     H_    0.801005 0.379744 0.674569 0.275040
H61   H     H_    0.750885 0.365853 0.616357 0.235345
H62   H     H_    0.786487 0.277440 0.591784 0.201639
H63   H     H_    0.837149 0.293002 0.643492 0.247611
C116  C     C_3   0.211507 0.623784 0.352565 -0.355263
C117  C     C_3   0.190632 0.659230 0.293784 -0.302641
C118  C     C_3   0.220389 0.657133 0.224461 -0.873116
H64   H     H_    0.257772 0.669540 0.235554 0.267439
H65   H     H_    0.220552 0.617236 0.202075 0.274944
H66   H     H_    0.204685 0.683579 0.183390 0.252381
H67   H     H_    0.153441 0.647244 0.280932 0.284532
H68   H     H_    0.189694 0.699830 0.313511 0.226950
H69   H     H_    0.249065 0.635047 0.363982 0.205524
H70   H     H_    0.214594 0.583686 0.331807 0.244062
C119  C     C_3   0.190745 0.689543 0.608358 -0.376912
C120  C     C_3   0.221551 0.651719 0.652454 -0.312484
C121  C     C_3   0.246822 0.678704 0.715273 -0.867044
H71   H     H_    0.272706 0.707647 0.694249 0.263199
H72   H     H_    0.220333 0.698124 0.751043 0.273219
H73   H     H_    0.266847 0.649727 0.747778 0.264719
H74   H     H_    0.198855 0.620203 0.674635 0.275183
H75   H     H_    0.249083 0.634025 0.616598 0.235286
H76   H     H_    0.213659 0.722418 0.591734 0.201710
H77   H     H_    0.162893 0.707057 0.643348 0.247601
C122  C     C_3   0.788470 0.376247 0.352646 -0.355320
C123  C     C_3   0.809340 0.340840 0.293824 -0.302583
C124  C     C_3   0.779558 0.342960 0.224531 -0.873145
H78   H     H_    0.742185 0.330529 0.235652 0.267427
H79   H     H_    0.779372 0.382868 0.202173 0.274963
H80   H     H_    0.795261 0.316544 0.183426 0.252376
H81   H     H_    0.846522 0.352850 0.280943 0.284544
H82   H     H_    0.810300 0.300231 0.313523 0.226976
H83   H     H_    0.750920 0.364958 0.364090 0.205480
H84   H     H_    0.785365 0.416357 0.331923 0.244053
C125  C     C_3   0.190601 0.310394 0.391462 -0.376520
C126  C     C_3   0.221500 0.348206 0.347486 -0.312559
C127  C     C_3   0.246840 0.321226 0.284728 -0.867274
H85   H     H_    0.272716 0.292307 0.305829 0.263225
H86   H     H_    0.220397 0.301782 0.248910 0.273207
H87   H     H_    0.266888 0.350207 0.252257 0.264739
H88   H     H_    0.198851 0.379746 0.325266 0.275069
H89   H     H_    0.248998 0.365867 0.383433 0.235336
H90   H     H_    0.213421 0.277427 0.408027 0.201689
H91   H     H_    0.162727 0.293005 0.356390 0.247616
C128  C     C_3   0.788364 0.623733 0.647151 -0.355153
C129  C     C_3   0.809133 0.659210 0.705970 -0.302783
C130  C     C_3   0.779194 0.657216 0.775120 -0.873757
H92   H     H_    0.741838 0.669593 0.763760 0.267625
H93   H     H_    0.778982 0.617356 0.797646 0.274872
H94   H     H_    0.794779 0.683740 0.816186 0.252343
H95   H     H_    0.846282 0.647189 0.719053 0.284060
H96   H     H_    0.810162 0.699791 0.686167 0.227144
H97   H     H_    0.750810 0.634949 0.635607 0.205564
H98   H     H_    0.785291 0.583636 0.667933 0.244045
C131  C     C_3   0.809364 0.689565 0.391446 -0.376546
C132  C     C_3   0.778482 0.651740 0.347483 -0.312551
C133  C     C_3   0.753130 0.678712 0.284725 -0.867293
H99   H     H_    0.727243 0.707619 0.305825 0.263230
H100  H     H_    0.779565 0.698168 0.248896 0.273213
H101  H     H_    0.733093 0.649722 0.252265 0.264740
H102  H     H_    0.801146 0.620213 0.325265 0.275089
H103  H     H_    0.750993 0.634063 0.383439 0.235335
H104  H     H_    0.786527 0.722519 0.408006 0.201692
H105  H     H_    0.837232 0.706970 0.356368 0.247613
C134  C     C_3   0.211628 0.376226 0.647133 -0.355162
C135  C     C_3   0.190854 0.340757 0.705973 -0.302777
C136  C     C_3   0.220800 0.342743 0.775110 -0.873767
H106  H     H_    0.258152 0.330355 0.763740 0.267620
H107  H     H_    0.221024 0.382604 0.797620 0.274871
H108  H     H_    0.205212 0.316225 0.816193 0.252348
H109  H     H_    0.153710 0.352789 0.719066 0.284075
H110  H     H_    0.189813 0.300175 0.686186 0.227147
H111  H     H_    0.249178 0.365000 0.635580 0.205556
H112  H     H_    0.214710 0.416324 0.667897 0.244041
C137  C     C_3   0.309232 0.810468 0.608259 -0.376304
C138  C     C_3   0.277611 0.848204 0.651138 -0.313641
C139  C     C_3   0.252188 0.821404 0.713979 -0.866341
H113  H     H_    0.226758 0.791990 0.692996 0.263113
H114  H     H_    0.278618 0.802590 0.750479 0.273170
H115  H     H_    0.231624 0.850386 0.745689 0.264661
H116  H     H_    0.299781 0.880231 0.673122 0.274484
H117  H     H_    0.250141 0.865186 0.614502 0.235455
H118  H     H_    0.286964 0.777053 0.591727 0.201700
H119  H     H_    0.337005 0.793724 0.644119 0.247851
C140  C     C_3   0.711529 0.123794 0.352596 -0.355313
C141  C     C_3   0.690642 0.159203 0.293781 -0.302530
C142  C     C_3   0.720401 0.157084 0.224461 -0.873054
H120  H     H_    0.757777 0.169519 0.235540 0.267391
H121  H     H_    0.720585 0.117174 0.202120 0.274971
H122  H     H_    0.704683 0.183495 0.183358 0.252378
H123  H     H_    0.653456 0.147198 0.280937 0.284593
H124  H     H_    0.689692 0.199812 0.313472 0.226934
H125  H     H_    0.749076 0.135097 0.364022 0.205454
H126  H     H_    0.714648 0.083688 0.331877 0.244054
C143  C     C_3   0.690729 0.189542 0.608371 -0.376586
C144  C     C_3   0.721625 0.151721 0.652326 -0.312468
C145  C     C_3   0.746986 0.178697 0.715066 -0.867285
H127  H     H_    0.772848 0.207629 0.693950 0.263247
H128  H     H_    0.720552 0.198126 0.750919 0.273216
H129  H     H_    0.767050 0.149715 0.747506 0.264727
H130  H     H_    0.698973 0.120187 0.674564 0.275070
H131  H     H_    0.749109 0.134054 0.616359 0.235339
H132  H     H_    0.713562 0.222490 0.591768 0.201643
H133  H     H_    0.662881 0.206961 0.643464 0.247603
C146  C     C_3   0.288487 0.876247 0.352568 -0.355420
C147  C     C_3   0.309354 0.840871 0.293706 -0.302473
C148  C     C_3   0.279559 0.843014 0.224428 -0.873133
H134  H     H_    0.242193 0.830560 0.235551 0.267400
H135  H     H_    0.279353 0.882934 0.202113 0.274976
H136  H     H_    0.295265 0.816628 0.183288 0.252389
H137  H     H_    0.346531 0.852894 0.280819 0.284562
H138  H     H_    0.310325 0.800253 0.313373 0.226979
H139  H     H_    0.250943 0.864937 0.364022 0.205393
H140  H     H_    0.285369 0.916366 0.331883 0.244056
C149  C     C_3   0.690599 0.810398 0.391456 -0.376507
C150  C     C_3   0.721491 0.848205 0.347461 -0.312582
C151  C     C_3   0.746821 0.821217 0.284701 -0.867276
H141  H     H_    0.772702 0.792301 0.305799 0.263223
H142  H     H_    0.720372 0.801768 0.248897 0.273212
H143  H     H_    0.766863 0.850194 0.252214 0.264732
H144  H     H_    0.698839 0.879743 0.325242 0.275065
H145  H     H_    0.748994 0.865869 0.383394 0.235326
H146  H     H_    0.713419 0.777433 0.408023 0.201689
H147  H     H_    0.662719 0.793007 0.356397 0.247618
C152  C     C_3   0.288317 0.123667 0.647107 -0.355147
C153  C     C_3   0.309059 0.159142 0.705950 -0.302757
C154  C     C_3   0.279092 0.157138 0.775072 -0.873822
H148  H     H_    0.241738 0.169501 0.763678 0.267637
H149  H     H_    0.278884 0.117278 0.797598 0.274878
H150  H     H_    0.294652 0.183669 0.816153 0.252335
H151  H     H_    0.346205 0.147126 0.719063 0.284006
H152  H     H_    0.310091 0.199726 0.686156 0.227156
H153  H     H_    0.250763 0.134873 0.635541 0.205554
H154  H     H_    0.285250 0.083566 0.667875 0.244040
C155  C     C_3   0.309362 0.189557 0.391442 -0.376532
C156  C     C_3   0.278487 0.151738 0.347457 -0.312572
C157  C     C_3   0.253145 0.178720 0.284698 -0.867294
H155  H     H_    0.227255 0.207624 0.305798 0.263227
H156  H     H_    0.279585 0.198183 0.248885 0.273218
H157  H     H_    0.233113 0.149736 0.252222 0.264732
H158  H     H_    0.301155 0.120216 0.325237 0.275085
H159  H     H_    0.250993 0.134056 0.383397 0.235320
H160  H     H_    0.286523 0.222508 0.408005 0.201688
H161  H     H_    0.337235 0.206967 0.356378 0.247614
C158  C     C_3   0.711664 0.876282 0.647095 -0.355181
C159  C     C_3   0.690914 0.840810 0.705951 -0.302757
C160  C     C_3   0.720877 0.842811 0.775071 -0.873863
H162  H     H_    0.758231 0.830442 0.763677 0.267640
H163  H     H_    0.721089 0.882672 0.797581 0.274855
H164  H     H_    0.705313 0.816284 0.816161 0.252360
H165  H     H_    0.653769 0.852831 0.719063 0.284008
H166  H     H_    0.689879 0.800226 0.686171 0.227171
H167  H     H_    0.749216 0.865069 0.635524 0.205554
H168  H     H_    0.714737 0.916382 0.667850 0.244039

loop_
_geom_bond_atom_site_label_1
_geom_bond_atom_site_label_2
_geom_bond_distance
_ccdc_geom_bond_type
C93   H11   1.108859 S    
C145  H129  1.110280 S    
C111  H54   1.106643 S    
C50   C62   1.408841 A    
C151  H142  1.110799 S    
C109  H43   1.110900 S    
C158  H168  1.108332 S    
C109  H45   1.110314 S    
C120  H75   1.112242 S    
C118  H64   1.110933 S    
C104  H42   1.110582 S    
C103  H30   1.110901 S    
C153  C154  1.525202 S    
C91   H2    1.110902 S    
C104  H41   1.110837 S    
C10   C18   1.430232 A    
O16   Zn3   1.974232 S    
C144  H131  1.112248 S    
C135  H109  1.109357 S    
C18   N30   1.436787 S    
N9    N12   1.336868 A    
N40   O40   1.300032 A    
N31   O21   1.293723 A    
C38   N50   1.439027 S    
N38   O35   1.298938 A    
C134  H111  1.108548 S    
N48   O55   1.298952 A    
C125  H90   1.107012 S    
C96   C97   1.525439 S    
C43   C58   1.412033 A    
C148  H135  1.110886 S    
C15   C107  1.525447 S    
C115  H57   1.110041 S    
N15   C77   1.355927 A    
C20   N32   1.436792 S    
C99   H26   1.106658 S    
C152  H153  1.108544 S    
C100  H22   1.110893 S    
C68   C87   1.506968 S    
O2    Zn2   1.974256 S    
C94   H9    1.110897 S    
C56   C63   1.408876 A    
C155  H160  1.107023 S    
C39   C76   1.412909 A    
C106  H37   1.110895 S    
N42   O43   1.298944 A    
C136  H108  1.110266 S    
C102  C103  1.525438 S    
C98   C99   1.539906 S    
N30   O19   1.293693 A    
N6    C65   1.359489 A    
C44   C122  1.523320 S    
C160  H164  1.110261 S    
C22   N34   1.436789 S    
C95   C96   1.539618 S    
C28   C44   1.409914 A    
C97   H15   1.110900 S    
C150  H145  1.112253 S    
C147  H137  1.109284 S    
C128  H98   1.108327 S    
C34   C50   1.409941 A    
C136  H107  1.110900 S    
C95   H21   1.110569 S    
C128  H97   1.108541 S    
C2    C72   1.483509 S    
N50   O59   1.298942 A    
C26   N38   1.439055 S    
C13   C87   1.415792 A    
N46   O52   1.300034 A    
C14   C88   1.416527 A    
C63   C84   1.455325 S    
C61   C82   1.455292 S    
C117  C118  1.525204 S    
N32   O23   1.293699 A    
C118  H66   1.110292 S    
C45   C59   1.411952 A    
C29   N41   1.431936 S    
C27   C70   1.412922 A    
C31   C72   1.412915 A    
N43   O46   1.301441 A    
C131  H105  1.107195 S    
C33   C73   1.412725 A    
C19   N31   1.436742 S    
C143  H132  1.106983 S    
Zn1   N2    1.995112 S    
O6    Zn1   1.974131 S    
C113  H62   1.107002 S    
C42   C58   1.408877 A    
O11   Zn3   1.974225 S    
Zn3   N4    1.995112 S    
N22   C81   1.353051 A    
N52   O64   1.300011 A    
C116  H69   1.108522 S    
C108  H46   1.109117 S    
C67   C88   1.508109 S    
C52   C61   1.408766 A    
C132  C133  1.524971 S    
C55   C155  1.528072 S    
C105  C106  1.525428 S    
C124  H78   1.110927 S    
C134  C135  1.534028 S    
C159  H165  1.109364 S    
C52   C146  1.523297 S    
C149  C150  1.535116 S    
N47   O53   1.301262 A    
C141  C142  1.525205 S    
C117  H67   1.109289 S    
C35   C51   1.406095 A    
C154  H148  1.110928 S    
N19   N25   1.327431 A    
C17   N29   1.436730 S    
C152  C153  1.534041 S    
O9    C5    1.288142 A    
C148  H134  1.110927 S    
C37   C75   1.412915 A    
C133  H101  1.110297 S    
C157  H156  1.110779 S    
C53   C149  1.528079 S    
C155  C156  1.535119 S    
C23   N35   1.436726 S    
C14   C22   1.430254 A    
C114  H61   1.112241 S    
C115  H58   1.110778 S    
N33   O26   1.298500 A    
N41   O41   1.301256 A    
C146  C147  1.534038 S    
C7    C73   1.483549 S    
C50   C140  1.523333 S    
O13   C7    1.287877 A    
N37   O33   1.301281 A    
N10   N11   1.336868 A    
C25   C41   1.406102 A    
C137  H119  1.107114 S    
C9    C89   1.525449 S    
N42   O44   1.300016 A    
C107  H49   1.110566 S    
C142  H122  1.110295 S    
C25   N37   1.431929 S    
C112  H50   1.110893 S    
C44   C57   1.408841 A    
C89   H6    1.110902 S    
C124  H80   1.110305 S    
C146  H139  1.108564 S    
N49   O57   1.301254 A    
C55   C64   1.411947 A    
C21   N33   1.436726 S    
C92   H13   1.110847 S    
C153  H151  1.109364 S    
C101  H34   1.110908 S    
C135  C136  1.525199 S    
C11   C19   1.430038 A    
C30   C72   1.421812 A    
C130  H93   1.110885 S    
C9    C85   1.415851 A    
O8    C3    1.296222 A    
C123  H82   1.111084 S    
C98   H28   1.110605 S    
C97   H17   1.110310 S    
C49   C137  1.527844 S    
C14   C104  1.525675 S    
C46   C60   1.408876 A    
C149  H146  1.107014 S    
C110  H56   1.110603 S    
C11   C95   1.525467 S    
C107  C108  1.539585 S    
C10   C86   1.416459 A    
C31   N43   1.431943 S    
C127  H86   1.110801 S    
C119  H77   1.107187 S    
C157  H155  1.110046 S    
C139  H115  1.110289 S    
C113  C114  1.535111 S    
C141  H124  1.111096 S    
C96   H19   1.106811 S    
N45   O50   1.301463 A    
C150  C151  1.524982 S    
C64   C83   1.455346 S    
C90   H5    1.106793 S    
O15   C8    1.288048 A    
C122  H83   1.108540 S    
C47   C131  1.528074 S    
C154  H150  1.110285 S    
N4    C22   1.380711 A    
C102  H32   1.109129 S    
C121  H72   1.110794 S    
C111  H53   1.108805 S    
C8    C74   1.483620 S    
C129  H95   1.109354 S    
N25   C84   1.355906 A    
C12   C98   1.525646 S    
O15   Zn4   1.974228 S    
N35   O29   1.293723 A    
C148  H136  1.110308 S    
C37   C53   1.406024 A    
C26   C42   1.409922 A    
C142  H121  1.110904 S    
C93   H12   1.106637 S    
C145  H128  1.110793 S    
C30   C46   1.409921 A    
Zn4   N3    1.995112 S    
C147  C148  1.525198 S    
C158  H167  1.108553 S    
C109  H44   1.110919 S    
N44   O47   1.298927 A    
O16   C7    1.296355 A    
C25   C69   1.412883 A    
O1    C1    1.288145 A    
N15   N21   1.327445 A    
C39   N51   1.431940 S    
C101  H35   1.110555 S    
C38   C76   1.421817 A    
C135  H110  1.111080 S    
C53   C63   1.411947 A    
C132  H102  1.110163 S    
N23   C81   1.355899 A    
N38   O36   1.300028 A    
N48   O56   1.300034 A    
C127  H87   1.110280 S    
C43   C119  1.528115 S    
N13   C78   1.353045 A    
N34   O27   1.293692 A    
C36   C73   1.421983 A    
N51   O61   1.301277 A    
C56   C158  1.523276 S    
C41   C113  1.528069 S    
C156  H158  1.110165 S    
C28   C69   1.421885 A    
N10   C67   1.359496 A    
C60   C79   1.455338 S    
C27   C43   1.406137 A    
C140  H126  1.108355 S    
N35   O30   1.298494 A    
Zn2   N1    1.995112 S    
N26   C83   1.353028 A    
C121  H71   1.110057 S    
C33   N45   1.431756 S    
C89   C90   1.539611 S    
C140  C141  1.534048 S    
N17   C80   1.353029 A    
C106  H36   1.110909 S    
O10   C6    1.296072 A    
N29   O18   1.298496 A    
C66   C85   1.507079 S    
C131  C132  1.535120 S    
N20   N26   1.327437 A    
C12   C86   1.416476 A    
C29   C71   1.412926 A    
N30   O20   1.298452 A    
C32   N44   1.439011 S    
C160  H163  1.110902 S    
O2    C2    1.296082 A    
C105  H39   1.108830 S    
O3    Zn1   1.974225 S    
C139  H113  1.109975 S    
C159  C160  1.525201 S    
N8    C65   1.359493 A    
N31   O22   1.298483 A    
C114  C115  1.524980 S    
C101  C102  1.539576 S    
C147  H138  1.111091 S    
C95   H20   1.110913 S    
N3    C23   1.380862 A    
C133  H99   1.110044 S    
N4    C24   1.380690 A    
C26   C70   1.421878 A    
N16   C78   1.355903 A    
C138  H116  1.110395 S    
C57   C78   1.455352 S    
C35   N47   1.431946 S    
N39   O38   1.301453 A    
C158  C159  1.534029 S    
C151  H143  1.110279 S    
N36   O32   1.298448 A    
C32   C48   1.409915 A    
C138  C139  1.524933 S    
N32   O24   1.298450 A    
C120  H74   1.110121 S    
C118  H65   1.110905 S    
C103  H31   1.110310 S    
C51   C143  1.528072 S    
C13   C101  1.525426 S    
C59   C80   1.455337 S    
C36   C52   1.409944 A    
C91   H3    1.110308 S    
C40   N52   1.439003 S    
C36   N48   1.439052 S    
C15   C87   1.415791 A    
C126  C127  1.524983 S    
C131  H104  1.107024 S    
C144  H130  1.110152 S    
C16   C88   1.416548 A    
C54   C152  1.523286 S    
N40   O39   1.298952 A    
C94   H8    1.110908 S    
C51   C62   1.411999 A    
C134  H112  1.108332 S    
C130  H94   1.110287 S    
C11   C85   1.415859 A    
C116  C117  1.534044 S    
N1    C17   1.380847 A    
C33   C49   1.405940 A    
C128  C129  1.534043 S    
N17   N27   1.327426 A    
C108  H47   1.106828 S    
C99   H25   1.108847 S    
C129  C130  1.525201 S    
C152  H154  1.108330 S    
C54   C64   1.408877 A    
C39   C55   1.406024 A    
O4    C1    1.296075 A    
C155  H161  1.107195 S    
C29   C45   1.406035 A    
O7    Zn2   1.974228 S    
C159  H166  1.111077 S    
N6    N7    1.336870 A    
C34   N46   1.439072 S    
N13   N23   1.327435 A    
C90   C91   1.525441 S    
C136  H106  1.110931 S    
C106  H38   1.110267 S    
C117  H68   1.111091 S    
N12   C67   1.359502 A    
C120  C121  1.525036 S    
N27   C83   1.355907 A    
N50   O60   1.300014 A    
N9    C68   1.359390 A    
C133  H100  1.110777 S    
C35   C74   1.412904 A    
C144  C145  1.524983 S    
O5    C3    1.288031 A    
O6    C4    1.296195 A    
C48   C59   1.408882 A    
C41   C57   1.412007 A    
C150  H144  1.110159 S    
N33   O25   1.293713 A    
C99   C100  1.525428 S    
C100  H24   1.110273 S    
N18   C79   1.355909 A    
N3    C21   1.380854 A    
C6    C76   1.483499 S    
C111  C112  1.525421 S    
C58   C77   1.455384 S    
C32   C71   1.421798 A    
C9    C17   1.430024 A    
C48   C134  1.523284 S    
C122  C123  1.534050 S    
C137  H118  1.107103 S    
N46   O51   1.298934 A    
O7    C4    1.288074 A    
C107  H48   1.110923 S    
C151  H141  1.110031 S    
O9    Zn3   1.974256 S    
O10   Zn4   1.974256 S    
C15   C23   1.430000 A    
C16   C24   1.430267 A    
C45   C125  1.528085 S    
C92   C93   1.539896 S    
N51   O62   1.301441 A    
C12   C20   1.430236 A    
C125  C126  1.535119 S    
C153  H152  1.111069 S    
C91   H1    1.110909 S    
N7    C66   1.359401 A    
C127  H85   1.110029 S    
C143  C144  1.535109 S    
O1    Zn1   1.974256 S    
C145  H127  1.110036 S    
C31   C47   1.406033 A    
C119  C120  1.535126 S    
C30   N42   1.439018 S    
N28   C84   1.353028 A    
C143  H133  1.107177 S    
C105  H40   1.106623 S    
N24   C82   1.355886 A    
C113  H63   1.107175 S    
C98   H27   1.110841 S    
C97   H16   1.110919 S    
N52   O63   1.298925 A    
N1    C19   1.380856 A    
C116  H70   1.108339 S    
N2    C20   1.380711 A    
O14   C8    1.296220 A    
N19   C79   1.353025 A    
O3    C2    1.288128 A    
C110  H55   1.110831 S    
C156  C157  1.524970 S    
C24   N36   1.436759 S    
C119  H76   1.106965 S    
C104  C105  1.539932 S    
C139  H114  1.110787 S    
O12   Zn4   1.974224 S    
N45   O49   1.301253 A    
C96   H18   1.109092 S    
N18   N28   1.327431 A    
C16   C110  1.525673 S    
C154  H149  1.110886 S    
C102  H33   1.106810 S    
C28   N40   1.439047 S    
C42   C116  1.523346 S    
C129  H96   1.111071 S    
C65   C86   1.507997 S    
C34   C74   1.421921 A    
C4    C70   1.483618 S    
C40   C56   1.409908 A    
C157  H157  1.110298 S    
O4    Zn2   1.974224 S    
C62   C81   1.455348 S    
C114  H60   1.110166 S    
C115  H59   1.110299 S    
O13   Zn4   1.974135 S    
N14   N24   1.327415 A    
O14   Zn3   1.974131 S    
N41   O42   1.301463 A    
N44   O48   1.300015 A    
C124  H79   1.110886 S    
C123  H81   1.109288 S    
O12   C5    1.296062 A    
N11   C68   1.359390 A    
N37   O34   1.301442 A    
N36   O31   1.293682 A    
C49   C61   1.411862 A    
C112  H52   1.110272 S    
C40   C75   1.421789 A    
C132  H103  1.112240 S    
C37   N49   1.431929 S    
O5    Zn2   1.974135 S    
C100  H23   1.110912 S    
N21   C82   1.353042 A    
C112  H51   1.110911 S    
C47   C60   1.411955 A    
C5    C75   1.483499 S    
C89   H7    1.110558 S    
C146  H140  1.108359 S    
N34   O28   1.298446 A    
N49   O58   1.301465 A    
C92   H14   1.110578 S    
N43   O45   1.301279 A    
C38   C54   1.409928 A    
C156  H159  1.112240 S    
C125  H91   1.107194 S    
C93   C94   1.525430 S    
C137  C138  1.534947 S    
C94   H10   1.110271 S    
N47   O54   1.301457 A    
C140  H125  1.108544 S    
C46   C128  1.523294 S    
C10   C92   1.525650 S    
C27   N39   1.431978 S    
N39   O37   1.301257 A    
N2    C18   1.380717 A    
N29   O17   1.293709 A    
O11   C6    1.288129 A    
C149  H147  1.107196 S    
C123  C124  1.525198 S    
C1    C71   1.483524 S    
N16   N22   1.327435 A    
C3    C69   1.483587 S    
C160  H162  1.110931 S    
C142  H120  1.110929 S    
C13   C21   1.429998 A    
N5    N8    1.336874 A    
C141  H123  1.109284 S    
O8    Zn1   1.974232 S    
C108  C109  1.525439 S    
N14   C77   1.353036 A    
C90   H4    1.109106 S    
C126  H88   1.110156 S    
C122  H84   1.108352 S    
N20   C80   1.355907 A    
C121  H73   1.110283 S    
C110  C111  1.539931 S    
C130  H92   1.110929 S    
N5    C66   1.359404 A    
C126  H89   1.112251 S    
C103  H29   1.110909 S    
C138  H117  1.112268 S    
