data_mof_unit_9543.cif
_audit_creation_date              2012-12-10T17:37:18-0500
_audit_creation_method            fapswitch 2.2
_symmetry_space_group_name_H-M    P1
_symmetry_Int_Tables_number       1
_space_group_crystal_system       triclinic
_cell_length_a                    12.333587
_cell_length_b                    13.150774
_cell_length_c                    15.844571
_cell_angle_alpha                 77.920635
_cell_angle_beta                  101.100819
_cell_angle_gamma                 116.673104
_cell_volume                      2231.25552001

loop_
_atom_site_label
_atom_site_type_symbol
_atom_type_description
_atom_site_fract_x
_atom_site_fract_y
_atom_site_fract_z
_atom_type_partial_charge
C1    C     C_R   0.855029 0.286550 0.506963 0.826678
C2    C     C_3   0.000123 0.499867 0.917144 0.180283
C3    C     C_3   0.115173 0.534694 0.038003 0.045978
C4    C     C_3   0.002156 0.499966 0.083258 0.174595
C5    C     C_3   0.069662 0.607101 0.963241 -0.220647
C6    C     C_3   0.955163 0.571740 0.009337 -0.178462
C7    C     C_1   0.998974 0.499789 0.825265 -0.062886
C8    C     C_1   0.001442 0.499674 0.174971 -0.007359
C9    C     C_R   0.278566 0.017558 0.376283 -0.170103
C10   C     C_R   0.228130 0.834904 0.468418 -0.047063
C11   C     C_R   0.813886 0.086597 0.568032 -0.203123
C12   C     C_R   0.999434 0.499752 0.659933 0.819439
C13   C     C_R   0.733948 0.972535 0.587999 -0.142182
C14   C     C_R   0.611354 0.934585 0.555947 -0.158929
C15   C     C_R   0.566883 0.009576 0.498927 0.042108
C16   C     C_R   0.652337 0.121854 0.468677 0.086116
C17   C     C_R   0.440692 0.975812 0.469826 0.076365
C18   C     C_R   0.402915 0.049755 0.405528 0.137589
C19   C     C_R   0.489699 0.152287 0.367776 -0.279413
C20   C     C_R   0.613756 0.186958 0.396146 0.145591
C21   C     C_R   0.350440 0.870264 0.502561 -0.232105
C22   C     C_R   0.191491 0.910123 0.407136 -0.190384
C23   C     C_R   0.145135 0.713557 0.487370 0.793396
C24   C     C_R   0.773760 0.163195 0.511118 -0.080206
C25   C     C_R   0.343107 0.325588 0.636722 -0.309017
C26   C     C_R   0.760668 0.646354 0.384013 -0.027502
C27   C     C_R   0.664775 0.679235 0.358482 -0.053814
C28   C     C_R   0.560605 0.622888 0.402768 -0.147692
C29   C     C_R   0.551731 0.534093 0.472667 -0.062291
C30   C     C_R   0.652778 0.504768 0.496026 0.229635
C31   C     C_R   0.446985 0.473906 0.520320 -0.055635
C32   C     C_R   0.445294 0.385199 0.589930 0.124579
C33   C     C_R   0.546011 0.357975 0.611892 0.075498
C34   C     C_R   0.000454 0.500085 0.340094 0.840725
C35   C     C_R   0.646794 0.417708 0.566039 -0.153163
C36   C     C_R   0.342869 0.497836 0.502040 0.046209
C37   C     C_R   0.244600 0.353659 0.615381 0.079013
C38   C     C_3   0.932884 0.392988 0.036718 -0.175006
C39   C     C_3   0.885715 0.464711 0.961533 -0.136500
C40   C     C_1   0.998738 0.499783 0.749603 -0.174680
C41   C     C_1   0.001026 0.499742 0.250502 -0.145917
C42   C     C_3   0.047339 0.427977 0.990667 -0.224639
Cu1   Cu    Cu3+1 0.098270 0.475420 0.519690 0.947710
Cu2   Cu    Cu3+1 0.901730 0.524580 0.480310 0.929988
H1    H     H_    0.790963 0.435824 0.928551 0.132684
H2    H     H_    0.372511 0.811921 0.553553 0.141534
H3    H     H_    0.906706 0.115708 0.599631 0.150258
H4    H     H_    0.554668 0.845239 0.575572 0.128427
H5    H     H_    0.766180 0.914052 0.631557 0.141306
H6    H     H_    0.166050 0.307763 0.651308 0.120657
H7    H     H_    0.338141 0.257485 0.689855 0.135391
H8    H     H_    0.335987 0.563241 0.450562 0.133890
H9    H     H_    0.841606 0.689187 0.350409 0.121280
H10   H     H_    0.876661 0.305220 0.067943 0.141534
H11   H     H_    0.488218 0.650130 0.381456 0.183365
H12   H     H_    0.719344 0.392656 0.588462 0.218451
H13   H     H_    0.917192 0.630566 0.018100 0.136624
H14   H     H_    0.126173 0.694848 0.932115 0.135456
H15   H     H_    0.085631 0.369368 0.981946 0.134214
H16   H     H_    0.096895 0.883722 0.379866 0.143721
H17   H     H_    0.461578 0.204639 0.313944 0.147320
H18   H     H_    0.249235 0.073651 0.326986 0.136462
N1    N     N_R   0.246280 0.438200 0.549540 -0.183640
N2    N     N_R   0.754330 0.561180 0.450980 -0.197484
O1    O     O_R   0.972510 0.318130 0.524770 -0.591614
O2    O     O_R   0.806530 0.359650 0.491510 -0.585210
O3    O     O_R   0.082970 0.479240 0.637550 -0.580290
O4    O     O_R   0.916990 0.520750 0.604290 -0.592758
O5    O     O_R   0.193470 0.640350 0.508490 -0.585756
O6    O     O_R   0.027490 0.681870 0.475230 -0.585672
O7    O     O_R   0.083010 0.479250 0.395710 -0.563150
O8    O     O_R   0.917030 0.520760 0.362450 -0.587640
N3    N     N_3   0.699959 0.281002 0.344699 -0.575826
H19   H     H_    0.679964 0.351884 0.337706 0.245030
H20   H     H_    0.687041 0.258551 0.282797 0.210552
N4    N     N_3   0.549573 0.269514 0.681415 -0.606038
H21   H     H_    0.540438 0.289770 0.739273 0.219776
H22   H     H_    0.476844 0.191418 0.668287 0.226956
C43   C     C_2   0.675197 0.772811 0.285467 0.367753
H23   H     H_    0.756789 0.815031 0.252213 0.044603
O9    O     O_2   0.593324 0.804027 0.261542 -0.518268
C44   C     C_2   0.245014 0.574275 0.078498 0.348942
H24   H     H_    0.316725 0.596368 0.038516 0.062223
O10   O     O_2   0.270906 0.581905 0.155915 -0.517841

loop_
_geom_bond_atom_site_label_1
_geom_bond_atom_site_label_2
_ccdc_geom_bond_type
C3    C42   S    
C30   N2    A    
N3    H19   S    
C23   O5    A    
Cu2   O2    S    
C19   C20   A    
C6    H13   S    
C4    C8    S    
Cu1   N1    S    
Cu2   N2    S    
C12   O4    A    
C26   C27   A    
C5    H14   S    
C28   C29   A    
N4    H22   S    
C38   C42   S    
C27   C43   S    
C22   H16   S    
C38   C39   S    
C19   H17   S    
C9    C22   A    
C15   C16   A    
C11   C24   A    
C18   C19   A    
C26   N2    A    
C25   C37   A    
C11   H3    S    
C2    C39   S    
C2    C7    S    
C1    O1    A    
C7    C40   T    
Cu2   O6    S    
C36   N1    A    
C36   H8    S    
Cu1   O1    S    
C39   H1    S    
C25   C32   A    
C16   C24   A    
C13   C14   A    
N3    H20   S    
C23   O6    A    
C34   C41   S    
C37   N1    A    
C28   H11   S    
C1    O2    A    
C10   C21   A    
C12   O3    A    
C9    H18   S    
C8    C41   T    
C4    C6    S    
C43   O9    D    
C14   H4    S    
C10   C22   A    
C17   C21   A    
C12   C40   S    
Cu1   Cu2   S    
C25   H7    S    
C29   C30   A    
C33   N4    S    
C31   C32   A    
C38   H10   S    
C16   C20   A    
C6    C39   S    
C3    C44   S    
C17   C18   A    
N4    H21   S    
C13   H5    S    
C30   C35   A    
C4    C38   S    
C44   O10   D    
Cu2   O4    S    
C2    C5    S    
C3    C4    S    
C26   H9    S    
C34   O8    A    
C21   H2    S    
C15   C17   A    
Cu1   O7    S    
C35   H12   S    
C14   C15   A    
C3    C5    S    
C42   H15   S    
C10   C23   S    
C32   C33   A    
C29   C31   A    
C37   H6    S    
C11   C13   A    
C5    C6    S    
C2    C42   S    
C33   C35   A    
C20   N3    S    
Cu2   O8    S    
C43   H23   S    
C9    C18   A    
C1    C24   S    
Cu1   O3    S    
C44   H24   S    
C27   C28   A    
C31   C36   A    
Cu1   O5    S    
C34   O7    A    
