data_mof_unit_13684.cif
_audit_creation_date              2012-12-10T16:58:25-0500
_audit_creation_method            fapswitch 2.2
_symmetry_space_group_name_H-M    P1
_symmetry_Int_Tables_number       1
_space_group_crystal_system       triclinic
_cell_length_a                    7.803679
_cell_length_b                    8.543333
_cell_length_c                    23.412037
_cell_angle_alpha                 92.040287
_cell_angle_beta                  85.160507
_cell_angle_gamma                 93.512728
_cell_volume                      1551.65352045

loop_
_atom_site_label
_atom_site_type_symbol
_atom_type_description
_atom_site_fract_x
_atom_site_fract_y
_atom_site_fract_z
_atom_type_partial_charge
C1    C     C_R   0.545510 0.794549 0.498576 0.977868
C2    C     C_R   0.454490 0.205451 0.501424 0.977868
C3    C     C_R   0.655475 0.461464 0.756577 0.045122
C4    C     C_R   0.344530 0.538530 0.243423 0.045116
C5    C     C_R   0.652869 0.461426 0.697244 -0.238868
C6    C     C_R   0.347139 0.538582 0.302755 -0.238868
C7    C     C_R   0.504517 0.502502 0.672662 -0.050579
C8    C     C_R   0.495481 0.497489 0.327338 -0.050578
C9    C     C_R   0.359283 0.545281 0.707792 -0.197498
C10   C     C_R   0.640704 0.454680 0.292209 -0.197498
C11   C     C_R   0.362213 0.546799 0.766894 -0.097895
C12   C     C_R   0.637773 0.453151 0.233107 -0.097899
C13   C     C_R   0.509260 0.504498 0.791297 0.260661
C14   C     C_R   0.490734 0.495469 0.208703 0.260668
C15   C     C_2   0.569602 0.958006 0.497743 -0.364360
C16   C     C_2   0.430398 0.041994 0.502257 -0.364360
C17   C     C_R   0.501287 0.500760 0.610542 0.885490
C18   C     C_R   0.498713 0.499238 0.389458 0.885488
C19   C     C_R   0.411857 0.375654 0.119752 0.531094
C20   C     C_R   0.588137 0.624311 0.880249 0.531096
C21   C     C_R   0.577228 0.620781 0.119963 0.543797
C22   C     C_R   0.422769 0.379183 0.880037 0.543800
C23   C     C_R   0.582574 0.625703 0.059980 -0.117201
C24   C     C_R   0.417423 0.374260 0.940020 -0.117199
C25   C     C_R   0.498915 0.500098 0.030058 -0.078208
C26   C     C_R   0.501081 0.499866 0.969942 -0.078209
C27   C     C_R   0.412459 0.374727 0.060200 -0.065315
C28   C     C_R   0.587536 0.625238 0.939800 -0.065316
C29   C     C_R   0.667022 0.751886 0.029229 0.531652
C30   C     C_R   0.332974 0.248078 0.970770 0.531653
C31   C     C_R   0.671529 0.748511 0.969450 -0.289422
C32   C     C_R   0.328467 0.251453 0.030550 -0.289424
H1    H     H_    0.741493 0.843435 0.946414 0.211644
H2    H     H_    0.258501 0.156530 0.053587 0.211643
H3    H     H_    0.765533 0.427612 0.670415 0.164919
H4    H     H_    0.234483 0.572419 0.329585 0.164920
H5    H     H_    0.243848 0.578108 0.689695 0.169579
H6    H     H_    0.756132 0.421839 0.310306 0.169579
H7    H     H_    0.250009 0.580071 0.793953 0.157732
H8    H     H_    0.749969 0.419859 0.206047 0.157723
H9    H     H_    0.701252 0.008649 0.493425 0.183072
H10   H     H_    0.298748 0.991351 0.506575 0.183072
N1    N     N_R   0.492870 0.497433 0.147930 -0.364146
N2    N     N_R   0.507126 0.502531 0.852070 -0.364145
N3    N     N_2   0.950330 0.457950 0.484560 -0.156153
N4    N     N_2   0.049670 0.542050 0.515440 -0.156153
O1    O     O_R   0.389250 0.738570 0.503790 -0.623270
O2    O     O_R   0.610750 0.261430 0.496210 -0.623271
O3    O     O_R   0.678390 0.711620 0.493890 -0.629204
O4    O     O_R   0.321610 0.288380 0.506110 -0.629205
O5    O     O_R   0.355400 0.513520 0.588790 -0.630557
O6    O     O_R   0.644600 0.486480 0.411210 -0.630556
O7    O     O_R   0.644550 0.486570 0.578900 -0.631238
O8    O     O_R   0.355450 0.513430 0.421100 -0.631238
O9    O     O_2   0.331815 0.255802 0.149519 -0.553116
O10   O     O_2   0.668176 0.744165 0.850482 -0.553116
O11   O     O_2   0.654399 0.737706 0.150539 -0.482519
O12   O     O_2   0.345601 0.262257 0.849461 -0.482517
Zn1   Zn    Zn3+2 0.306930 0.518000 0.506610 0.954696
Zn2   Zn    Zn3+2 0.693070 0.482000 0.493390 0.954696
O13   O     O_3   0.756552 0.872879 0.056897 -0.551889
C33   C     C_3   0.662702 0.009051 0.057701 -0.188723
H11   H     H_    0.726697 0.101363 0.084377 0.207338
H12   H     H_    0.528683 0.987425 0.077365 0.169200
H13   H     H_    0.661568 0.055261 0.013943 0.124356
O14   O     O_3   0.243443 0.127086 0.943103 -0.551888
C34   C     C_3   0.337287 0.990911 0.942301 -0.188724
H14   H     H_    0.471308 0.012532 0.922638 0.169199
H15   H     H_    0.273294 0.898599 0.915626 0.207338
H16   H     H_    0.338416 0.944703 0.986059 0.124357
C35   C     C_1   0.806989 0.414791 0.781345 0.191373
N5    N     N_1   0.928320 0.377279 0.801275 -0.150563
C36   C     C_1   0.193025 0.585221 0.218654 0.191363
N6    N     N_1   0.071701 0.622746 0.198724 -0.150536
C37   C     C_1   0.026391 0.349881 0.446463 0.391334
N7    N     N_1   0.087858 0.258978 0.414396 -0.240206
C38   C     C_1   0.973609 0.650119 0.553537 0.391331
N8    N     N_1   0.912142 0.741022 0.585604 -0.240206

loop_
_geom_bond_atom_site_label_1
_geom_bond_atom_site_label_2
_ccdc_geom_bond_type
N3    Zn2   S    
C17   O7    A    
N4    Zn1   S    
C36   N6    T    
C20   O10   S    
C17   O5    A    
C18   O6    A    
C38   N8    T    
O3    Zn2   S    
O6    Zn2   S    
O4    Zn1   S    
C23   C29   A    
C24   C26   A    
C15   C16   D    
C33   H12   S    
C2    O4    A    
C21   N1    A    
C22   N2    A    
C7    C17   S    
C31   H1    S    
C1    C15   S    
C19   C27   A    
C3    C13   A    
O14   C34   S    
C20   N2    A    
O7    Zn2   S    
C19   N1    A    
O2    Zn2   S    
O8    Zn1   S    
C29   O13   S    
C34   H14   S    
C15   H9    S    
C4    C6    A    
C5    C7    A    
C1    O1    A    
C6    C8    A    
C20   C28   A    
C2    O2    A    
C25   C26   A    
N3    N4    D    
C8    C18   S    
C34   H15   S    
C32   H2    S    
C12   H8    S    
C3    C35   S    
C37   N7    T    
C21   O11   S    
C33   H11   S    
C9    H5    S    
C11   H7    S    
C9    C11   A    
C4    C36   S    
C30   O14   S    
C10   C12   A    
C12   C14   A    
C21   C23   A    
C22   C24   A    
O5    Zn1   S    
C16   H10   S    
C2    C16   S    
C19   O9    S    
C7    C9    A    
C33   H13   S    
C27   C32   A    
C28   C31   A    
C3    C5    A    
C22   O12   S    
N4    C38   S    
C25   C27   A    
C26   C28   A    
N3    C37   S    
C10   H6    S    
C34   H16   S    
C35   N5    T    
C29   C31   A    
C30   C32   A    
C11   C13   A    
C5    H3    S    
C6    H4    S    
C23   C25   A    
C4    C14   A    
O13   C33   S    
C24   C30   A    
C18   O8    A    
O1    Zn1   S    
C8    C10   A    
C1    O3    A    
C13   N2    S    
C14   N1    S    
