data_mof_unit_42989.cif
_audit_creation_date              2012-12-11T14:38:21-0500
_audit_creation_method            fapswitch 2.2
_symmetry_space_group_name_H-M    P1
_symmetry_Int_Tables_number       1
_space_group_crystal_system       triclinic
_cell_length_a                    19.630497
_cell_length_b                    10.986554
_cell_length_c                    19.632528
_cell_angle_alpha                 90.001674
_cell_angle_beta                  95.723384
_cell_angle_gamma                 89.998255
_cell_volume                      4213.06948409

loop_
_atom_site_label
_atom_site_type_symbol
_atom_type_description
_atom_site_fract_x
_atom_site_fract_y
_atom_site_fract_z
_atom_type_partial_charge
C1    C     C_R   0.708061 0.995423 0.366509 0.556877
C2    C     C_3   0.170078 0.525770 0.482537 -0.241425
C3    C     C_3   0.421996 0.961842 0.967048 -0.256281
C4    C     C_3   0.400586 0.871229 0.021322 -0.312567
C5    C     C_3   0.388788 0.743442 0.991348 -0.431286
C6    C     C_3   0.077815 0.461444 0.033047 -0.256345
C7    C     C_3   0.099158 0.370622 0.978839 -0.312720
C8    C     C_3   0.111025 0.242945 0.008944 -0.431302
C9    C     C_3   0.918756 0.470442 0.968740 -0.254731
C10   C     C_3   0.895751 0.383863 0.024177 -0.309697
C11   C     C_3   0.885744 0.253874 0.996835 -0.430352
C12   C     C_3   0.329921 0.025749 0.517469 -0.241423
C13   C     C_3   0.670079 0.025771 0.482537 -0.241425
C14   C     C_3   0.787401 0.323943 0.551532 -0.236320
C15   C     C_3   0.212589 0.323956 0.448467 -0.236312
C16   C     C_3   0.287400 0.823943 0.551532 -0.236322
C17   C     C_3   0.712589 0.823956 0.448467 -0.236311
C18   C     C_3   0.777356 0.461335 0.560869 0.055564
C19   C     C_3   0.222641 0.461345 0.439133 0.055504
C20   C     C_3   0.277356 0.961334 0.560869 0.055517
C21   C     C_R   0.291938 0.995418 0.633491 0.557042
C22   C     C_3   0.722641 0.961345 0.439133 0.055552
C23   C     C_3   0.752806 0.408932 0.431397 0.054960
C24   C     C_3   0.247191 0.408934 0.568604 0.054935
C25   C     C_3   0.252806 0.908932 0.431397 0.054936
C26   C     C_3   0.747191 0.908934 0.568604 0.054959
C27   C     C_3   0.809297 0.506822 0.440127 -0.240156
C28   C     C_3   0.190699 0.506827 0.559879 -0.240157
C29   C     C_3   0.309297 0.006822 0.440127 -0.240167
C30   C     C_3   0.690699 0.006827 0.559879 -0.240146
C31   C     C_3   0.779721 0.297671 0.475629 -0.230195
C32   C     C_R   0.208061 0.495423 0.366509 0.557040
C33   C     C_3   0.220278 0.297677 0.524367 -0.230202
C34   C     C_3   0.279721 0.797671 0.475629 -0.230193
C35   C     C_3   0.720278 0.797677 0.524367 -0.230203
C36   C     C_3   0.473404 0.311305 0.966787 -0.258914
C37   C     C_3   0.516743 0.312242 0.035117 -0.254940
C38   C     C_3   0.983748 0.812259 0.964783 -0.254782
C39   C     C_3   0.027075 0.811241 0.033126 -0.259105
C40   C     C_3   0.425862 0.099819 0.984959 -0.124588
C41   C     C_3   0.572657 0.108008 0.014594 -0.126358
C42   C     C_3   0.927421 0.608441 0.985413 -0.126398
C43   C     C_R   0.791938 0.495418 0.633491 0.556880
C44   C     C_3   0.074192 0.599404 0.015078 -0.124476
C45   C     C_3   0.544594 0.133241 0.939751 -0.178839
C46   C     C_3   0.453365 0.123963 0.060313 -0.182118
C47   C     C_3   0.046734 0.623493 0.939696 -0.182309
C48   C     C_3   0.955502 0.633732 0.060234 -0.178706
C49   C     C_R   0.535141 0.180151 0.338276 0.544033
C50   C     C_R   0.464859 0.180147 0.661723 0.544414
C51   C     C_R   0.035141 0.680151 0.338276 0.544433
C52   C     C_R   0.964859 0.680147 0.661723 0.544007
C53   C     C_3   0.469627 0.178635 0.937074 0.051681
C54   C     C_3   0.686939 0.458713 0.457889 -0.239622
C55   C     C_3   0.526285 0.178834 0.063193 0.052046
C56   C     C_3   0.973928 0.678841 0.936791 0.052029
C57   C     C_3   0.030559 0.678627 0.062917 0.051658
C58   C     C_1   0.750844 0.405223 0.897435 -0.034047
C59   C     C_1   0.248110 0.406810 0.101968 -0.034369
C60   C     C_1   0.251834 0.906718 0.897995 -0.034361
C61   C     C_1   0.749111 0.905305 0.102536 -0.034072
C62   C     C_1   0.726102 0.350758 0.023247 -0.076805
C63   C     C_1   0.272102 0.353090 0.976083 -0.077027
C64   C     C_1   0.227834 0.852964 0.023883 -0.077159
C65   C     C_3   0.313057 0.458714 0.542113 -0.239607
C66   C     C_1   0.773829 0.850883 0.976721 -0.076678
C67   C     C_1   0.735421 0.377156 0.953692 -0.057666
C68   C     C_1   0.262862 0.379318 0.045496 -0.059156
C69   C     C_1   0.237061 0.879195 0.954460 -0.059109
C70   C     C_1   0.764509 0.877273 0.046268 -0.057683
C71   C     C_1   0.724157 0.331608 0.083921 -0.045732
C72   C     C_1   0.274757 0.333384 0.915668 -0.044113
C73   C     C_1   0.225209 0.833295 0.084311 -0.044308
C74   C     C_1   0.775803 0.831699 0.916059 -0.045552
C75   C     C_R   0.739960 0.365033 0.360354 0.544008
C76   C     C_3   0.186939 0.958714 0.457889 -0.239613
C77   C     C_R   0.260039 0.365030 0.639646 0.544100
C78   C     C_R   0.239960 0.865033 0.360354 0.544114
C79   C     C_R   0.760039 0.865030 0.639646 0.543993
C80   C     C_R   0.724261 0.949967 0.164989 0.528509
C81   C     C_R   0.275955 0.950371 0.835174 0.528984
C82   C     C_R   0.224030 0.450402 0.164812 0.529015
C83   C     C_R   0.775729 0.449943 0.835001 0.528502
C84   C     C_R   0.557071 0.182502 0.135269 0.520500
C85   C     C_R   0.440438 0.182617 0.864408 0.520093
C86   C     C_R   0.059667 0.682618 0.135608 0.520065
C87   C     C_3   0.813057 0.958713 0.542113 -0.239617
C88   C     C_R   0.943072 0.682497 0.864745 0.520547
C89   C     C_R   0.722106 0.308523 0.156328 0.549445
C90   C     C_R   0.277672 0.309033 0.843679 0.547569
C91   C     C_R   0.222323 0.809012 0.156320 0.547535
C92   C     C_R   0.777887 0.808545 0.843671 0.549494
C93   C     C_1   0.486331 0.172660 0.594568 -0.031048
C94   C     C_1   0.513666 0.172668 0.405431 -0.031026
C95   C     C_1   0.986332 0.672660 0.594568 -0.031025
C96   C     C_1   0.013667 0.672668 0.405431 -0.031048
C97   C     C_1   0.503847 0.169577 0.464817 -0.071522
C98   C     C_3   0.829921 0.525750 0.517469 -0.241423
C99   C     C_1   0.496150 0.169573 0.535182 -0.071537
C100  C     C_1   0.003847 0.669577 0.464817 -0.071539
C101  C     C_1   0.996150 0.669573 0.535182 -0.071520
C102  C     C_3   0.700480 0.485449 0.534250 -0.228157
C103  C     C_3   0.299518 0.485440 0.465751 -0.228166
C104  C     C_3   0.200480 0.985449 0.534250 -0.228167
C105  C     C_3   0.799518 0.985440 0.465751 -0.228156
C106  C     C_3   0.581087 0.969995 0.031326 -0.254811
C107  C     C_3   0.604011 0.883211 0.975936 -0.309805
C108  C     C_3   0.614128 0.753334 0.003413 -0.430371
Cr1   Cr    Cr6+3 0.765780 0.160710 0.267420 1.004185
Cr2   Cr    Cr6+3 0.383970 0.323720 0.751490 1.007113
Cr3   Cr    Cr6+3 0.116030 0.823720 0.248510 1.007080
Cr4   Cr    Cr6+3 0.883970 0.823720 0.751490 1.007854
Cr5   Cr    Cr6+3 0.234220 0.160710 0.732580 1.004004
Cr6   Cr    Cr6+3 0.265780 0.660710 0.267420 1.004000
Cr7   Cr    Cr6+3 0.734220 0.660710 0.732580 1.004193
Cr8   Cr    Cr6+3 0.612200 0.009560 0.248850 0.995659
Cr9   Cr    Cr6+3 0.387800 0.009560 0.751150 0.995045
Cr10  Cr    Cr6+3 0.112200 0.509560 0.248850 0.995007
Cr11  Cr    Cr6+3 0.887800 0.509560 0.751150 0.995691
Cr12  Cr    Cr6+3 0.616030 0.323720 0.248510 1.007820
H1    H     H_    0.682696 0.576938 0.545390 0.125482
H2    H     H_    0.119023 0.482716 0.469785 0.131248
H3    H     H_    0.380974 0.982678 0.530217 0.131249
H4    H     H_    0.619023 0.982717 0.469785 0.131248
H5    H     H_    0.855002 0.477832 0.414931 0.131899
H6    H     H_    0.144993 0.477832 0.585069 0.131866
H7    H     H_    0.355002 0.977831 0.414931 0.131869
H8    H     H_    0.644993 0.977832 0.585070 0.131896
H9    H     H_    0.420879 0.345043 0.972719 0.121677
H10   H     H_    0.567746 0.353616 0.029759 0.123943
H11   H     H_    0.932829 0.853986 0.970107 0.124044
H12   H     H_    0.317310 0.576922 0.454609 0.125472
H13   H     H_    0.079661 0.844594 0.027166 0.121653
H14   H     H_    0.497612 0.378387 0.934238 0.159407
H15   H     H_    0.489679 0.373178 0.068868 0.159166
H16   H     H_    0.010932 0.872870 0.930972 0.159137
H17   H     H_    0.003018 0.878627 0.065618 0.159363
H18   H     H_    0.372226 0.134477 0.978434 0.103346
H19   H     H_    0.625004 0.148202 0.021667 0.102877
H20   H     H_    0.875147 0.648923 0.978301 0.102811
H21   H     H_    0.127888 0.633760 0.021590 0.103424
H22   H     H_    0.418802 0.190364 0.082577 0.120880
H23   H     H_    0.182696 0.076938 0.545390 0.125473
H24   H     H_    0.576571 0.205527 0.918922 0.123583
H25   H     H_    0.923660 0.706311 0.080980 0.123688
H26   H     H_    0.081427 0.689581 0.917378 0.120770
H27   H     H_    0.549875 0.056695 0.904666 0.137291
H28   H     H_    0.451659 0.044440 0.094115 0.136392
H29   H     H_    0.048264 0.543838 0.905960 0.136343
H30   H     H_    0.950037 0.557370 0.095384 0.137315
H31   H     H_    0.666956 0.425046 0.562017 0.132355
H32   H     H_    0.333037 0.425019 0.437986 0.132337
H33   H     H_    0.166956 0.925046 0.562016 0.132333
H34   H     H_    0.817310 0.076921 0.454609 0.125480
H35   H     H_    0.833036 0.925018 0.437985 0.132358
H36   H     H_    0.644802 0.390751 0.449598 0.137631
H37   H     H_    0.355197 0.390756 0.550406 0.137634
H38   H     H_    0.144803 0.890752 0.449598 0.137631
H39   H     H_    0.855197 0.890755 0.550405 0.137634
H40   H     H_    0.670103 0.543195 0.429787 0.122388
H41   H     H_    0.329888 0.543201 0.570214 0.122399
H42   H     H_    0.170103 0.043196 0.429787 0.122400
H43   H     H_    0.829888 0.043200 0.570214 0.122388
H44   H     H_    0.340506 0.122117 0.529905 0.092205
H45   H     H_    0.831438 0.272068 0.461553 0.136596
H46   H     H_    0.659498 0.122143 0.470110 0.092209
H47   H     H_    0.840506 0.622117 0.529905 0.092210
H48   H     H_    0.159498 0.622142 0.470110 0.092205
H49   H     H_    0.290974 0.092367 0.415258 0.110648
H50   H     H_    0.709020 0.092366 0.584757 0.110656
H51   H     H_    0.790973 0.592367 0.415258 0.110658
H52   H     H_    0.209019 0.592366 0.584757 0.110646
H53   H     H_    0.838978 0.292006 0.573071 0.139548
H54   H     H_    0.161006 0.292037 0.426933 0.139561
H55   H     H_    0.338978 0.792006 0.573071 0.139558
H56   H     H_    0.168564 0.272071 0.538447 0.136588
H57   H     H_    0.661006 0.792038 0.426933 0.139552
H58   H     H_    0.749119 0.273188 0.577987 0.122712
H59   H     H_    0.250861 0.273191 0.422001 0.122719
H60   H     H_    0.249119 0.773189 0.577987 0.122713
H61   H     H_    0.750861 0.773191 0.422001 0.122718
H62   H     H_    0.745347 0.221440 0.465087 0.119671
H63   H     H_    0.254659 0.221449 0.534899 0.119671
H64   H     H_    0.245346 0.721440 0.465087 0.119676
H65   H     H_    0.754658 0.721449 0.534899 0.119665
H66   H     H_    0.646280 0.751132 0.053053 0.176560
H67   H     H_    0.331438 0.772068 0.461553 0.136588
H68   H     H_    0.563762 0.712463 0.011208 0.141915
H69   H     H_    0.638751 0.696754 0.965895 0.159328
H70   H     H_    0.566900 0.874051 0.930275 0.152163
H71   H     H_    0.650940 0.919840 0.957244 0.183393
H72   H     H_    0.621260 0.967240 0.072834 0.183763
H73   H     H_    0.536591 0.931839 0.052728 0.170202
H74   H     H_    0.352983 0.744591 0.944067 0.176793
H75   H     H_    0.438067 0.704125 0.978672 0.143095
H76   H     H_    0.367328 0.683625 0.029500 0.157020
H77   H     H_    0.439612 0.859485 0.065289 0.151747
H78   H     H_    0.668564 0.772071 0.538447 0.136596
H79   H     H_    0.354419 0.905929 0.042495 0.184691
H80   H     H_    0.382761 0.956396 0.925144 0.190360
H81   H     H_    0.467941 0.928920 0.946206 0.169733
H82   H     H_    0.147071 0.244265 0.056070 0.176794
H83   H     H_    0.061803 0.203783 0.021936 0.143175
H84   H     H_    0.132261 0.182903 0.970737 0.156875
H85   H     H_    0.060042 0.358754 0.934955 0.151744
H86   H     H_    0.145299 0.405187 0.957555 0.184721
H87   H     H_    0.116987 0.455863 0.074988 0.190702
H88   H     H_    0.031791 0.428803 0.053845 0.169697
H89   H     H_    0.880974 0.482679 0.530217 0.131250
H90   H     H_    0.853782 0.251465 0.947093 0.176561
H91   H     H_    0.936162 0.212977 0.989289 0.141859
H92   H     H_    0.860983 0.197436 0.034313 0.159455
H93   H     H_    0.932751 0.374865 0.069927 0.152199
H94   H     H_    0.848773 0.420570 0.042725 0.183354
H95   H     H_    0.878541 0.467831 0.927251 0.183444
H96   H     H_    0.963172 0.432013 0.947309 0.170228
O1    O     O_R   0.783100 0.287550 0.345460 -0.533972
O2    O     O_R   0.454350 0.284910 0.836260 -0.525693
O3    O     O_R   0.045650 0.784910 0.163740 -0.525664
O4    O     O_R   0.954350 0.784910 0.836260 -0.526323
O5    O     O_R   0.677950 0.374280 0.185410 -0.496554
O6    O     O_R   0.322050 0.374280 0.814590 -0.497959
O7    O     O_R   0.177950 0.874280 0.185410 -0.498000
O8    O     O_R   0.822050 0.874280 0.814590 -0.496501
O9    O     O_3   0.664670 0.164660 0.254930 -0.297974
O10   O     O_3   0.335330 0.164660 0.745070 -0.299123
O11   O     O_3   0.164670 0.664660 0.254930 -0.299199
O12   O     O_R   0.216900 0.287550 0.654540 -0.533918
O13   O     O_3   0.835330 0.664660 0.745070 -0.297881
O14   O     O_R   0.760020 0.037400 0.337700 -0.506753
O15   O     O_R   0.239980 0.037400 0.662300 -0.506613
O16   O     O_R   0.260020 0.537400 0.337700 -0.506597
O17   O     O_R   0.739980 0.537400 0.662300 -0.506767
O18   O     O_R   0.666600 0.921990 0.332020 -0.519779
O19   O     O_R   0.333400 0.921990 0.667980 -0.519599
O20   O     O_R   0.166600 0.421990 0.332020 -0.519583
O21   O     O_R   0.833400 0.421990 0.667980 -0.519795
O22   O     O_R   0.557260 0.082670 0.312540 -0.503627
O23   O     O_R   0.283100 0.787550 0.345460 -0.533913
O24   O     O_R   0.442740 0.082670 0.687460 -0.503496
O25   O     O_R   0.057260 0.582670 0.312540 -0.503486
O26   O     O_R   0.942740 0.582670 0.687460 -0.503639
O27   O     O_R   0.548410 0.285740 0.316480 -0.505178
O28   O     O_R   0.451590 0.285740 0.683520 -0.504964
O29   O     O_R   0.048410 0.785740 0.316480 -0.504959
O30   O     O_R   0.951590 0.785740 0.683520 -0.505188
O31   O     O_R   0.680500 0.375040 0.327000 -0.500288
O32   O     O_R   0.319500 0.375040 0.673000 -0.500185
O33   O     O_R   0.180500 0.875040 0.327000 -0.500182
O34   O     O_R   0.716900 0.787550 0.654540 -0.533978
O35   O     O_R   0.819500 0.875040 0.673000 -0.500291
O36   O     O_R   0.780350 0.286720 0.192720 -0.501531
O37   O     O_R   0.219650 0.286720 0.807280 -0.501158
O38   O     O_R   0.280350 0.786720 0.192720 -0.501134
O39   O     O_R   0.719650 0.786720 0.807280 -0.501566
O40   O     O_R   0.757470 0.036630 0.196110 -0.501263
O41   O     O_R   0.242530 0.036630 0.803890 -0.500892
O42   O     O_R   0.257470 0.536630 0.196110 -0.500888
O43   O     O_R   0.742530 0.536630 0.803890 -0.501269
O44   O     O_R   0.663840 0.921160 0.179280 -0.529252
O45   O     O_R   0.554710 0.081900 0.170950 -0.511702
O46   O     O_R   0.336160 0.921160 0.820720 -0.531817
O47   O     O_R   0.163840 0.421160 0.179280 -0.531946
O48   O     O_R   0.836160 0.421160 0.820720 -0.529129
O49   O     O_R   0.445290 0.081900 0.829050 -0.511901
O50   O     O_R   0.054710 0.581900 0.170950 -0.511916
O51   O     O_R   0.945290 0.581900 0.829050 -0.511698
O52   O     O_R   0.545650 0.284910 0.163740 -0.526294

loop_
_geom_bond_atom_site_label_1
_geom_bond_atom_site_label_2
_ccdc_geom_bond_type
C61   C70   T    
C76   C104  S    
C87   H43   S    
C58   C83   S    
C39   H17   S    
C27   C98   S    
C78   O23   A    
Cr12  O52   S    
C89   O36   A    
C48   H30   S    
C12   C29   S    
C82   O42   A    
Cr8   O45   S    
C76   H42   S    
C59   C82   S    
C106  H72   S    
C14   C31   S    
C7    H85   S    
C32   O16   A    
C13   C22   S    
Cr5   O10   S    
C48   C57   S    
Cr1   O36   S    
Cr7   O34   S    
C66   C70   S    
C9    H95   S    
Cr4   O30   S    
C76   H38   S    
C9    C42   S    
Cr12  O5    S    
Cr5   O41   S    
C62   C67   S    
Cr4   O35   S    
C92   O8    A    
C108  H66   S    
C36   C37   S    
C51   O29   A    
C90   O6    A    
C14   H53   S    
C50   O28   A    
C11   H90   S    
C89   O5    A    
C38   C39   S    
C11   H92   S    
C56   C88   S    
C106  C107  S    
Cr9   O19   S    
C61   C80   S    
C17   H57   S    
C21   O15   A    
Cr8   O22   S    
C25   C34   S    
C37   H10   S    
C84   O52   A    
C52   C95   S    
C18   C102  S    
C74   C92   S    
C33   H56   S    
C14   C18   S    
C41   C55   S    
C17   C35   S    
C36   C53   S    
C43   O21   A    
C11   H91   S    
Cr6   O11   S    
Cr10  O50   S    
C19   C103  S    
C1    O14   A    
C28   H52   S    
C4    H79   S    
C46   H28   S    
Cr10  O47   S    
C47   H29   S    
Cr9   O24   S    
C26   C87   S    
C40   H18   S    
C46   C55   S    
C33   H63   S    
C45   H24   S    
C64   C73   T    
C37   H15   S    
C83   O43   A    
C80   O44   A    
Cr12  O31   S    
C23   C27   S    
C49   C94   S    
C102  H1    S    
C103  H12   S    
C93   C99   T    
C81   O46   A    
C6    H88   S    
C98   H47   S    
Cr8   O44   S    
C44   C47   S    
Cr3   O29   S    
C102  H31   S    
C5    H75   S    
C42   C56   S    
C44   C57   S    
C105  H34   S    
C47   H26   S    
C45   C53   S    
C1    C22   S    
C6    C44   S    
C10   H93   S    
Cr4   O8    S    
C83   O48   A    
C51   O25   A    
Cr3   O3    S    
C7    H86   S    
Cr2   O2    S    
C19   C32   S    
Cr6   O16   S    
C49   O27   A    
C28   H6    S    
Cr5   O15   S    
C106  H73   S    
C2    H2    S    
C9    H96   S    
C25   C29   S    
Cr6   O38   S    
C98   H89   S    
C30   H8    S    
Cr9   O10   S    
Cr5   O37   S    
C41   C106  S    
C42   H20   S    
C25   C78   S    
C85   O49   A    
C13   C30   S    
C7    C8    S    
C17   C22   S    
C73   C91   S    
C65   H37   S    
C97   C99   S    
C23   C75   S    
C13   H4    S    
Cr1   O9    S    
Cr11  O21   S    
Cr5   O12   S    
C42   C48   S    
C94   C97   T    
C26   C79   S    
C64   C69   S    
Cr4   O13   S    
C88   O4    A    
C36   H14   S    
Cr12  O27   S    
C23   C31   S    
C15   C19   S    
C85   O2    A    
C108  H68   S    
C52   O26   A    
C59   C68   T    
C12   H44   S    
C66   C74   T    
C72   C90   S    
Cr1   O14   S    
C58   C67   T    
C2    H48   S    
Cr11  O48   S    
C71   C89   S    
C8    H84   S    
C1    O18   A    
C16   C20   S    
C16   C34   S    
C48   H25   S    
C12   C20   S    
C3    H80   S    
Cr4   O4    S    
C104  H23   S    
Cr7   O39   S    
C88   O51   A    
Cr3   O7    S    
Cr11  O51   S    
C20   C21   S    
C34   H64   S    
Cr6   O42   S    
C41   H19   S    
C6    H87   S    
C14   H58   S    
C103  H32   S    
C87   C105  S    
C5    H76   S    
C30   H50   S    
Cr9   O46   S    
C24   C65   S    
C16   H55   S    
C4    H77   S    
C105  H35   S    
C90   O37   A    
Cr8   O18   S    
C3    C40   S    
C26   C30   S    
C38   H16   S    
C29   H7    S    
C31   H62   S    
C43   O17   A    
C104  H33   S    
C79   O34   A    
C108  H69   S    
C65   C103  S    
C107  C108  S    
C91   O7    A    
C3    C4    S    
Cr2   O6    S    
C75   O1    A    
C27   H51   S    
Cr7   O17   S    
C75   O31   A    
C23   C54   S    
C9    C10   S    
Cr2   O32   S    
C63   C68   S    
C80   O40   A    
C15   H54   S    
C2    C19   S    
C45   H27   S    
C79   O35   A    
C54   C102  S    
C8    H83   S    
C10   H94   S    
C24   C28   S    
Cr2   O10   S    
C49   O22   A    
C5    H74   S    
C52   O30   A    
C53   C85   S    
Cr10  O25   S    
C50   C93   S    
C31   H45   S    
C6    C7    S    
C20   C104  S    
C91   O38   A    
Cr10  O11   S    
Cr3   O33   S    
C22   C105  S    
C39   H13   S    
C51   C96   S    
Cr1   O40   S    
C81   O41   A    
C24   C33   S    
C86   O50   A    
Cr8   O9    S    
C25   C76   S    
Cr3   O11   S    
C38   H11   S    
C77   O32   A    
C8    H82   S    
C15   H59   S    
Cr7   O43   S    
C36   H9    S    
C54   H36   S    
C27   H5    S    
C57   C86   S    
C32   O20   A    
C13   H46   S    
C21   O19   A    
C12   H3    S    
C60   C69   T    
Cr2   O28   S    
C3    H81   S    
C40   C46   S    
C96   C100  T    
C107  H70   S    
C50   O24   A    
C100  C101  S    
C46   H22   S    
C60   C81   S    
C87   H39   S    
C62   C71   T    
C86   O3    A    
C34   H67   S    
C84   O45   A    
Cr11  O26   S    
Cr7   O13   S    
Cr1   O1    S    
C10   C11   S    
Cr11  O13   S    
C54   H40   S    
C107  H71   S    
C37   C55   S    
C92   O39   A    
Cr10  O20   S    
C26   C35   S    
C4    C5    S    
C38   C56   S    
C63   C72   T    
C77   O12   A    
C40   C53   S    
C65   H41   S    
C24   C77   S    
C17   H61   S    
C78   O33   A    
C41   C45   S    
Cr6   O23   S    
C2    C28   S    
C44   H21   S    
C18   C98   S    
C29   H49   S    
C55   C84   S    
C18   C43   S    
C35   H65   S    
Cr12  O9    S    
C15   C33   S    
Cr9   O49   S    
C16   H60   S    
C35   H78   S    
C47   C56   S    
C82   O47   A    
C95   C101  T    
C39   C57   S    
