data_mof_unit_53102.cif
_audit_creation_date              2012-12-10T19:44:56-0500
_audit_creation_method            fapswitch 2.2
_symmetry_space_group_name_H-M    P1
_symmetry_Int_Tables_number       1
_space_group_crystal_system       triclinic
_cell_length_a                    15.087754
_cell_length_b                    10.827444
_cell_length_c                    13.682406
_cell_angle_alpha                 90.286306
_cell_angle_beta                  89.836486
_cell_angle_gamma                 89.844423
_cell_volume                      2235.13729507

loop_
_atom_site_label
_atom_site_type_symbol
_atom_type_description
_atom_site_fract_x
_atom_site_fract_y
_atom_site_fract_z
_atom_type_partial_charge
C1    C     C_R   0.497509 0.262154 0.499610 0.796091
C2    C     C_R   0.502491 0.737846 0.500390 0.796091
C3    C     C_R   0.045056 0.481565 0.678531 0.141201
C4    C     C_R   0.954943 0.518409 0.321465 0.141196
C5    C     C_R   0.302918 0.247397 0.264113 -0.114415
C6    C     C_R   0.697081 0.752601 0.735888 -0.114414
C7    C     C_R   0.342650 0.191845 0.345051 -0.089442
C8    C     C_R   0.657349 0.808154 0.654950 -0.089441
C9    C     C_R   0.419076 0.118685 0.332988 0.128408
C10   C     C_R   0.580924 0.881315 0.667012 0.128407
C11   C     C_R   0.453743 0.099771 0.238608 -0.175895
C12   C     C_R   0.546257 0.900229 0.761392 -0.175895
C13   C     C_R   0.413603 0.155205 0.157899 -0.145505
C14   C     C_R   0.586396 0.844795 0.842102 -0.145506
C15   C     C_R   0.338587 0.229564 0.170706 -0.107288
C16   C     C_R   0.661411 0.770434 0.829295 -0.107288
C17   C     C_R   0.467942 0.932613 0.420504 -0.235602
C18   C     C_R   0.532058 0.067387 0.579496 -0.235602
C19   C     C_R   0.504321 0.871711 0.501038 -0.082707
C20   C     C_R   0.495680 0.128288 0.498962 -0.082707
C21   C     C_R   0.537659 0.939531 0.581427 -0.000255
C22   C     C_R   0.462342 0.060468 0.418573 -0.000255
C23   C     C_R   0.328477 0.500141 0.500127 0.811454
C24   C     C_R   0.671523 0.499859 0.499872 0.811453
C25   C     C_R   0.549132 0.414019 0.792504 0.013988
C26   C     C_R   0.450868 0.585981 0.207496 0.013989
C27   C     C_R   0.450909 0.585531 0.793771 0.051101
C28   C     C_R   0.549091 0.414469 0.206229 0.051101
C29   C     C_R   0.450213 0.587865 0.896744 -0.020860
C30   C     C_R   0.549787 0.412135 0.103256 -0.020860
C31   C     C_R   0.500088 0.499590 0.948189 0.031864
C32   C     C_R   0.499912 0.500410 0.051811 0.031864
C33   C     C_R   0.549995 0.410532 0.895887 -0.011376
C34   C     C_R   0.450005 0.589468 0.104113 -0.011376
C35   C     C_R   0.401105 0.676789 0.948802 -0.249441
C36   C     C_R   0.598895 0.323211 0.051198 -0.249440
C37   C     C_R   0.400850 0.679020 0.052000 0.152059
C38   C     C_R   0.599150 0.320980 0.947999 0.152059
C39   C     C_R   0.814742 0.508958 0.411154 -0.221656
C40   C     C_R   0.185258 0.491030 0.588844 -0.221659
C41   C     C_R   0.768302 0.499613 0.499644 -0.101403
C42   C     C_R   0.231699 0.500384 0.500354 -0.101401
C43   C     C_R   0.814381 0.489921 0.587943 -0.239343
C44   C     C_R   0.185619 0.510076 0.412055 -0.239346
C45   C     C_R   0.906612 0.490374 0.588602 0.092800
C46   C     C_R   0.093388 0.509618 0.411396 0.092801
C47   C     C_R   0.953511 0.499901 0.499618 0.011120
C48   C     C_R   0.046490 0.500089 0.500380 0.011122
C49   C     C_R   0.907411 0.509138 0.409991 0.116885
C50   C     C_R   0.092589 0.490847 0.590006 0.116882
C51   C     C_R   0.952382 0.481372 0.677090 -0.267719
C52   C     C_R   0.047618 0.518610 0.322907 -0.267724
Cu1   Cu    Cu3+1 0.500010 0.499980 0.597420 0.943792
Cu2   Cu    Cu3+1 0.499990 0.500020 0.402580 0.943792
H1    H     H_    0.778405 0.516374 0.343257 0.190773
H2    H     H_    0.221595 0.483610 0.656740 0.190773
H3    H     H_    0.440887 0.880169 0.359794 0.153041
H4    H     H_    0.559113 0.119831 0.640206 0.153041
H5    H     H_    0.587581 0.348262 0.750233 0.152339
H6    H     H_    0.412419 0.651738 0.249767 0.152339
H7    H     H_    0.412625 0.652562 0.753208 0.129093
H8    H     H_    0.587375 0.347438 0.246792 0.129093
H9    H     H_    0.363406 0.745331 0.908978 0.133161
H10   H     H_    0.636594 0.254669 0.091022 0.133161
H11   H     H_    0.778527 0.481619 0.656386 0.156534
H12   H     H_    0.221473 0.518381 0.343612 0.156536
H13   H     H_    0.916252 0.474216 0.745450 0.144959
H14   H     H_    0.083748 0.525760 0.254547 0.144960
H15   H     H_    0.307958 0.273051 0.108216 0.126246
H16   H     H_    0.692040 0.726947 0.891785 0.126246
H17   H     H_    0.244345 0.304045 0.273734 0.122782
H18   H     H_    0.755653 0.695952 0.726267 0.122782
H19   H     H_    0.314341 0.206390 0.417051 0.102706
H20   H     H_    0.685658 0.793608 0.582950 0.102706
H21   H     H_    0.512316 0.043238 0.227746 0.122482
H22   H     H_    0.487684 0.956763 0.772254 0.122482
H23   H     H_    0.440975 0.141099 0.085473 0.132525
H24   H     H_    0.559023 0.858901 0.914527 0.132525
N1    N     N_R   0.499960 0.499900 0.743810 -0.191287
N2    N     N_R   0.500040 0.500100 0.256190 -0.191288
O1    O     O_R   0.500000 0.319630 0.582270 -0.594104
O2    O     O_R   0.500000 0.680370 0.417730 -0.594104
O3    O     O_R   0.499990 0.319660 0.417730 -0.576601
O4    O     O_R   0.500010 0.680340 0.582270 -0.576601
O5    O     O_R   0.370260 0.499960 0.582280 -0.589669
O6    O     O_R   0.629740 0.500040 0.417720 -0.589669
O7    O     O_R   0.370250 0.499990 0.417740 -0.585024
O8    O     O_R   0.629750 0.500010 0.582260 -0.585023
N3    N     N_3   0.351067 0.772055 0.103839 -0.610787
H25   H     H_    0.396615 0.832037 0.136384 0.206427
H26   H     H_    0.313882 0.825201 0.055182 0.220215
N4    N     N_3   0.648933 0.227945 0.896161 -0.610787
H27   H     H_    0.603385 0.167963 0.863616 0.206427
H28   H     H_    0.686118 0.174800 0.944818 0.220215
N5    N     N_3   0.090544 0.472375 0.770049 -0.614927
H29   H     H_    0.070709 0.390542 0.803853 0.221554
H30   H     H_    0.070155 0.546147 0.814379 0.219707
N6    N     N_3   0.909455 0.527574 0.229946 -0.614925
H31   H     H_    0.929290 0.609398 0.196130 0.221553
H32   H     H_    0.929847 0.453790 0.185629 0.219708

loop_
_geom_bond_atom_site_label_1
_geom_bond_atom_site_label_2
_ccdc_geom_bond_type
C4    N6    S    
C27   C29   A    
C18   C21   A    
C44   H12   S    
N5    H29   S    
C7    H19   S    
Cu1   Cu2   S    
C6    H18   S    
C23   C42   S    
C4    C52   A    
Cu1   O4    S    
C19   C21   A    
C27   N1    A    
Cu2   O7    S    
C9    C22   S    
C45   C51   A    
C1    O1    A    
C34   C37   A    
C46   C52   A    
Cu1   O1    S    
C27   H7    S    
C2    O4    A    
C26   C34   A    
C39   H1    S    
C31   C32   A    
C40   H2    S    
C31   C33   A    
N3    H26   S    
C52   H14   S    
C48   C50   A    
C23   O7    A    
C24   C41   S    
C41   C43   A    
C42   C44   A    
C8    H20   S    
Cu2   O3    S    
C3    C50   A    
C44   C46   A    
Cu2   N2    S    
C45   C47   A    
C10   C21   S    
C15   H15   S    
C13   H23   S    
C16   H16   S    
C39   C41   A    
C5    C7    A    
C3    C51   A    
C6    C8    A    
C26   N2    A    
C32   C34   A    
C24   O8    A    
C47   C48   A    
C43   H11   S    
N4    H28   S    
C51   H13   S    
C43   C45   A    
C9    C11   A    
C10   C12   A    
C8    C10   A    
C39   C49   A    
C20   C22   A    
N6    H32   S    
C13   C15   A    
C14   C16   A    
C2    O2    A    
C36   C38   A    
Cu2   O2    S    
C35   C37   A    
Cu2   O6    S    
C7    C9    A    
C1    C20   S    
Cu1   N1    S    
C2    C19   S    
C25   N1    A    
C17   C22   A    
C12   C14   A    
Cu1   O5    S    
N5    H30   S    
C37   N3    S    
C1    O3    A    
C29   C35   A    
C33   C38   A    
C30   C36   A    
C4    C49   A    
C12   H22   S    
C28   C30   A    
C29   C31   A    
C11   H21   S    
C47   C49   A    
C30   C32   A    
C11   C13   A    
C24   O6    A    
C40   C50   A    
C40   C42   A    
N4    H27   S    
C17   C19   A    
C3    N5    S    
C18   H4    S    
Cu1   O8    S    
C18   C20   A    
C14   H24   S    
C28   N2    A    
C5    C15   A    
C6    C16   A    
C46   C48   A    
C5    H17   S    
N6    H31   S    
C23   O5    A    
C17   H3    S    
C35   H9    S    
C25   H5    S    
N3    H25   S    
C36   H10   S    
C26   H6    S    
C38   N4    S    
C25   C33   A    
C28   H8    S    
