data_mof_unit_16612.cif
_audit_creation_date              2012-12-11T15:12:42-0500
_audit_creation_method            fapswitch 2.2
_symmetry_space_group_name_H-M    P1
_symmetry_Int_Tables_number       1
_space_group_crystal_system       triclinic
_cell_length_a                    22.665317
_cell_length_b                    6.960103
_cell_length_c                    19.019763
_cell_angle_alpha                 89.999972
_cell_angle_beta                  99.339322
_cell_angle_gamma                 90.0
_cell_volume                      2960.65165988

loop_
_atom_site_label
_atom_site_type_symbol
_atom_type_description
_atom_site_fract_x
_atom_site_fract_y
_atom_site_fract_z
_atom_type_partial_charge
O1    O     O_R   0.448420 0.506120 0.415750 -0.528012
O2    O     O_R   0.551580 0.006120 0.584250 -0.528012
O3    O     O_R   0.436490 0.174470 0.555610 -0.531249
O4    O     O_R   0.563510 0.674470 0.444390 -0.531248
C1    C     C_R   0.420483 0.345075 0.575118 0.718208
C2    C     C_R   0.579517 0.845075 0.424882 0.718209
O5    O     O_R   0.441310 0.176330 0.414520 -0.542777
O6    O     O_R   0.558690 0.676330 0.585480 -0.542777
O7    O     O_R   0.556430 0.007110 0.442150 -0.538866
O8    O     O_R   0.443570 0.507110 0.557850 -0.538866
C3    C     C_R   0.426011 0.345926 0.388241 0.687595
C4    C     C_R   0.573989 0.845926 0.611759 0.687595
O9    O     O_3   0.537770 0.339560 0.509230 -0.365023
O10   O     O_3   0.462230 0.839560 0.490770 -0.365023
V1    V     V_3+5 0.492990 0.064280 0.498290 1.428880
V2    V     V_3+5 0.507010 0.564280 0.501710 1.428880
C5    C     C_R   0.869133 0.855943 0.692111 0.008223
C6    C     C_R   0.130867 0.355943 0.307889 0.008223
H1    H     H_    0.955713 0.891261 0.756931 0.108876
H2    H     H_    0.044287 0.391260 0.243069 0.108876
H3    H     H_    0.783511 0.792543 0.577377 0.141681
H4    H     H_    0.216489 0.292543 0.422622 0.141682
C7    C     C_R   0.885379 0.931532 0.818845 -0.060621
C8    C     C_R   0.114621 0.431532 0.181155 -0.060621
C9    C     C_R   0.592450 0.890856 0.744687 0.002443
C10   C     C_R   0.407550 0.390857 0.255313 0.002442
C11   C     C_R   0.631093 0.906039 0.809667 -0.160111
C12   C     C_R   0.368907 0.406040 0.190333 -0.160110
C13   C     C_R   0.692529 0.902094 0.813244 -0.183802
C14   C     C_R   0.307471 0.402094 0.186756 -0.183803
C15   C     C_R   0.718676 0.881879 0.751436 0.091841
C16   C     C_R   0.281324 0.381879 0.248564 0.091841
C17   C     C_R   0.679662 0.852969 0.684865 0.065335
C18   C     C_R   0.320338 0.352969 0.315135 0.065336
C19   C     C_R   0.782400 0.888712 0.754101 0.066870
C20   C     C_R   0.217600 0.388713 0.245899 0.066870
C21   C     C_R   0.806231 0.854223 0.690555 0.094584
C22   C     C_R   0.193769 0.354223 0.309445 0.094584
C23   C     C_R   0.766882 0.819949 0.626490 -0.217375
C24   C     C_R   0.233118 0.319948 0.373510 -0.217376
C25   C     C_R   0.705176 0.822069 0.623459 -0.193194
C26   C     C_R   0.294824 0.322069 0.376541 -0.193195
C27   C     C_R   0.823289 0.929343 0.817763 -0.216212
C28   C     C_R   0.176710 0.429343 0.182237 -0.216212
C29   C     C_R   0.907744 0.894136 0.755970 -0.209765
C30   C     C_R   0.092255 0.394135 0.244030 -0.209765
C31   C     C_R   0.615997 0.858150 0.681137 -0.136262
C32   C     C_R   0.384002 0.358150 0.318863 -0.136262
H5    H     H_    0.808644 0.958240 0.867808 0.095723
H6    H     H_    0.191356 0.458240 0.132192 0.095723
H7    H     H_    0.718236 0.914727 0.865815 0.112591
H8    H     H_    0.281764 0.414727 0.134185 0.112591
H9    H     H_    0.613322 0.923808 0.858864 0.121180
H10   H     H_    0.386678 0.423809 0.141136 0.121180
H11   H     H_    0.677545 0.797823 0.572216 0.108224
H12   H     H_    0.322454 0.297823 0.427784 0.108224
C33   C     C_3   0.803533 0.710247 0.254444 -0.388687
C34   C     C_3   0.196467 0.210247 0.745556 -0.388687
C35   C     C_3   0.809469 0.068765 0.276299 -0.387367
C36   C     C_3   0.190531 0.568765 0.723701 -0.387367
C37   C     C_3   0.764759 0.044337 0.330774 0.191277
C38   C     C_3   0.235241 0.544337 0.669226 0.191277
H13   H     H_    0.849485 0.692412 0.284901 0.149459
H14   H     H_    0.150515 0.192412 0.715099 0.149459
H15   H     H_    0.802634 0.212796 0.250816 0.121263
H16   H     H_    0.197366 0.712797 0.749183 0.121263
H17   H     H_    0.856791 0.065857 0.303428 0.142604
H18   H     H_    0.143209 0.565857 0.696571 0.142604
H19   H     H_    0.739239 0.181145 0.331547 0.096531
H20   H     H_    0.260761 0.681145 0.668453 0.096531
C39   C     C_1   0.628099 0.856594 0.383125 -0.203170
C40   C     C_1   0.371901 0.356594 0.616875 -0.203170
C41   C     C_3   0.799588 0.910688 0.217788 0.237962
C42   C     C_3   0.200412 0.410688 0.782212 0.237962
C43   C     C_3   0.755260 0.685023 0.304615 0.192307
C44   C     C_3   0.244740 0.185023 0.695385 0.192307
C45   C     C_3   0.719184 0.878879 0.305787 0.243200
C46   C     C_3   0.280816 0.378879 0.694213 0.243200
C47   C     C_3   0.689674 0.923375 0.227646 -0.484658
C48   C     C_3   0.310325 0.423375 0.772354 -0.484657
C49   C     C_3   0.735855 0.934400 0.176322 -0.357081
C50   C     C_3   0.264145 0.434400 0.823677 -0.357079
C51   C     C_1   0.669151 0.867503 0.348818 -0.064079
C52   C     C_1   0.330849 0.367503 0.651182 -0.064079
C53   C     C_1   0.843770 0.927666 0.167771 -0.064566
C54   C     C_1   0.156229 0.427667 0.832229 -0.064566
C55   C     C_1   0.879142 0.939535 0.126161 -0.199118
C56   C     C_1   0.120858 0.439535 0.873839 -0.199119
H21   H     H_    0.726411 0.819906 0.135140 0.153293
H22   H     H_    0.273589 0.319906 0.864860 0.153292
H23   H     H_    0.731525 0.074902 0.147949 0.152801
H24   H     H_    0.268475 0.574902 0.852051 0.152800
H25   H     H_    0.656800 0.810111 0.208342 0.161158
H26   H     H_    0.343200 0.310111 0.791658 0.161158
H27   H     H_    0.797423 0.595200 0.213247 0.118874
H28   H     H_    0.202577 0.095200 0.786753 0.118874
H29   H     H_    0.723962 0.570509 0.281728 0.075222
H30   H     H_    0.276037 0.070509 0.718272 0.075222
H31   H     H_    0.665091 0.061737 0.225201 0.158702
H32   H     H_    0.334909 0.561737 0.774799 0.158702
O11   O     O_R   0.056480 0.288780 0.942210 -0.534841
O12   O     O_R   0.943520 0.788780 0.057790 -0.534841
O13   O     O_R   0.058700 0.616820 0.085490 -0.537823
O14   O     O_R   0.941300 0.116820 0.914510 -0.537823
C57   C     C_R   0.072557 0.447535 0.112829 0.700804
C58   C     C_R   0.927443 0.947535 0.887171 0.700804
O15   O     O_R   0.063520 0.618570 0.944410 -0.537902
O16   O     O_R   0.936480 0.118570 0.055590 -0.537902
O17   O     O_R   0.948420 0.787670 0.915740 -0.533590
O18   O     O_R   0.051580 0.287670 0.084260 -0.533590
C59   C     C_R   0.077903 0.449833 0.922796 0.724980
C60   C     C_R   0.922097 0.949833 0.077204 0.724980
O19   O     O_3   0.962260 0.453430 0.990800 -0.366659
O20   O     O_3   0.037740 0.953430 0.009200 -0.366659
V3    V     V_3+5 0.007000 0.728750 0.001710 1.419347
V4    V     V_3+5 0.993000 0.228750 0.998290 1.419347
N1    N     N_2   0.797462 0.002440 0.401710 -0.482456
H33   H     H_    0.838468 0.935974 0.404957 0.295368
C61   C     C_3   0.793097 0.134608 0.458804 -0.596294
H34   H     H_    0.805660 0.060160 0.510436 0.215774
H35   H     H_    0.746496 0.186607 0.456024 0.205612
H36   H     H_    0.825138 0.253599 0.456724 0.194810
N2    N     N_2   0.202537 0.502440 0.598290 -0.482456
H37   H     H_    0.161532 0.435973 0.595043 0.295368
C62   C     C_3   0.206902 0.634608 0.541196 -0.596294
H38   H     H_    0.194340 0.560160 0.489563 0.215774
H39   H     H_    0.253504 0.686607 0.543976 0.205612
H40   H     H_    0.174862 0.753599 0.543276 0.194811
C63   C     C_R   0.895747 0.816400 0.627543 0.093127
C64   C     C_R   0.896077 0.628578 0.600520 -0.144661
C65   C     C_R   0.916833 0.594007 0.536339 -0.114352
C66   C     C_R   0.936991 0.746559 0.498733 -0.095205
C67   C     C_R   0.937516 0.933210 0.525908 -0.136014
C68   C     C_R   0.917459 0.968221 0.590465 -0.147402
H41   H     H_    0.879261 0.510098 0.628460 0.109616
H42   H     H_    0.916632 0.449443 0.515328 0.100674
H43   H     H_    0.951914 0.720410 0.448336 0.101046
H44   H     H_    0.952191 0.051314 0.496119 0.115650
H45   H     H_    0.916910 0.114050 0.610257 0.104692
C69   C     C_R   0.104253 0.316400 0.372457 0.093127
C70   C     C_R   0.103923 0.128577 0.399480 -0.144661
C71   C     C_R   0.083167 0.094007 0.463662 -0.114353
C72   C     C_R   0.063009 0.246558 0.501267 -0.095205
C73   C     C_R   0.062484 0.433210 0.474092 -0.136013
C74   C     C_R   0.082541 0.468220 0.409535 -0.147402
H46   H     H_    0.120739 0.010097 0.371540 0.109616
H47   H     H_    0.083368 0.949442 0.484672 0.100674
H48   H     H_    0.048086 0.220410 0.551664 0.101046
H49   H     H_    0.047809 0.551313 0.503881 0.115650
H50   H     H_    0.083089 0.614050 0.389743 0.104692
C75   C     C_R   0.527766 0.915631 0.746305 0.077366
C76   C     C_R   0.508653 0.071631 0.783895 -0.133933
C77   C     C_R   0.449301 0.085303 0.793891 -0.119256
C78   C     C_R   0.407850 0.947803 0.764094 -0.105572
C79   C     C_R   0.425779 0.797462 0.723835 -0.125022
C80   C     C_R   0.485756 0.777822 0.716565 -0.110768
H51   H     H_    0.540188 0.179667 0.807502 0.108814
H52   H     H_    0.436171 0.200781 0.826009 0.102608
H53   H     H_    0.362257 0.955246 0.773424 0.085841
H54   H     H_    0.393547 0.693435 0.699733 0.110424
H55   H     H_    0.499436 0.652467 0.689771 0.112234
C81   C     C_R   0.472234 0.415632 0.253695 0.077366
C82   C     C_R   0.491347 0.571632 0.216105 -0.133933
C83   C     C_R   0.550698 0.585304 0.206109 -0.119256
C84   C     C_R   0.592149 0.447803 0.235906 -0.105572
C85   C     C_R   0.574221 0.297462 0.276165 -0.125021
C86   C     C_R   0.514244 0.277822 0.283435 -0.110767
H56   H     H_    0.459811 0.679667 0.192498 0.108814
H57   H     H_    0.563829 0.700782 0.173991 0.102608
H58   H     H_    0.637743 0.455247 0.226576 0.085841
H59   H     H_    0.606453 0.193436 0.300267 0.110424
H60   H     H_    0.500564 0.152467 0.310229 0.112234
N3    N     N_2   0.785031 0.618540 0.374617 -0.505309
H61   H     H_    0.813425 0.504399 0.371040 0.250311
C87   C     C_3   0.750338 0.591074 0.431538 -0.514154
H62   H     H_    0.778290 0.522792 0.477928 0.180392
H63   H     H_    0.710263 0.501322 0.413201 0.183060
H64   H     H_    0.737742 0.730261 0.452676 0.233750
N4    N     N_2   0.214969 0.118540 0.625383 -0.505309
H65   H     H_    0.186575 0.004399 0.628960 0.250311
C88   C     C_3   0.249662 0.091074 0.568462 -0.514156
H66   H     H_    0.221710 0.022792 0.522072 0.180393
H67   H     H_    0.289737 0.001322 0.586799 0.183060
H68   H     H_    0.262258 0.230261 0.547324 0.233750

loop_
_geom_bond_atom_site_label_1
_geom_bond_atom_site_label_2
_ccdc_geom_bond_type
C22   C24   A    
C57   O18   A    
C84   C85   A    
C7    C29   A    
C11   C13   A    
O12   C60   A    
C82   C83   A    
O1    C3    A    
C44   N4    S    
O2    C4    A    
C2    O7    A    
O14   C58   A    
O20   V3    S    
C83   H57   S    
C7    C27   A    
N2    H37   S    
C23   C25   A    
N3    H61   S    
O5    C3    A    
C36   C42   S    
C16   C20   A    
C47   H31   S    
C83   C84   A    
C19   C21   A    
C5    C29   A    
C47   H25   S    
C1    C40   S    
N1    C61   S    
C13   H7    S    
C54   C56   T    
C61   H36   S    
C43   N3    S    
C45   C51   S    
C44   H30   S    
C72   C73   A    
C43   H29   S    
C50   H24   S    
C38   H20   S    
C36   C38   S    
C33   C41   S    
C77   H52   S    
C34   H28   S    
C25   H11   S    
C28   H6    S    
O12   V3    S    
C26   H12   S    
O14   V4    S    
C56   C59   S    
C64   H41   S    
C37   C45   S    
C66   C67   A    
C18   C26   A    
C62   H40   S    
C75   C76   A    
C15   C17   A    
C19   C27   A    
C9    C31   A    
C74   H50   S    
C10   C32   A    
O19   V4    S    
C35   H17   S    
C53   C55   T    
C36   H16   S    
C67   H44   S    
O6    V2    S    
C48   H32   S    
N3    C87   S    
C3    C32   S    
C72   H48   S    
C42   C50   S    
C4    C31   S    
C6    C30   A    
C41   C49   S    
C38   N2    S    
C33   H13   S    
C87   H64   S    
C39   C51   T    
C45   C47   S    
C34   H14   S    
C2    C39   S    
C35   C37   S    
C71   C72   A    
C34   C44   S    
C69   C70   A    
C87   H63   S    
C65   H42   S    
C88   H67   S    
C68   H45   S    
C47   C49   S    
C12   H10   S    
C27   H5    S    
C55   C60   S    
C66   H43   S    
C88   H66   S    
C7    C58   S    
C37   N1    S    
C10   C81   S    
O16   C60   A    
C16   C18   A    
O4    V2    S    
O13   V3    S    
C73   H49   S    
C87   H62   S    
H3    C23   S    
O6    C4    A    
H4    C24   S    
C11   H9    S    
C46   C48   S    
O13   C57   A    
O1    V2    S    
C5    C21   A    
C75   C80   A    
C42   C54   S    
C6    C69   S    
O2    V1    S    
C43   C45   S    
O15   V3    S    
C78   C79   A    
C40   C52   T    
C61   H35   S    
C85   H59   S    
C70   H46   S    
C48   C50   S    
C80   H55   S    
O9    V1    S    
C67   C68   A    
C17   C31   A    
C15   C19   A    
C20   C28   A    
O4    C2    A    
C9    C11   A    
C48   H26   S    
C65   C66   A    
O18   V4    S    
O3    V1    S    
C34   C42   S    
C81   C82   A    
C41   C53   S    
C88   H68   S    
C37   H19   S    
C84   H58   S    
C14   H8    S    
C76   H51   S    
C79   H54   S    
O7    V1    S    
O15   C59   A    
C71   H47   S    
C38   C46   S    
C44   C46   S    
C73   C74   A    
O3    C1    A    
C69   C74   A    
O20   V4    S    
C61   H34   S    
H1    C29   S    
C86   H60   S    
N4    H65   S    
O11   C59   A    
C10   C12   A    
C50   H22   S    
C9    C75   S    
C8    C30   A    
C33   C43   S    
C12   C14   A    
C82   H56   S    
C63   C64   A    
C17   C25   A    
C1    O8    A    
C13   C15   A    
O8    V2    S    
C70   C71   A    
C35   H15   S    
C20   C22   A    
C14   C16   A    
O16   V4    S    
C62   H38   S    
C85   C86   A    
C8    C28   A    
O5    V1    S    
C24   C26   A    
C64   C65   A    
O10   V2    S    
C49   H21   S    
C6    C22   A    
C35   C41   S    
C63   C68   A    
N2    C62   S    
O17   V3    S    
C81   C86   A    
C49   H23   S    
C46   C52   S    
C78   H53   S    
C18   C32   A    
C76   C77   A    
C36   H18   S    
C21   C23   A    
C33   H27   S    
O9    V2    S    
C79   C80   A    
C62   H39   S    
O11   V4    S    
O10   V1    S    
C8    C57   S    
N4    C88   S    
C77   C78   A    
N1    H33   S    
C5    C63   S    
H2    C30   S    
O19   V3    S    
C58   O17   A    
