data_mof_unit_29976.cif
_audit_creation_date              2012-12-11T16:26:10-0500
_audit_creation_method            fapswitch 2.2
_symmetry_space_group_name_H-M    P1
_symmetry_Int_Tables_number       1
_space_group_crystal_system       triclinic
_cell_length_a                    13.973088
_cell_length_b                    13.978938
_cell_length_c                    31.887087
_cell_angle_alpha                 89.869968
_cell_angle_beta                  90.322327
_cell_angle_gamma                 119.879069
_cell_volume                      5400.48831909

loop_
_atom_site_label
_atom_site_type_symbol
_atom_type_description
_atom_site_fract_x
_atom_site_fract_y
_atom_site_fract_z
_atom_type_partial_charge
C1    C     C_R   0.567856 0.444342 0.810476 0.554801
C2    C     C_R   0.877342 0.433081 0.689584 0.549746
C3    C     C_R   0.556739 0.124490 0.810875 0.558405
C4    C     C_R   0.567079 0.443926 0.689904 0.556961
C5    C     C_R   0.877934 0.433130 0.810258 0.557570
C6    C     C_R   0.555456 0.122823 0.689719 0.563443
C7    C     C_R   0.443300 0.569024 0.310977 0.572208
C8    C     C_R   0.433104 0.878074 0.189842 0.561852
C9    C     C_R   0.126275 0.557029 0.311081 0.572580
C10   C     C_R   0.443521 0.567404 0.189405 0.564577
C11   C     C_R   0.431828 0.875057 0.310792 0.569830
C12   C     C_R   0.123849 0.556312 0.189243 0.565502
C13   C     C_1   0.014857 0.513222 0.016687 0.007585
C14   C     C_1   0.523935 0.966444 0.484259 0.008806
C15   C     C_1   0.488777 0.479130 0.019885 0.025017
C16   C     C_1   0.057601 0.560857 0.486558 0.009544
C17   C     C_1   0.513308 0.014120 0.021408 0.005155
C18   C     C_1   0.439411 0.484912 0.485446 0.007070
C19   C     C_1   0.530113 0.983011 0.521292 0.014661
C20   C     C_1   0.010866 0.511741 0.979101 0.001156
C21   C     C_1   0.447888 0.474048 0.522367 0.001065
C22   C     C_1   0.515659 0.019516 0.983861 0.011470
C23   C     C_1   0.042863 0.551327 0.523756 0.014001
C24   C     C_1   0.493431 0.475440 0.982495 0.024923
C25   C     C_R   0.940890 0.475058 0.849879 -0.035975
C26   C     C_R   0.538003 0.068150 0.648734 -0.005156
C27   C     C_R   0.532835 0.461822 0.851957 -0.034420
C28   C     C_R   0.938892 0.475096 0.649728 -0.012657
C29   C     C_R   0.542660 0.073918 0.852850 -0.025350
C30   C     C_R   0.531677 0.453583 0.647842 -0.015134
C31   C     C_R   0.461746 0.913711 0.354197 0.005684
C32   C     C_R   0.070958 0.540940 0.147591 -0.024185
C33   C     C_R   0.451288 0.542583 0.354939 0.004572
C34   C     C_R   0.474429 0.941034 0.150343 -0.033712
C35   C     C_R   0.094637 0.549824 0.355340 0.005889
C36   C     C_R   0.459246 0.527016 0.148675 -0.025152
C37   C     C_R   0.948589 0.568121 0.870944 0.266024
C38   C     C_R   0.600479 0.018932 0.636087 0.265523
C39   C     C_R   0.434448 0.380074 0.870983 0.254771
C40   C     C_R   0.970469 0.581832 0.633910 0.259130
C41   C     C_R   0.635201 0.087247 0.876250 0.251867
C42   C     C_R   0.479650 0.515560 0.639106 0.260693
C43   C     C_R   0.572637 0.968001 0.368083 0.277610
C44   C     C_R   0.081845 0.632663 0.124519 0.249991
C45   C     C_R   0.400906 0.432558 0.369181 0.276412
C46   C     C_R   0.568934 0.951540 0.129677 0.270800
C47   C     C_R   0.037215 0.601711 0.370551 0.275436
C48   C     C_R   0.368831 0.440251 0.126880 0.250619
C49   C     C_R   0.979547 0.585535 0.913472 0.309475
C50   C     C_R   0.594312 0.984859 0.593949 0.280949
C51   C     C_R   0.421108 0.383338 0.914572 0.291956
C52   C     C_R   0.017060 0.611873 0.593397 0.287562
C53   C     C_R   0.626143 0.070265 0.919822 0.298667
C54   C     C_R   0.444451 0.518197 0.597785 0.288055
C55   C     C_R   0.595788 0.983438 0.411685 0.302380
C56   C     C_R   0.063997 0.623326 0.080974 0.299047
C57   C     C_R   0.391645 0.411149 0.412812 0.303889
C58   C     C_R   0.586477 0.982720 0.087231 0.310150
C59   C     C_R   0.027751 0.610658 0.414413 0.306172
C60   C     C_R   0.378909 0.423936 0.084039 0.286773
C61   C     C_R   0.004355 0.511542 0.934286 -0.021396
C62   C     C_R   0.530167 0.005068 0.565025 0.005397
C63   C     C_R   0.500760 0.473119 0.937929 -0.007174
C64   C     C_R   0.020097 0.532139 0.567680 -0.004723
C65   C     C_R   0.523159 0.029159 0.939170 0.000942
C66   C     C_R   0.465124 0.460984 0.565780 -0.010287
C67   C     C_R   0.507185 0.945902 0.440193 -0.000499
C68   C     C_R   0.023450 0.520435 0.061434 -0.004335
C69   C     C_R   0.435490 0.500757 0.441247 -0.001586
C70   C     C_R   0.511496 0.005731 0.066160 -0.020070
C71   C     C_R   0.073825 0.564939 0.442097 -0.002107
C72   C     C_R   0.481005 0.486523 0.064246 -0.003724
C73   C     C_R   0.012085 0.430162 0.911916 -0.207583
C74   C     C_R   0.464943 0.048698 0.578278 -0.198471
C75   C     C_R   0.591497 0.559557 0.918256 -0.174403
C76   C     C_R   0.993863 0.429463 0.583981 -0.200118
C77   C     C_R   0.429556 0.004894 0.915401 -0.208046
C78   C     C_R   0.513332 0.396977 0.575376 -0.180108
C79   C     C_R   0.398454 0.892974 0.425841 -0.183452
C80   C     C_R   0.000050 0.427106 0.085047 -0.208462
C81   C     C_R   0.484633 0.608868 0.426612 -0.181696
C82   C     C_R   0.428113 0.010502 0.088154 -0.208802
C83   C     C_R   0.130245 0.514075 0.426470 -0.184708
C84   C     C_R   0.572755 0.564507 0.086742 -0.173439
C85   C     C_R   0.980685 0.412000 0.869960 -0.183154
C86   C     C_R   0.468156 0.079295 0.619781 -0.205536
C87   C     C_R   0.607751 0.553998 0.875657 -0.173955
C88   C     C_R   0.956487 0.402332 0.624908 -0.200076
C89   C     C_R   0.439312 0.028097 0.872603 -0.194553
C90   C     C_R   0.545631 0.392668 0.616149 -0.200805
C91   C     C_R   0.375913 0.876803 0.383358 -0.187341
C92   C     C_R   0.025038 0.437438 0.127760 -0.180899
C93   C     C_R   0.491870 0.629560 0.383923 -0.190831
C94   C     C_R   0.409501 0.978278 0.129945 -0.182760
C95   C     C_R   0.140975 0.507009 0.383625 -0.186438
C96   C     C_R   0.561935 0.585166 0.128610 -0.172509
Cr1   Cr    Cr6+3 0.504240 0.249200 0.750000 1.024022
Cr2   Cr    Cr6+3 0.744960 0.495760 0.750000 1.022833
Cr3   Cr    Cr6+3 0.750800 0.255040 0.750000 1.010946
Cr4   Cr    Cr6+3 0.249200 0.504240 0.250000 1.014241
Cr5   Cr    Cr6+3 0.495760 0.744960 0.250000 1.018852
Cr6   Cr    Cr6+3 0.255040 0.750800 0.250000 1.011834
H1    H     H_    0.013991 0.365433 0.144733 0.157022
H2    H     H_    0.290517 0.831195 0.373431 0.126704
H3    H     H_    0.632814 0.650717 0.144618 0.164625
H4    H     H_    0.189175 0.471037 0.372610 0.128180
H5    H     H_    0.338800 0.974740 0.145232 0.169428
H6    H     H_    0.525802 0.714007 0.373566 0.128113
H7    H     H_    0.420281 0.117607 0.628638 0.151547
H8    H     H_    0.979512 0.342805 0.854277 0.165889
H9    H     H_    0.584032 0.343369 0.622920 0.132821
H10   H     H_    0.366810 0.015476 0.855435 0.152633
H11   H     H_    0.935977 0.321534 0.636261 0.132881
H12   H     H_    0.682859 0.619150 0.861935 0.186060
H13   H     H_    0.968872 0.347557 0.069972 0.109097
H14   H     H_    0.330352 0.863743 0.447690 0.121926
H15   H     H_    0.651470 0.613459 0.071315 0.147011
H16   H     H_    0.166157 0.479383 0.447563 0.119882
H17   H     H_    0.372039 0.031038 0.072176 0.131930
H18   H     H_    0.517722 0.677732 0.448333 0.128836
H19   H     H_    0.413788 0.062319 0.556124 0.131064
H20   H     H_    0.034128 0.375033 0.927696 0.135179
H21   H     H_    0.528769 0.352459 0.551002 0.153078
H22   H     H_    0.349945 0.973328 0.930337 0.105298
H23   H     H_    0.999503 0.368863 0.564601 0.128386
H24   H     H_    0.652644 0.629165 0.936264 0.155855
O1    O     O_R   0.480350 0.140770 0.796330 -0.504614
O2    O     O_R   0.660420 0.519650 0.703670 -0.517010
O3    O     O_R   0.859230 0.339580 0.796330 -0.506221
O4    O     O_R   0.480350 0.140770 0.703670 -0.526723
O5    O     O_R   0.660420 0.519650 0.796330 -0.514763
O6    O     O_R   0.859230 0.339580 0.703670 -0.545844
O7    O     O_R   0.140770 0.480350 0.296330 -0.529481
O8    O     O_R   0.519650 0.660420 0.203670 -0.503376
O9    O     O_R   0.339580 0.859230 0.296330 -0.532424
O10   O     O_R   0.140770 0.480350 0.203670 -0.501308
O11   O     O_R   0.519650 0.660420 0.296330 -0.527280
O12   O     O_R   0.339580 0.859230 0.203670 -0.502142
O13   O     O_R   0.514930 0.348530 0.793250 -0.449517
O14   O     O_R   0.833600 0.485070 0.706750 -0.468653
O15   O     O_R   0.651470 0.166400 0.793250 -0.453458
O16   O     O_R   0.514930 0.348530 0.706750 -0.514151
O17   O     O_R   0.833600 0.485070 0.793250 -0.459106
O18   O     O_R   0.651470 0.166400 0.706750 -0.480368
O19   O     O_R   0.348530 0.514930 0.293250 -0.500344
O20   O     O_R   0.485070 0.833600 0.206750 -0.461488
O21   O     O_R   0.166400 0.651470 0.293250 -0.499139
O22   O     O_R   0.348530 0.514930 0.206750 -0.454241
O23   O     O_R   0.485070 0.833600 0.293250 -0.494600
O24   O     O_R   0.166400 0.651470 0.206750 -0.454551
O25   O     O_3   0.666667 0.333333 0.750000 -0.248791
O26   O     O_3   0.333333 0.666667 0.250000 -0.251059
O27   O     O_3   0.911872 0.633735 0.852488 -0.515893
C97   C     C_3   0.995231 0.711028 0.825873 0.013986
H25   H     H_    0.016650 0.669521 0.800864 0.123796
H26   H     H_    0.071354 0.766207 0.843902 0.108266
C98   C     C_3   0.954061 0.781714 0.804895 -0.354808
H27   H     H_    0.935353 0.827218 0.829000 0.149663
H28   H     H_    0.018237 0.842108 0.783477 0.085589
H29   H     H_    0.878032 0.728700 0.786478 0.163581
O28   O     O_3   0.658702 0.995591 0.665815 -0.552645
C99   C     C_3   0.773221 0.065686 0.660032 0.023743
H30   H     H_    0.793913 0.152105 0.653565 0.137850
H31   H     H_    0.803491 0.035659 0.633879 0.173686
C100  C     C_3   0.833866 0.065739 0.699813 -0.365260
H32   H     H_    0.817766 0.981003 0.706577 0.143685
H33   H     H_    0.924041 0.121290 0.695835 0.076291
H34   H     H_    0.805442 0.095302 0.726706 0.171361
O29   O     O_3   0.355373 0.291760 0.848160 -0.531510
C101  C     C_3   0.282285 0.322881 0.830269 0.009129
H35   H     H_    0.326631 0.393742 0.808378 0.106658
H36   H     H_    0.241144 0.345504 0.855071 0.144854
C102  C     C_3   0.193366 0.226235 0.805515 -0.369319
H37   H     H_    0.146655 0.154396 0.826568 0.156855
H38   H     H_    0.135199 0.249771 0.791375 0.079743
H39   H     H_    0.231624 0.202661 0.780076 0.153769
O30   O     O_3   0.963602 0.658805 0.659090 -0.552638
C103  C     C_3   0.877668 0.675879 0.644284 0.027504
H40   H     H_    0.798363 0.596483 0.641825 0.149569
H41   H     H_    0.897208 0.716530 0.613080 0.174234
C104  C     C_3   0.862825 0.751266 0.674651 -0.350018
H42   H     H_    0.938836 0.833494 0.675552 0.135547
H43   H     H_    0.792396 0.761553 0.664358 0.118355
H44   H     H_    0.846231 0.715416 0.706669 0.172963
O31   O     O_3   0.738357 0.131103 0.858206 -0.527151
C105  C     C_3   0.753798 0.043324 0.845191 0.019537
H45   H     H_    0.693392 0.994170 0.820100 0.117542
H46   H     H_    0.744971 0.988102 0.871961 0.153515
C106  C     C_3   0.869661 0.090112 0.827644 -0.368389
H47   H     H_    0.931812 0.136529 0.852444 0.154962
H48   H     H_    0.881941 0.021931 0.816321 0.079168
H49   H     H_    0.881910 0.146495 0.801073 0.158497
O32   O     O_3   0.469471 0.578868 0.670120 -0.540464
C107  C     C_3   0.370466 0.513246 0.692228 -0.001010
H50   H     H_    0.298283 0.498562 0.672682 0.142133
H51   H     H_    0.361021 0.432247 0.701852 0.109400
C108  C     C_3   0.370603 0.573773 0.731816 -0.365431
H52   H     H_    0.292539 0.523482 0.749238 0.080483
H53   H     H_    0.441147 0.588168 0.752300 0.154419
H54   H     H_    0.377817 0.654334 0.723551 0.171771
O33   O     O_3   0.656020 0.015064 0.338475 -0.533540
C109  C     C_3   0.722014 0.964505 0.339214 0.025027
H55   H     H_    0.675158 0.875734 0.348153 0.113173
H56   H     H_    0.792301 0.009506 0.361214 0.169154
C110  C     C_3   0.769522 0.971745 0.295764 -0.369493
H57   H     H_    0.818094 0.059298 0.285744 0.151280
H58   H     H_    0.824393 0.935423 0.296229 0.077790
H59   H     H_    0.701808 0.925508 0.272859 0.172116
O34   O     O_3   0.124210 0.735523 0.142857 -0.529026
C111  C     C_3   0.035295 0.747854 0.156811 0.017020
H60   H     H_    0.985571 0.683909 0.180631 0.112729
H61   H     H_    0.980916 0.742161 0.130092 0.154519
C112  C     C_3   0.080445 0.860793 0.177062 -0.368282
H62   H     H_    0.128522 0.926581 0.153809 0.151717
H63   H     H_    0.011237 0.871077 0.188585 0.079650
H64   H     H_    0.134905 0.869068 0.203960 0.161982
O35   O     O_3   0.372656 0.348625 0.340241 -0.529672
C113  C     C_3   0.256672 0.282968 0.336649 0.020906
H65   H     H_    0.213254 0.330915 0.340933 0.118589
H66   H     H_    0.225552 0.215044 0.359935 0.161695
C114  C     C_3   0.227630 0.231282 0.293157 -0.364786
H67   H     H_    0.136657 0.179204 0.289878 0.074082
H68   H     H_    0.258277 0.296795 0.268849 0.167578
H69   H     H_    0.265828 0.179014 0.288210 0.156414
O36   O     O_3   0.638383 0.920483 0.148759 -0.508789
C115  C     C_3   0.715093 0.008196 0.174293 0.008118
H70   H     H_    0.676019 0.010155 0.204299 0.136902
H71   H     H_    0.748164 0.090229 0.158861 0.098125
C116  C     C_3   0.812055 0.990777 0.184021 -0.373120
H72   H     H_    0.853991 0.991056 0.154493 0.161959
H73   H     H_    0.872259 0.058163 0.204614 0.080124
H74   H     H_    0.782680 0.910528 0.200190 0.153724
O37   O     O_3   0.980170 0.630899 0.342379 -0.528790
C117  C     C_3   0.031855 0.746886 0.338743 0.019975
H75   H     H_    0.123425 0.788352 0.341407 0.119828
H76   H     H_    0.999736 0.780064 0.363065 0.160341
C118  C     C_3   0.004101 0.775810 0.296028 -0.363061
H77   H     H_    0.913361 0.739327 0.292657 0.159018
H78   H     H_    0.043960 0.866819 0.292757 0.073556
H79   H     H_    0.034469 0.743395 0.270726 0.164708
O38   O     O_3   0.266130 0.381101 0.145283 -0.527305
C119  C     C_3   0.254199 0.281348 0.161044 0.015580
H80   H     H_    0.315956 0.297899 0.186317 0.113556
H81   H     H_    0.263807 0.231939 0.135734 0.152463
C120  C     C_3   0.139233 0.213114 0.179429 -0.371423
H82   H     H_    0.075882 0.193342 0.154641 0.152452
H83   H     H_    0.129119 0.134906 0.192503 0.077558
H84   H     H_    0.126734 0.259844 0.204878 0.162335
O39   O     O_3   0.086805 0.715660 0.057539 -0.549811
C121  C     C_3   0.199794 0.770656 0.047029 -0.106047
H85   H     H_    0.219381 0.719047 0.026193 0.099278
H86   H     H_    0.253363 0.794664 0.075416 0.166037
H87   H     H_    0.219688 0.847298 0.029766 0.121302
O40   O     O_3   0.704197 0.043196 0.425441 -0.541913
C122  C     C_3   0.734432 0.971356 0.445188 -0.136696
H88   H     H_    0.825796 0.011735 0.445485 0.133860
H89   H     H_    0.702568 0.891215 0.428378 0.075101
H90   H     H_    0.707047 0.956363 0.478322 0.159227
O41   O     O_3   0.288539 0.345708 0.061679 -0.554598
C123  C     C_3   0.227855 0.394856 0.046794 -0.087563
H91   H     H_    0.276220 0.460992 0.023620 0.118421
H92   H     H_    0.200939 0.428574 0.072860 0.152297
H93   H     H_    0.152520 0.330916 0.030651 0.139422
O42   O     O_3   0.965856 0.655563 0.429390 -0.534453
C124  C     C_3   0.037232 0.760114 0.447220 -0.131251
H94   H     H_    0.991912 0.806278 0.449444 0.138662
H95   H     H_    0.112031 0.810669 0.427823 0.068085
H96   H     H_    0.062065 0.751879 0.479536 0.158393
O43   O     O_3   0.667869 0.975431 0.065329 -0.519814
C125  C     C_3   0.758686 0.082498 0.059734 -0.092329
H97   H     H_    0.803362 0.116041 0.089775 0.097663
H98   H     H_    0.734419 0.140600 0.045984 0.103438
H99   H     H_    0.817153 0.077550 0.037667 0.161775
O44   O     O_3   0.348288 0.303694 0.426859 -0.538393
C126  C     C_3   0.242931 0.267672 0.444293 -0.142668
H100  H     H_    0.198013 0.176217 0.445514 0.135035
H101  H     H_    0.191817 0.292546 0.425186 0.078446
H102  H     H_    0.249920 0.297760 0.476946 0.122569
O45   O     O_3   0.656889 0.939378 0.580566 -0.602060
C127  C     C_3   0.592609 0.823840 0.583952 -0.081546
H103  H     H_    0.519409 0.790794 0.562774 0.152517
H104  H     H_    0.566608 0.797851 0.616923 0.199289
H105  H     H_    0.643306 0.787073 0.574100 0.141570
O46   O     O_3   0.969805 0.665271 0.935639 -0.522851
C128  C     C_3   0.076159 0.756081 0.942915 -0.092555
H106  H     H_    0.113990 0.800241 0.913297 0.090140
H107  H     H_    0.132162 0.731741 0.958508 0.109035
H108  H     H_    0.068590 0.814931 0.964008 0.160746
O47   O     O_3   0.399061 0.584265 0.588951 -0.582095
C129  C     C_3   0.285496 0.517518 0.579891 -0.131380
H109  H     H_    0.245519 0.568350 0.583827 0.143819
H110  H     H_    0.243183 0.445461 0.601382 0.094543
H111  H     H_    0.272445 0.488956 0.546827 0.118176
O48   O     O_3   0.718784 0.093879 0.943409 -0.550158
C130  C     C_3   0.771959 0.206341 0.954792 -0.103097
H112  H     H_    0.719667 0.223618 0.976131 0.102445
H113  H     H_    0.794523 0.260900 0.926828 0.164916
H114  H     H_    0.849327 0.227130 0.971862 0.123224
O49   O     O_3   0.052658 0.716847 0.578081 -0.580816
C131  C     C_3   0.166436 0.782203 0.586774 -0.117173
H115  H     H_    0.214923 0.749894 0.570568 0.108205
H116  H     H_    0.183130 0.788572 0.621138 0.150197
H117  H     H_    0.195297 0.866795 0.574827 0.135463
O50   O     O_3   0.328453 0.300646 0.934070 -0.550773
C132  C     C_3   0.347321 0.212602 0.943183 -0.089136
H118  H     H_    0.420702 0.239396 0.963934 0.111971
H119  H     H_    0.356885 0.174782 0.914010 0.154559
H120  H     H_    0.274649 0.147822 0.960113 0.139220

loop_
_geom_bond_atom_site_label_1
_geom_bond_atom_site_label_2
_ccdc_geom_bond_type
C68   C80   A    
C39   C51   A    
C96   H3    S    
C122  H89   S    
C100  H32   S    
C82   C94   A    
Cr2   O17   S    
C108  H54   S    
C129  H111  S    
C45   O35   S    
O29   C101  S    
C107  H51   S    
C126  H100  S    
C3    O15   A    
C127  H105  S    
C91   H2    S    
C6    O4    A    
C46   O36   S    
C35   C47   A    
C29   C89   A    
O28   C99   S    
O31   C105  S    
C4    C30   S    
C130  H113  S    
C6    C26   S    
C57   O44   S    
Cr4   O26   S    
C15   C72   S    
C112  H64   S    
C81   H18   S    
C45   C57   A    
O39   C121  S    
C128  H106  S    
C31   C43   A    
Cr3   O6    S    
C112  H63   S    
C90   H9    S    
C52   O49   S    
C40   C52   A    
O46   C128  S    
C126  H101  S    
C127  H104  S    
Cr1   O4    S    
C129  H109  S    
C114  H69   S    
C54   O47   S    
C84   C96   A    
O48   C130  S    
C21   C66   S    
C13   C68   S    
C3    O1    A    
C24   C63   S    
C5    O17   A    
C107  C108  S    
C101  H35   S    
C60   C72   A    
C19   C62   S    
C121  H86   S    
C18   C21   T    
C104  H42   S    
C88   H11   S    
C33   C45   A    
C8    O12   A    
O44   C126  S    
Cr6   O12   S    
C20   C61   S    
C106  H48   S    
C44   C56   A    
Cr6   O9    S    
C39   O29   S    
C87   H12   S    
C116  H73   S    
C92   H1    S    
C25   C37   A    
C113  H66   S    
C11   O23   A    
C98   H27   S    
C106  H49   S    
C27   C39   A    
C84   H15   S    
C132  H119  S    
C109  C110  S    
Cr2   O5    S    
C28   C88   A    
C2    O6    A    
C14   C67   S    
C62   C74   A    
C34   C46   A    
C89   H10   S    
C53   C65   A    
C124  H94   S    
C76   C88   A    
C97   H26   S    
C47   O37   S    
C1    O13   A    
C131  H117  S    
Cr1   O1    S    
C29   C41   A    
C65   C77   A    
C18   C69   S    
C104  H43   S    
C107  H50   S    
C122  H90   S    
C11   C31   S    
C17   C70   S    
C100  H33   S    
C102  H37   S    
O43   C125  S    
C46   C58   A    
C76   H23   S    
C7    C33   S    
C125  H99   S    
C108  H52   S    
C16   C71   S    
C117  H76   S    
C82   H17   S    
C123  H93   S    
C14   C19   T    
C116  H72   S    
C131  H116  S    
C48   C60   A    
C130  H114  S    
C99   H31   S    
Cr2   O25   S    
C102  H38   S    
C64   C76   A    
C66   C78   A    
O34   C111  S    
C8    O20   A    
C94   H5    S    
C119  C120  S    
C49   C61   A    
C109  H55   S    
Cr3   O3    S    
C9    C35   S    
C12   O24   A    
C59   O42   S    
C86   H7    S    
C67   C79   A    
C127  H103  S    
C97   C98   S    
C123  H92   S    
C85   H8    S    
C52   C64   A    
C119  H81   S    
C7    O11   A    
C4    O2    A    
C51   O50   S    
C58   C70   A    
C61   C73   A    
C121  H85   S    
C56   C68   A    
Cr3   O25   S    
C50   O45   S    
C9    O21   A    
C78   C90   A    
Cr2   O14   S    
C10   C36   S    
C117  C118  S    
C80   C92   A    
C42   O32   S    
C27   C87   A    
O49   C131  S    
C22   C65   S    
C43   O33   S    
O40   C122  S    
C95   H4    S    
C11   O9    A    
Cr6   O21   S    
C60   O41   S    
C114  H67   S    
C37   C49   A    
Cr3   O18   S    
C55   C67   A    
C30   C90   A    
C58   O43   S    
C80   H13   S    
C112  H62   S    
Cr4   O19   S    
C26   C86   A    
C132  H120  S    
C83   C95   A    
C56   O39   S    
C126  H102  S    
C25   C85   A    
O36   C115  S    
Cr1   O25   S    
C41   O31   S    
Cr5   O20   S    
C115  H70   S    
C8    C34   S    
C74   C86   A    
C108  H53   S    
C81   C93   A    
C78   H21   S    
C124  H95   S    
C41   C53   A    
C97   H25   S    
C72   C84   A    
C109  H56   S    
Cr6   O26   S    
Cr6   O24   S    
C5    C25   S    
C75   C87   A    
C23   C64   S    
O35   C113  S    
C114  H68   S    
O32   C107  S    
C16   C23   T    
C111  H61   S    
C120  H83   S    
C50   C62   A    
C125  H98   S    
C5    O3    A    
C120  H84   S    
C98   H28   S    
C121  H87   S    
C117  H75   S    
C105  H46   S    
O41   C123  S    
C111  C112  S    
C36   C96   A    
C53   O48   S    
C130  H112  S    
Cr4   O7    S    
C83   H16   S    
C113  C114  S    
O47   C129  S    
C99   H30   S    
O37   C117  S    
C110  H59   S    
C43   C55   A    
C51   C63   A    
C110  H57   S    
C15   C24   T    
Cr5   O11   S    
C104  H44   S    
C13   C20   T    
C119  H80   S    
C99   C100  S    
C79   C91   A    
C128  H108  S    
C73   H20   S    
C26   C38   A    
C34   C94   A    
C31   C91   A    
C120  H82   S    
C123  H91   S    
C1    O5    A    
C33   C93   A    
C103  H41   S    
Cr3   O15   S    
C100  H34   S    
C38   C50   A    
Cr2   O2    S    
C35   C95   A    
C98   H29   S    
C116  H74   S    
C115  C116  S    
C49   O46   S    
C115  H71   S    
C17   C22   T    
C55   O40   S    
C44   O34   S    
C75   H24   S    
C2    O14   A    
C105  C106  S    
C118  H78   S    
C74   H19   S    
O42   C124  S    
O45   C127  S    
C73   C85   A    
C93   H6    S    
C77   H22   S    
Cr5   O8    S    
C42   C54   A    
C37   O27   S    
C79   H14   S    
C4    O16   A    
C71   C83   A    
C3    C29   S    
C113  H65   S    
C32   C92   A    
C63   C75   A    
O50   C132  S    
Cr4   O22   S    
O38   C119  S    
Cr5   O23   S    
C77   C89   A    
C102  H39   S    
Cr5   O26   S    
C38   O28   S    
C36   C48   A    
C129  H110  S    
C111  H60   S    
C106  H47   S    
C70   C82   A    
C124  H96   S    
C118  H77   S    
Cr1   O16   S    
C105  H45   S    
C103  C104  S    
C69   C81   A    
O30   C103  S    
C47   C59   A    
C40   O30   S    
C48   O38   S    
Cr4   O10   S    
C10   O8    A    
C131  H115  S    
O33   C109  S    
C32   C44   A    
C128  H107  S    
C132  H118  S    
C12   O10   A    
C118  H79   S    
C10   O22   A    
C1    C27   S    
C28   C40   A    
C125  H97   S    
C30   C42   A    
C2    C28   S    
C101  H36   S    
C57   C69   A    
O27   C97   S    
C54   C66   A    
C110  H58   S    
C6    O18   A    
Cr1   O13   S    
C12   C32   S    
C122  H88   S    
C59   C71   A    
C103  H40   S    
C7    O19   A    
C101  C102  S    
C9    O7    A    
