data_mof_unit_46086.cif
_audit_creation_date              2012-12-10T16:39:32-0500
_audit_creation_method            fapswitch 2.2
_symmetry_space_group_name_H-M    P1
_symmetry_Int_Tables_number       1
_space_group_crystal_system       triclinic
_cell_length_a                    16.763599
_cell_length_b                    16.82151
_cell_length_c                    16.74612
_cell_angle_alpha                 66.14616
_cell_angle_beta                  65.668345
_cell_angle_gamma                 66.362033
_cell_volume                      3776.44486382

loop_
_atom_site_label
_atom_site_type_symbol
_atom_type_description
_atom_site_fract_x
_atom_site_fract_y
_atom_site_fract_z
_atom_type_partial_charge
C1    C     C_R   0.331705 0.920049 0.467120 0.005318
C2    C     C_R   0.324268 0.456558 0.959019 0.001936
C3    C     C_R   0.537449 0.405887 0.013773 0.031361
C4    C     C_R   0.954793 0.471889 0.608149 0.028518
C5    C     C_R   0.021915 0.518953 0.416148 0.030358
C6    C     C_R   0.031872 0.671909 0.559439 -0.003491
C7    C     C_R   0.936532 0.325817 0.463906 0.004244
C8    C     C_R   0.475334 0.918366 0.476025 -0.031485
C9    C     C_R   0.573718 0.927266 0.574396 -0.030544
C10   C     C_R   0.980678 0.447782 0.464177 -0.029904
C11   C     C_R   0.993252 0.545251 0.559805 -0.028757
C12   C     C_R   0.451474 0.451636 0.999244 -0.034321
C13   C     C_R   0.532426 0.533509 0.051987 -0.033430
C14   C     C_R   0.957425 0.179003 0.440381 0.970596
C15   C     C_R   0.711723 0.943564 0.577619 0.005943
C16   C     C_R   0.029238 0.820952 0.566560 0.881794
C17   C     C_R   0.179903 0.437531 0.963362 0.960791
C18   C     C_R   0.820888 0.563176 0.034372 0.935710
C19   C     C_R   0.439091 0.958351 0.179791 0.931169
C20   C     C_R   0.575644 0.990739 0.839994 0.979421
C21   C     C_R   0.563003 0.821050 0.034358 0.907602
C22   C     C_R   0.437533 0.179725 0.963734 0.983644
C23   C     C_R   0.993988 0.574824 0.837840 0.974618
C24   C     C_R   0.975939 0.431544 0.177956 0.944690
C25   C     C_R   0.839581 0.990918 0.575897 0.959382
C26   C     C_R   0.996541 0.430400 0.319625 -0.006782
C27   C     C_R   0.179653 0.958233 0.439285 0.940467
C28   C     C_R   0.424602 0.919001 0.425241 0.069822
C29   C     C_R   0.621017 0.937774 0.621646 0.072901
C30   C     C_R   0.970442 0.401994 0.416028 0.070793
C31   C     C_R   0.996896 0.595872 0.607417 0.072360
C32   C     C_R   0.410965 0.410680 0.972320 0.064153
C33   C     C_R   0.578852 0.580085 0.063563 0.072553
C34   C     C_R   0.280373 0.926990 0.412678 -0.207479
C35   C     C_R   0.755065 0.962793 0.623363 -0.216288
C36   C     C_R   0.967773 0.394529 0.274754 -0.209653
C37   C     C_R   0.966940 0.569606 0.703577 0.005388
C38   C     C_R   0.978078 0.617346 0.749292 -0.192637
C39   C     C_R   0.409697 0.278883 0.944111 -0.210516
C40   C     C_R   0.594346 0.724165 0.047695 -0.187415
C41   C     C_R   0.622910 0.962513 0.755701 -0.208060
C42   C     C_R   0.412219 0.927061 0.280765 -0.204190
C43   C     C_R   0.723581 0.594974 0.047854 -0.197848
C44   C     C_R   0.279544 0.409380 0.943409 -0.201369
C45   C     C_R   0.020980 0.729169 0.609808 -0.208827
C46   C     C_R   0.933173 0.278073 0.412661 -0.198753
C47   C     C_R   0.490892 0.925148 0.757907 -0.194272
C48   C     C_R   0.456861 0.323646 0.959886 0.004602
C49   C     C_R   0.561866 0.909637 0.295714 -0.209732
C50   C     C_R   0.073035 0.689049 0.463639 -0.208581
C51   C     C_R   0.906281 0.300385 0.560472 -0.196664
C52   C     C_R   0.704668 0.443678 0.076834 -0.195967
C53   C     C_R   0.286091 0.548274 0.961260 -0.212583
C54   C     C_R   0.295253 0.909204 0.562773 -0.207277
C55   C     C_R   0.756762 0.926149 0.491089 -0.198553
C56   C     C_R   0.548639 0.285450 0.962802 -0.200418
C57   C     C_R   0.442080 0.706035 0.075739 -0.203587
C58   C     C_R   0.047735 0.494514 0.273065 -0.215747
C59   C     C_R   0.536915 0.670764 0.065984 0.004544
C60   C     C_R   0.926750 0.497307 0.751259 -0.192984
C61   C     C_R   0.326006 0.913887 0.326435 0.307584
C62   C     C_R   0.714640 0.959620 0.715318 0.336717
C63   C     C_R   0.928509 0.322884 0.324833 0.305646
C64   C     C_R   0.986918 0.703214 0.705083 0.312955
C65   C     C_R   0.327755 0.327073 0.923768 0.291902
C66   C     C_R   0.687538 0.687624 0.022683 0.278021
C67   C     C_R   0.709355 0.918990 0.443166 0.104764
C68   C     C_R   0.344750 0.910058 0.612569 0.103820
C69   C     C_R   0.920907 0.448300 0.704278 0.109687
C70   C     C_R   0.577201 0.943111 0.712521 0.005091
C71   C     C_R   0.058238 0.540340 0.320366 0.108065
C72   C     C_R   0.398785 0.664010 0.055125 0.107461
C73   C     C_R   0.586048 0.322124 0.995744 0.100295
C74   C     C_R   0.611470 0.910967 0.345055 0.104339
C75   C     C_R   0.443002 0.917771 0.710585 0.104833
C76   C     C_R   0.321767 0.585917 0.994911 0.101289
C77   C     C_R   0.663227 0.400259 0.055749 0.100166
C78   C     C_R   0.910830 0.349350 0.608671 0.106734
C79   C     C_R   0.070624 0.638163 0.415923 0.103818
C80   C     C_R   0.753443 0.908656 0.354735 -0.190810
C81   C     C_R   0.466450 0.920192 0.332218 0.005779
C82   C     C_R   0.306140 0.903107 0.706377 -0.195030
C83   C     C_R   0.881900 0.375829 0.751902 -0.195239
C84   C     C_R   0.103146 0.608512 0.273210 -0.203564
C85   C     C_R   0.312456 0.709358 0.041862 -0.210372
C86   C     C_R   0.671947 0.276368 0.010312 -0.209427
C87   C     C_R   0.704926 0.904879 0.306077 -0.196544
C88   C     C_R   0.354886 0.906664 0.754975 -0.186355
C89   C     C_R   0.275371 0.671679 0.009498 -0.227680
C90   C     C_R   0.709162 0.314076 0.042506 -0.198455
C91   C     C_R   0.877321 0.326492 0.704520 -0.195308
C92   C     C_R   0.669574 0.538150 0.066496 0.001331
C93   C     C_R   0.109029 0.657170 0.320526 -0.191266
C94   C     C_R   0.567536 0.917896 0.434766 0.030375
C95   C     C_R   0.483453 0.921583 0.617576 0.029070
C96   C     C_R   0.949115 0.422758 0.560325 0.027043
C97   C     C_R   0.028328 0.567676 0.463969 0.027819
C98   C     C_R   0.405297 0.537701 0.013469 0.033376
C99   C     C_R   0.577290 0.446207 0.041313 0.030571
C100  C     C_R   0.616623 0.922177 0.483894 0.029498
C101  C     C_R   0.434286 0.917382 0.568458 0.030327
C102  C     C_R   0.445119 0.577994 0.041063 0.031495
Cl1   Cl    Cl    0.278734 0.871897 0.279233 -0.628707
Cl2   Cl    Cl    0.780719 0.947815 0.782267 -0.460122
Cl3   Cl    Cl    0.868206 0.289782 0.283143 -0.587067
Cl4   Cl    Cl    0.947875 0.776858 0.774135 -0.464582
Cl5   Cl    Cl    0.287958 0.286740 0.868066 -0.553606
Cl6   Cl    Cl    0.757298 0.755844 0.933339 -0.503645
H1    H     H_    0.322980 0.902266 0.827007 0.141692
H2    H     H_    0.275757 0.775843 0.052029 0.147111
H3    H     H_    0.132210 0.625428 0.199478 0.151752
H4    H     H_    0.855335 0.356977 0.825894 0.147143
H5    H     H_    0.460430 0.913897 0.830851 0.170199
H6    H     H_    0.600268 0.896193 0.230431 0.174730
H7    H     H_    0.108124 0.740999 0.425284 0.192322
H8    H     H_    0.875182 0.245236 0.598335 0.168616
H9    H     H_    0.766397 0.403423 0.095601 0.203280
H10   H     H_    0.230833 0.594063 0.933433 0.184204
H11   H     H_    0.229879 0.895898 0.601178 0.176570
H12   H     H_    0.740335 0.898344 0.237411 0.146304
H13   H     H_    0.829515 0.915045 0.460471 0.170918
H14   H     H_    0.594847 0.229435 0.935927 0.180921
H15   H     H_    0.401499 0.768170 0.093736 0.200697
H16   H     H_    0.081213 0.509161 0.200310 0.173793
H17   H     H_    0.897260 0.480485 0.824939 0.159919
H18   H     H_    0.142626 0.710468 0.282294 0.165260
H19   H     H_    0.847297 0.270607 0.742876 0.148889
H20   H     H_    0.775766 0.277848 0.052683 0.151604
H21   H     H_    0.210121 0.709307 0.996485 0.141365
H22   H     H_    0.237703 0.896051 0.742009 0.146465
H23   H     H_    0.825195 0.904985 0.322532 0.143347
H24   H     H_    0.710035 0.211140 0.997430 0.143577
O1    O     O_R   0.982940 0.138950 0.510160 -0.642183
O2    O     O_R   0.982940 0.510160 0.138950 -0.655759
O3    O     O_R   0.861050 0.017060 0.489840 -0.642567
O4    O     O_R   0.138950 0.982940 0.510160 -0.651070
O5    O     O_R   0.867700 0.025880 0.612340 -0.565726
O6    O     O_R   0.132300 0.974120 0.387660 -0.559532
O7    O     O_R   0.025880 0.612340 0.867700 -0.564522
O8    O     O_R   0.974120 0.387660 0.132300 -0.569844
O9    O     O_R   0.612340 0.867700 0.025880 -0.579328
O10   O     O_R   0.387660 0.132300 0.974120 -0.552891
O11   O     O_R   0.387660 0.974120 0.132300 -0.563841
O12   O     O_R   0.017060 0.861050 0.489840 -0.673052
O13   O     O_R   0.612340 0.025880 0.867700 -0.561639
O14   O     O_R   0.132300 0.387660 0.974120 -0.557447
O15   O     O_R   0.867700 0.612340 0.025880 -0.564694
O16   O     O_R   0.974120 0.132300 0.387660 -0.558538
O17   O     O_R   0.025880 0.867700 0.612340 -0.574988
O18   O     O_R   0.138950 0.510160 0.982940 -0.671583
O19   O     O_R   0.861050 0.489840 0.017060 -0.682538
O20   O     O_R   0.510160 0.982940 0.138950 -0.655752
O21   O     O_R   0.489840 0.017060 0.861050 -0.639479
O22   O     O_R   0.489840 0.861050 0.017060 -0.687265
O23   O     O_R   0.510160 0.138950 0.982940 -0.656240
O24   O     O_R   0.017060 0.489840 0.861050 -0.634733
Zn1   Zn    Zn3+2 0.004880 0.004880 0.583590 1.034397
Zn2   Zn    Zn3+2 0.995120 0.995120 0.416410 1.021756
Zn3   Zn    Zn3+2 0.004880 0.583590 0.004880 1.015143
Zn4   Zn    Zn3+2 0.995120 0.416410 0.995120 1.021280
Zn5   Zn    Zn3+2 0.583590 0.004880 0.004880 1.017132
Zn6   Zn    Zn3+2 0.416410 0.995120 0.995120 1.016169

loop_
_geom_bond_atom_site_label_1
_geom_bond_atom_site_label_2
_ccdc_geom_bond_type
C55   H13   S    
O9    Zn5   S    
C6    C45   A    
C15   C29   A    
C32   C48   A    
C74   C94   A    
C17   O18   A    
C48   C56   A    
O15   Zn3   S    
C50   C79   A    
C72   C85   A    
C75   C95   A    
C14   C46   S    
O23   Zn5   S    
C24   C36   S    
C91   H19   S    
C27   O4    A    
C23   O7    A    
C60   H17   S    
C16   O12   A    
C35   C62   A    
C79   C93   A    
C80   C87   A    
C58   C71   A    
C57   C59   A    
O14   Zn4   S    
C76   C98   A    
C14   O16   A    
C89   H21   S    
C2    C32   A    
C50   H7    S    
C49   C81   A    
O6    Zn2   S    
C93   H18   S    
C3    C12   A    
C4    C96   A    
C78   C96   A    
C1    C28   A    
C21   O22   A    
C77   C99   A    
C16   O17   A    
C10   C96   A    
C74   C87   A    
C63   Cl3   S    
C36   C63   A    
C8    C101  A    
C9    C95   A    
O11   Zn6   S    
C12   C98   A    
O20   Zn5   S    
C19   C42   S    
C9    C29   A    
C76   C89   A    
C52   H9    S    
O2    Zn3   S    
C11   C31   A    
C33   C59   A    
C40   C59   A    
C40   C66   A    
C54   H11   S    
C12   C32   A    
C39   C65   A    
C44   C65   A    
C42   C81   A    
C41   C62   A    
C3    C73   A    
C15   C35   A    
C4    C69   A    
C79   C97   A    
C1    C34   A    
C20   C41   S    
C38   C64   A    
C22   O23   A    
C27   C34   S    
C77   C90   A    
C84   H3    S    
O18   Zn3   S    
C27   O6    A    
C7    C46   A    
O24   Zn4   S    
C8    C94   A    
C68   C101  A    
C72   C102  A    
C80   H23   S    
C18   O15   A    
C20   O21   A    
C33   C92   A    
C2    C44   A    
C85   C89   A    
C53   H10   S    
C18   O19   A    
C98   C102  A    
C62   Cl2   S    
C24   O8    A    
C31   C37   A    
C56   H14   S    
C13   C99   A    
C25   O5    A    
C1    C54   A    
C83   H4    S    
C47   C70   A    
C13   C33   A    
C37   C38   A    
C69   C83   A    
C57   H15   S    
C10   C30   A    
C94   C100  A    
C22   O10   A    
C19   O20   A    
O16   Zn2   S    
C6    C50   A    
C4    C11   A    
C64   Cl4   S    
C26   C58   A    
C42   C61   A    
C67   C100  A    
C25   C35   S    
O4    Zn1   S    
C26   C36   A    
C5    C97   A    
C85   H2    S    
C9    C100  A    
C86   C90   A    
C8    C28   A    
C52   C92   A    
C53   C76   A    
C82   H22   S    
C88   H1    S    
O12   Zn2   S    
C52   C77   A    
C71   C84   A    
C7    C51   A    
C24   O2    A    
C47   H5    S    
C19   O11   A    
C56   C73   A    
C61   Cl1   S    
C28   C81   A    
C49   C74   A    
O22   Zn6   S    
C67   C80   A    
C51   H8    S    
C66   Cl6   S    
C47   C75   A    
C2    C53   A    
C16   C45   S    
O10   Zn6   S    
C55   C67   A    
C26   C30   A    
C14   O1    A    
C78   C91   A    
C23   C38   S    
C83   C91   A    
O21   Zn6   S    
C45   C64   A    
C58   H16   S    
C43   C92   A    
O5    Zn1   S    
C46   C63   A    
C11   C97   A    
C68   C82   A    
O19   Zn4   S    
C17   O14   A    
C17   C44   S    
C21   O9    A    
C5    C10   A    
C5    C71   A    
C18   C43   S    
O8    Zn4   S    
C49   H6    S    
C86   H24   S    
C21   C40   S    
O13   Zn5   S    
C60   C69   A    
C43   C66   A    
C82   C88   A    
C22   C39   S    
C6    C31   A    
C29   C70   A    
O1    Zn1   S    
C84   C93   A    
C34   C61   A    
C57   C72   A    
C25   O3    A    
C73   C86   A    
C51   C78   A    
C37   C60   A    
O7    Zn3   S    
C3    C99   A    
C75   C88   A    
C87   H12   S    
C54   C68   A    
C7    C30   A    
O3    Zn2   S    
C90   H20   S    
C20   O13   A    
C41   C70   A    
C13   C102  A    
C23   O24   A    
O17   Zn1   S    
C65   Cl5   S    
C95   C101  A    
C15   C55   A    
C39   C48   A    
