data_mof_unit_60491.cif
_audit_creation_date              2012-10-26T18:39:52-0400
_audit_creation_method            fapswitch 2.2
_symmetry_space_group_name_H-M    P1
_symmetry_Int_Tables_number       1
_space_group_crystal_system       triclinic
_cell_length_a                    27.624929
_cell_length_b                    27.205058
_cell_length_c                    18.066956
_cell_angle_alpha                 89.997684
_cell_angle_beta                  90.002236
_cell_angle_gamma                 90.000099
_cell_volume                      13578.0002656

loop_
_atom_site_label
_atom_site_type_symbol
_atom_type_description
_atom_site_fract_x
_atom_site_fract_y
_atom_site_fract_z
_atom_type_partial_charge
C1    C     C_R   0.066361 0.433619 0.500026 0.556687
C2    C     C_R   0.000000 0.499998 0.840359 -0.052492
C3    C     C_R   0.500002 0.999998 0.159641 -0.052462
C4    C     C_R   0.500000 0.999998 0.840359 -0.052440
C5    C     C_R   0.002126 0.544005 0.200047 -0.141214
C6    C     C_R   0.002119 0.455992 0.799951 -0.141186
C7    C     C_R   0.997878 0.455992 0.200055 -0.141177
C8    C     C_R   0.997881 0.544006 0.799947 -0.141149
C9    C     C_R   0.502128 0.044005 0.200047 -0.141171
C10   C     C_R   0.502131 0.955992 0.799951 -0.141199
C11   C     C_R   0.497877 0.955992 0.200055 -0.141128
C12   C     C_R   0.933631 0.566374 0.500021 0.556545
C13   C     C_R   0.497869 0.044005 0.799947 -0.141159
C14   C     C_R   0.000698 0.543788 0.278788 0.386969
C15   C     C_R   0.000692 0.456212 0.721212 0.386967
C16   C     C_R   0.999304 0.456212 0.278793 0.386977
C17   C     C_R   0.999308 0.543787 0.721209 0.386991
C18   C     C_R   0.500701 0.043788 0.278788 0.386992
C19   C     C_R   0.500703 0.956211 0.721210 0.386979
C20   C     C_R   0.499303 0.956212 0.278793 0.386995
C21   C     C_R   0.499297 0.043788 0.721208 0.386998
C22   C     C_R   0.874167 0.380755 0.566366 -0.113872
C23   C     C_R   0.933639 0.433619 0.499976 0.556679
C24   C     C_R   0.119326 0.625730 0.433082 -0.094940
C25   C     C_R   0.125833 0.619243 0.566366 -0.113871
C26   C     C_R   0.880675 0.374269 0.433082 -0.094908
C27   C     C_R   0.125830 0.380756 0.433637 -0.113864
C28   C     C_R   0.880541 0.625609 0.566843 -0.094360
C29   C     C_R   0.874121 0.619173 0.433664 -0.113104
C30   C     C_R   0.119327 0.374268 0.566922 -0.094910
C31   C     C_R   0.374121 0.880830 0.566332 -0.113112
C32   C     C_R   0.619455 0.125617 0.433154 -0.094400
C33   C     C_R   0.625884 0.119165 0.566331 -0.113113
C34   C     C_R   0.066361 0.566381 0.499976 0.556699
C35   C     C_R   0.380541 0.874387 0.433154 -0.094365
C36   C     C_R   0.625846 0.880773 0.433641 -0.113886
C37   C     C_R   0.380540 0.125609 0.566843 -0.094396
C38   C     C_R   0.374119 0.119173 0.433664 -0.113118
C39   C     C_R   0.619311 0.874253 0.566918 -0.094947
C40   C     C_R   0.838403 0.344653 0.566506 0.347253
C41   C     C_R   0.155248 0.661692 0.432742 0.350046
C42   C     C_R   0.161598 0.655345 0.566506 0.347259
C43   C     C_R   0.844753 0.338307 0.432743 0.350074
C44   C     C_R   0.161594 0.344654 0.433497 0.347257
C45   C     C_R   0.566360 0.933619 0.500026 0.556682
C46   C     C_R   0.844558 0.661503 0.567241 0.350635
C47   C     C_R   0.838258 0.655167 0.433443 0.347911
C48   C     C_R   0.155248 0.338305 0.567261 0.350074
C49   C     C_R   0.338257 0.844836 0.566553 0.347901
C50   C     C_R   0.655438 0.161511 0.432757 0.350614
C51   C     C_R   0.661748 0.155158 0.566553 0.347905
C52   C     C_R   0.344559 0.838492 0.432757 0.350640
C53   C     C_R   0.661610 0.844672 0.433500 0.347255
C54   C     C_R   0.344557 0.161503 0.567241 0.350614
C55   C     C_R   0.338255 0.155166 0.433443 0.347901
C56   C     C_R   0.433630 0.066374 0.500021 0.556540
C57   C     C_R   0.655232 0.838290 0.567257 0.350049
C58   C     C_R   0.823267 0.323036 0.499579 0.044691
C59   C     C_R   0.176734 0.676962 0.499578 0.044695
C60   C     C_R   0.176732 0.323035 0.500425 0.044692
C61   C     C_R   0.822911 0.676856 0.500384 0.042420
C62   C     C_R   0.322912 0.823143 0.499613 0.042421
C63   C     C_R   0.677089 0.176856 0.499613 0.042425
C64   C     C_R   0.676732 0.823036 0.500424 0.044691
C65   C     C_R   0.322910 0.176855 0.500385 0.042425
C66   C     C_R   0.000001 0.499998 0.923950 0.364677
C67   C     C_R   0.433631 0.933625 0.499977 0.556529
C68   C     C_R   0.000002 0.499997 0.076050 0.364677
C69   C     C_R   0.500001 0.999997 0.923950 0.364697
C70   C     C_R   0.500002 0.999997 0.076050 0.364698
C71   C     C_R   0.895709 0.395727 0.499824 -0.107837
C72   C     C_R   0.104291 0.604273 0.499824 -0.107832
C73   C     C_R   0.104291 0.395726 0.500179 -0.107828
C74   C     C_R   0.895650 0.604219 0.500160 -0.108200
C75   C     C_R   0.395650 0.895780 0.499836 -0.108210
C76   C     C_R   0.604351 0.104219 0.499836 -0.108207
C77   C     C_R   0.604290 0.895727 0.500179 -0.107847
C78   C     C_R   0.566369 0.066374 0.499977 0.556549
C79   C     C_R   0.395649 0.104219 0.500161 -0.108214
C80   C     C_R   0.214680 0.715029 0.499501 0.374008
C81   C     C_R   0.785321 0.284970 0.499501 0.374009
C82   C     C_R   0.784710 0.714985 0.500462 0.367823
C83   C     C_R   0.214677 0.284968 0.500502 0.374016
C84   C     C_R   0.715290 0.214985 0.499536 0.367856
C85   C     C_R   0.284711 0.785014 0.499536 0.367861
C86   C     C_R   0.284709 0.214983 0.500463 0.367866
C87   C     C_R   0.714678 0.784969 0.500501 0.373973
C88   C     C_3   0.974094 0.624449 0.290400 -0.101937
C89   C     C_R   0.000002 0.499998 0.159641 -0.052471
C90   C     C_3   0.973997 0.375595 0.709530 -0.101886
C91   C     C_3   0.025996 0.375594 0.290484 -0.101896
C92   C     C_3   0.026007 0.624402 0.709522 -0.101874
C93   C     C_3   0.474096 0.124448 0.290402 -0.101920
C94   C     C_3   0.474106 0.875548 0.709591 -0.101946
C95   C     C_3   0.526011 0.875602 0.290497 -0.101854
C96   C     C_3   0.525904 0.124447 0.709579 -0.101919
Cu1   Cu    Cu3+1 0.000000 0.500000 0.573360 1.083411
Cu2   Cu    Cu3+1 0.000000 0.500000 0.426640 1.083415
Cu3   Cu    Cu3+1 0.500000 0.000000 0.573360 1.083460
Cu4   Cu    Cu3+1 0.500000 0.000000 0.426640 1.083452
F1    F     F_    0.817879 0.331898 0.632026 -0.573808
F2    F     F_    0.669336 0.180452 0.366574 -0.565438
F3    F     F_    0.680741 0.168965 0.632656 -0.573505
F4    F     F_    0.330656 0.819556 0.366574 -0.565401
F5    F     F_    0.682147 0.831936 0.367984 -0.573801
F6    F     F_    0.330654 0.180434 0.633425 -0.565432
F7    F     F_    0.319266 0.168982 0.367340 -0.573508
F8    F     F_    0.668015 0.817730 0.632880 -0.566470
F9    F     F_    0.168045 0.682235 0.367115 -0.566471
F10   F     F_    0.182123 0.668099 0.632027 -0.573802
F11   F     F_    0.831956 0.317765 0.367117 -0.566433
F12   F     F_    0.182115 0.331900 0.367976 -0.573801
F13   F     F_    0.830657 0.680434 0.633425 -0.565411
F14   F     F_    0.819269 0.668981 0.367338 -0.573504
F15   F     F_    0.168047 0.317761 0.632888 -0.566435
F16   F     F_    0.319269 0.831024 0.632656 -0.573504
H1    H     H_    0.005127 0.578381 0.170378 0.143158
H2    H     H_    0.103117 0.614920 0.380971 0.201139
H3    H     H_    0.115354 0.602715 0.618441 0.168783
H4    H     H_    0.896883 0.385080 0.380973 0.201167
H5    H     H_    0.115349 0.397285 0.381563 0.168790
H6    H     H_    0.896535 0.614567 0.619002 0.201372
H7    H     H_    0.884898 0.602910 0.381543 0.169117
H8    H     H_    0.103120 0.385078 0.619032 0.201154
H9    H     H_    0.384898 0.897096 0.618452 0.169126
H10   H     H_    0.603457 0.114581 0.380996 0.201351
H11   H     H_    0.615111 0.102895 0.618452 0.169113
H12   H     H_    0.005114 0.421613 0.829613 0.143207
H13   H     H_    0.396536 0.885426 0.380996 0.201379
H14   H     H_    0.615376 0.897316 0.381570 0.168788
H15   H     H_    0.396535 0.114567 0.619002 0.201362
H16   H     H_    0.384896 0.102909 0.381544 0.169117
H17   H     H_    0.603091 0.885049 0.619025 0.201154
H18   H     H_    0.966068 0.651119 0.335198 0.164804
H19   H     H_    0.938752 0.610325 0.269610 0.124679
H20   H     H_    0.993622 0.644762 0.246240 0.145537
H21   H     H_    0.965981 0.348936 0.664713 0.164640
H22   H     H_    0.938652 0.389773 0.730223 0.124350
H23   H     H_    0.994880 0.421613 0.170396 0.143207
H24   H     H_    0.993443 0.355255 0.753746 0.145562
H25   H     H_    0.034011 0.348934 0.335305 0.164638
H26   H     H_    0.061341 0.389770 0.269788 0.124339
H27   H     H_    0.006548 0.355254 0.246271 0.145563
H28   H     H_    0.034022 0.651062 0.664703 0.164602
H29   H     H_    0.061351 0.610222 0.730217 0.124323
H30   H     H_    0.006563 0.644743 0.753736 0.145545
H31   H     H_    0.466071 0.151118 0.335202 0.164762
H32   H     H_    0.438753 0.110323 0.269616 0.124671
H33   H     H_    0.493620 0.144762 0.246241 0.145519
H34   H     H_    0.994886 0.578384 0.829607 0.143227
H35   H     H_    0.466082 0.848879 0.664789 0.164798
H36   H     H_    0.438763 0.889668 0.730378 0.124690
H37   H     H_    0.493636 0.855235 0.753750 0.145539
H38   H     H_    0.534023 0.848946 0.335323 0.164591
H39   H     H_    0.561356 0.889789 0.269820 0.124321
H40   H     H_    0.506579 0.855257 0.246273 0.145537
H41   H     H_    0.533928 0.151115 0.664774 0.164757
H42   H     H_    0.561247 0.110319 0.730361 0.124654
H43   H     H_    0.506384 0.144762 0.753741 0.145517
H44   H     H_    0.505130 0.078381 0.170378 0.143177
H45   H     H_    0.505137 0.921616 0.829619 0.143157
H46   H     H_    0.494877 0.921612 0.170398 0.143234
H47   H     H_    0.494864 0.078381 0.829612 0.143181
H48   H     H_    0.884647 0.397283 0.618440 0.168792
N1    N     N_R   1.000000 0.500000 0.316380 -0.195092
N2    N     N_R   0.499988 0.042837 0.962975 -0.202416
N3    N     N_R   0.500011 0.042837 0.037020 -0.202414
N4    N     N_R   0.500015 0.957158 0.962980 -0.202426
N5    N     N_R   0.756382 0.278608 0.439617 -0.113750
N6    N     N_R   0.221379 0.744313 0.559380 -0.117082
N7    N     N_R   0.243620 0.721390 0.439619 -0.113744
N8    N     N_R   0.778622 0.255687 0.559383 -0.117072
N9    N     N_R   0.243619 0.278605 0.560384 -0.113753
N10   N     N_R   0.755683 0.721407 0.440632 -0.107862
N11   N     N_R   0.777926 0.744316 0.560335 -0.108075
N12   N     N_R   1.000000 0.500000 0.683620 -0.195131
N13   N     N_R   0.221374 0.255686 0.440620 -0.117073
N14   N     N_R   0.277951 0.755655 0.439687 -0.108102
N15   N     N_R   0.744340 0.221379 0.559346 -0.107867
N16   N     N_R   0.722051 0.244343 0.439684 -0.108115
N17   N     N_R   0.255661 0.778620 0.559344 -0.107878
N18   N     N_R   0.743595 0.778581 0.560405 -0.113721
N19   N     N_R   0.255656 0.221379 0.440655 -0.107878
N20   N     N_R   0.277950 0.244340 0.560315 -0.108119
N21   N     N_R   0.721400 0.755714 0.440598 -0.117072
N22   N     N_R   0.500000 1.000000 0.316380 -0.195120
N23   N     N_R   0.500000 1.000000 0.683620 -0.195078
N24   N     N_R   0.999988 0.457158 0.037025 -0.202443
N25   N     N_R   0.999992 0.542837 0.962975 -0.202430
N26   N     N_R   0.000015 0.542837 0.037020 -0.202435
N27   N     N_R   0.000010 0.457158 0.962980 -0.202441
N28   N     N_R   0.499992 0.957157 0.037025 -0.202421
O1    O     O_R   0.049930 0.450080 0.561970 -0.462366
O2    O     O_R   0.450070 0.049920 0.438030 -0.480124
O3    O     O_R   0.450070 0.049920 0.561970 -0.462326
O4    O     O_R   0.549930 0.950080 0.438030 -0.480148
O5    O     O_R   0.450070 0.950080 0.438030 -0.462348
O6    O     O_R   0.549930 0.049920 0.561970 -0.480132
O7    O     O_R   0.549930 0.049920 0.438030 -0.462335
O8    O     O_R   0.450070 0.950080 0.561970 -0.480131
O9    O     O_3   0.003702 0.586902 0.319763 -0.537395
O10   O     O_3   0.003693 0.413096 0.680245 -0.537300
O11   O     O_3   0.996302 0.413096 0.319764 -0.537301
O12   O     O_R   0.950070 0.549920 0.438030 -0.480119
O13   O     O_3   0.996307 0.586904 0.680239 -0.537191
O14   O     O_3   0.503706 0.086902 0.319762 -0.537291
O15   O     O_3   0.503711 0.913098 0.680234 -0.537407
O16   O     O_3   0.496298 0.913096 0.319761 -0.537190
O17   O     O_3   0.496288 0.086902 0.680229 -0.537285
O18   O     O_R   0.950070 0.549920 0.561970 -0.462358
O19   O     O_R   0.049930 0.450080 0.438030 -0.480132
O20   O     O_R   0.950070 0.450080 0.438030 -0.462357
O21   O     O_R   0.049930 0.549920 0.561970 -0.480126
O22   O     O_R   0.049930 0.549920 0.438030 -0.462345
O23   O     O_R   0.950070 0.450080 0.561970 -0.480128
O24   O     O_R   0.549930 0.950080 0.561970 -0.462332

loop_
_geom_bond_atom_site_label_1
_geom_bond_atom_site_label_2
_ccdc_geom_bond_type
C47   F14   S    
C96   H42   S    
C14   O9    S    
C26   C71   A    
C12   C74   S    
C1    O19   A    
C93   H33   S    
C80   N6    A    
C21   N23   A    
C28   C74   A    
C15   O10   S    
C87   N18   A    
Cu3   N23   S    
Cu1   Cu2   S    
C27   H5    S    
C70   N28   A    
C65   C86   S    
C87   N21   A    
C54   C65   A    
C23   O23   A    
C37   C79   A    
C28   C46   A    
C56   C79   S    
C15   N12   A    
C29   C47   A    
N24   N27   A    
C39   C77   A    
C30   C48   A    
C76   C78   S    
C61   C82   S    
N10   N21   A    
C60   C83   S    
C28   H6    S    
C20   N22   A    
C23   O20   A    
C51   F3    S    
C39   C57   A    
C66   N25   A    
Cu3   O3    S    
C33   H11   S    
C45   O24   A    
C93   H32   S    
C95   H40   S    
C81   N8    A    
Cu1   O1    S    
C4    C13   A    
C84   N16   A    
C69   N2    A    
C92   O13   S    
C43   C58   A    
C19   N23   A    
C6    C15   A    
C27   C44   A    
C38   C55   A    
C82   N10   A    
N9    N20   A    
C85   N14   A    
Cu3   O8    S    
C19   O15   S    
N7    N14   A    
C13   H47   S    
C36   C53   A    
C81   N5    A    
C88   O9    S    
C16   O11   S    
C16   N1    A    
N5    N16   A    
C17   N12   A    
C91   H26   S    
Cu4   O5    S    
C45   O4    A    
C96   H41   S    
C40   F1    S    
Cu1   N12   S    
C41   F9    S    
C86   N20   A    
C24   C41   A    
C2    C6    A    
C43   F11   S    
C31   C49   A    
C93   O14   S    
C25   H3    S    
C4    C69   S    
C55   C65   A    
C26   C43   A    
C48   C60   A    
C88   H20   S    
C91   H27   S    
Cu4   O4    S    
C62   C85   S    
C11   C20   A    
C40   C58   A    
Cu1   O18   S    
C83   N13   A    
C46   C61   A    
C92   H30   S    
C23   C71   S    
C3    C70   S    
C51   C63   A    
C41   C59   A    
C67   O8    A    
C34   O22   A    
C58   C81   S    
C30   C73   A    
C54   F6    S    
C29   C74   A    
C9    H44   S    
C2    C66   S    
C94   H35   S    
N13   N19   A    
Cu2   O20   S    
C18   N22   A    
C11   H46   S    
Cu3   O24   S    
C37   H15   S    
C55   F7    S    
C38   H16   S    
C90   H22   S    
C84   N15   A    
Cu4   N22   S    
C32   C76   A    
C3    C9    A    
C36   H14   S    
C56   O3    A    
C22   H48   S    
C33   C76   A    
C31   C75   A    
Cu3   Cu4   S    
C68   N26   A    
C10   C19   A    
C22   C40   A    
C66   N27   A    
C49   F16   S    
C68   C89   S    
C13   C21   A    
C25   C72   A    
C14   N1    A    
C32   C50   A    
C5    C14   A    
C32   H10   S    
C48   F15   S    
C56   O2    A    
C37   C54   A    
C44   F12   S    
N8    N15   A    
C7    C16   A    
C6    H12   S    
C30   H8    S    
C50   F2    S    
C10   H45   S    
C83   N9    A    
N6    N17   A    
Cu1   O23   S    
N2    N3    A    
C59   C80   S    
C67   C75   S    
C78   O7    A    
C31   H9    S    
C4    C10   A    
C34   C72   S    
C22   C71   A    
C90   H21   S    
C24   C72   A    
C57   C64   A    
C39   H17   S    
Cu2   O12   S    
C95   O16   S    
C35   H13   S    
C52   F4    S    
C85   N17   A    
C96   O17   S    
C64   C87   S    
C46   F13   S    
C92   H29   S    
N11   N18   A    
C2    C8    A    
C94   O15   S    
C35   C75   A    
C88   H19   S    
C26   H4    S    
C67   O5    A    
C34   O21   A    
C25   C42   A    
C47   C61   A    
C90   H24   S    
Cu4   O2    S    
C33   C51   A    
Cu2   O19   S    
C24   H2    S    
C8    C17   A    
N4    N28   A    
C18   O14   S    
C63   C84   S    
C36   C77   A    
C95   H38   S    
C1    C73   S    
C17   O13   S    
C42   F10   S    
C69   N4    A    
C88   H18   S    
C52   C62   A    
C70   N3    A    
C7    H23   S    
C96   H43   S    
C86   N19   A    
C44   C60   A    
C94   H37   S    
C29   H7    S    
Cu3   O6    S    
C90   O10   S    
C53   C64   A    
C8    H34   S    
C21   O17   S    
C93   H31   S    
C95   H39   S    
C50   C63   A    
C12   O12   A    
Cu2   O22   S    
N25   N26   A    
C92   H28   S    
C5    C89   A    
Cu2   N1    S    
C3    C11   A    
C12   O18   A    
Cu4   O7    S    
C53   F5    S    
C9    C18   A    
C57   F8    S    
C82   N11   A    
C68   N24   A    
C38   C79   A    
C42   C59   A    
C5    H1    S    
C35   C52   A    
C20   O16   S    
C1    O1    A    
C49   C62   A    
Cu1   O21   S    
C78   O6    A    
C80   N7    A    
C45   C77   S    
C27   C73   A    
C94   H36   S    
C91   O11   S    
C91   H25   S    
C7    C89   A    
