data_mof_unit_21006.cif
_audit_creation_date              2013-03-05T16:11:40-0500
_audit_creation_method            fapswitch 2.2
_symmetry_space_group_name_H-M    P1
_symmetry_Int_Tables_number       1
_space_group_crystal_system       triclinic
_cell_length_a                    10.735652
_cell_length_b                    9.40695
_cell_length_c                    19.358754
_cell_angle_alpha                 90.005146
_cell_angle_beta                  90.004883
_cell_angle_gamma                 90.000255
_cell_volume                      1955.03554879

loop_
_atom_site_label
_atom_site_type_symbol
_atom_site_description
_atom_site_fract_x
_atom_site_fract_y
_atom_site_fract_z
_atom_type_partial_charge
O1    O     O_R   0.317570 0.620260 0.500040 -0.586263
O2    O     O_R   0.317570 0.379740 0.500040 -0.594659
C1    C     C_R   0.259784 0.500165 0.500051 0.872984
O3    O     O_R   0.499870 0.620300 0.400170 -0.597369
O4    O     O_R   0.499870 0.379700 0.400170 -0.589952
C2    C     C_R   0.499680 0.499998 0.367453 0.837442
Cu1   Cu    Cu3+1 0.499860 0.642410 0.500030 0.922709
Cu2   Cu    Cu3+1 0.499860 0.357590 0.500030 0.927435
O5    O     O_R   0.682190 0.620260 0.500020 -0.602030
O6    O     O_R   0.682190 0.379740 0.500020 -0.600300
O7    O     O_R   0.499890 0.620220 0.599880 -0.594650
O8    O     O_R   0.499890 0.379780 0.599880 -0.587222
C3    C     C_R   0.740069 0.500180 0.500039 0.793938
C4    C     C_R   0.499696 0.500007 0.632602 0.834966
C5    C     C_R   0.497118 0.628781 0.254918 -0.161964
C6    C     C_R   0.498498 0.371169 0.254911 -0.139334
H1    H     H_    0.496984 0.729766 0.281792 0.137762
H2    H     H_    0.499427 0.270197 0.281784 0.137742
C7    C     C_R   0.495766 0.628773 0.182956 -0.134762
C8    C     C_R   0.497128 0.371143 0.182950 -0.137160
H3    H     H_    0.494754 0.729849 0.156208 0.155834
H4    H     H_    0.497176 0.270056 0.156198 0.155050
C9    C     C_R   0.495858 0.499951 0.146235 0.052069
C10   C     C_R   0.498609 0.499986 0.291515 -0.006791
N1    N     N_R   0.495677 0.375816 0.034358 -0.229983
N2    N     N_R   0.494364 0.624078 0.034371 -0.230136
N3    N     N_R   0.495672 0.375821 0.965663 -0.230008
N4    N     N_R   0.494359 0.624082 0.965677 -0.230159
C11   C     C_R   0.495089 0.499955 0.929943 0.421010
C12   C     C_R   0.495099 0.499946 0.070091 0.421109
C13   C     C_R   0.495731 0.628796 0.817089 -0.135314
C14   C     C_R   0.497123 0.371157 0.817073 -0.137740
H5    H     H_    0.494701 0.729870 0.843848 0.155896
H6    H     H_    0.497178 0.270070 0.843817 0.155101
C15   C     C_R   0.497089 0.628808 0.745126 -0.162792
C16   C     C_R   0.498499 0.371183 0.745112 -0.139896
H7    H     H_    0.496932 0.729786 0.718236 0.140398
H8    H     H_    0.499432 0.270215 0.718209 0.140409
C17   C     C_R   0.498608 0.500006 0.708528 -0.006931
C18   C     C_R   0.495840 0.499968 0.853800 0.052620
C19   C     C_3   0.071461 0.419668 0.565042 0.166101
C20   C     C_3   0.071430 0.419828 0.435061 0.165087
H9    H     H_    0.099717 0.305979 0.560236 0.085179
H10   H     H_    0.099537 0.306088 0.439852 0.088044
C21   C     C_3   0.927024 0.423485 0.565556 -0.431066
C22   C     C_3   0.927017 0.423878 0.434487 -0.431300
H11   H     H_    0.890854 0.312598 0.567144 0.141482
H12   H     H_    0.890723 0.313056 0.432689 0.143902
H13   H     H_    0.891032 0.477796 0.612553 0.204604
H14   H     H_    0.891147 0.478583 0.387571 0.205018
H15   H     H_    0.105293 0.715915 0.545577 0.204419
H16   H     H_    0.105158 0.716014 0.454707 0.206808
H17   H     H_    0.894427 0.713192 0.546745 0.179942
H18   H     H_    0.894201 0.713713 0.453894 0.182081
C23   C     C_3   0.070810 0.655718 0.500138 -0.338155
C24   C     C_3   0.121875 0.500585 0.500075 -0.086377
C25   C     C_3   0.877907 0.500550 0.500074 0.047740
C26   C     C_3   0.928403 0.655352 0.500217 -0.365603
C27   C     C_3   0.610618 0.083857 0.538027 -0.190717
C28   C     C_3   0.610625 0.916189 0.538011 -0.188598
H19   H     H_    0.613342 0.123595 0.592121 0.139846
H20   H     H_    0.613443 0.876396 0.592089 0.141274
H21   H     H_    0.697770 0.121092 0.512904 0.143422
H22   H     H_    0.697718 0.879083 0.512819 0.141339
H23   H     H_    0.383383 0.123662 0.590630 0.159559
H24   H     H_    0.383261 0.876340 0.590588 0.153678
C29   C     C_3   0.388405 0.083845 0.536596 -0.180285
C30   C     C_3   0.388395 0.916217 0.536574 -0.184578
C31   C     C_3   0.501710 0.083599 0.430427 -0.188446
C32   C     C_3   0.501721 0.916385 0.430427 -0.189053
N5    N     N_3   0.500250 0.143650 0.501520 -0.122118
N6    N     N_3   0.500250 0.856350 0.501520 -0.121048
H25   H     H_    0.419075 0.122224 0.401235 0.160313
H26   H     H_    0.419095 0.877755 0.401228 0.154585
H27   H     H_    0.585422 0.122389 0.402260 0.139260
H28   H     H_    0.585439 0.877597 0.402260 0.141134
H29   H     H_    0.302325 0.121013 0.510326 0.144644
H30   H     H_    0.302385 0.879207 0.510220 0.143934
N7    N     N_R   0.123782 0.473634 0.630150 0.129588
O9    O     O_R   0.089212 0.595425 0.655641 -0.376893
O10   O     O_R   0.199318 0.394016 0.665729 -0.377146
N8    N     N_R   0.123882 0.473751 0.369987 0.130045
O11   O     O_R   0.089524 0.595643 0.344530 -0.375678
O12   O     O_R   0.199336 0.394030 0.334408 -0.375031

loop_
_geom_bond_atom_site_label_1
_geom_bond_atom_site_label_2
_geom_bond_distance
_ccdc_geom_bond_type
H24   C30   1.112301 S    
C23   C24   1.558911 S    
N3    C11   1.357176 A    
C7    C9    1.404883 A    
C29   H29   1.111235 S    
Cu1   Cu2   2.679287 S    
C5    C7    1.393165 A    
C21   C25   1.552596 S    
C14   C16   1.393149 A    
C6    C8    1.393158 A    
C7    H3    1.082766 S    
O4    C2    1.296867 A    
O7    C4    1.296221 A    
C3    C25   1.479785 S    
C28   N6    1.489891 S    
C13   C18   1.404942 A    
C28   H20   1.112233 S    
C20   C22   1.550867 S    
C31   N5    1.487723 S    
O5    C3    1.289213 A    
C20   C24   1.566563 S    
C4    C17   1.469886 S    
H23   C29   1.112350 S    
C20   N8    1.470244 S    
C32   H26   1.112775 S    
C13   H5    1.082766 S    
C31   H25   1.112821 S    
H15   C23   1.109652 S    
H16   C23   1.109655 S    
C30   N6    1.489880 S    
C27   C28   1.577245 S    
C6    C10   1.403705 A    
C19   H9    1.115542 S    
C20   H10   1.115550 S    
O3    Cu1   1.944303 S    
Cu1   O7    1.944228 S    
C21   H11   1.113468 S    
C30   H30   1.110857 S    
C22   H12   1.113477 S    
C27   H19   1.112261 S    
C29   C30   1.576867 S    
C9    C12   1.474067 S    
O3    C2    1.296807 A    
Cu1   N6    2.012731 S    
N7    O10   1.301132 A    
O1    C1    1.288848 A    
C14   H6    1.082765 S    
C15   C17   1.403612 A    
C19   C24   1.566645 S    
C1    C24   1.480549 S    
C8    C9    1.404883 A    
C21   H13   1.112680 S    
Cu2   O8    1.944191 S    
C2    C10   1.470103 S    
C6    H2    1.083058 S    
C5    C10   1.403660 A    
O8    C4    1.296237 A    
N2    C12   1.357164 A    
N8    O12   1.301142 A    
C22   C25   1.552492 S    
C32   H28   1.112789 S    
C13   C15   1.393191 A    
H18   C26   1.113737 S    
N1    C12   1.357165 A    
C5    H1    1.083056 S    
N4    C11   1.357167 A    
Cu2   N5    2.012737 S    
C15   H7    1.083231 S    
O1    Cu1   1.968063 S    
C27   H21   1.111181 S    
C16   C17   1.403671 A    
O2    Cu2   1.968065 S    
C8    H4    1.082760 S    
O6    C3    1.292181 A    
C19   N7    1.470242 S    
O4    Cu2   1.944340 S    
H17   C26   1.113713 S    
N1    N3    1.329853 A    
C22   H14   1.112671 S    
N2    N4    1.329842 A    
C28   H22   1.110842 S    
C16   H8    1.083229 S    
O2    C1    1.291579 A    
C25   C26   1.553850 S    
C11   C18   1.474051 S    
C31   H27   1.112783 S    
C29   N5    1.489813 S    
C14   C18   1.404919 A    
C31   C32   1.572973 S    
N7    O9    1.301459 A    
Cu1   O5    1.968490 S    
Cu2   O6    1.968488 S    
N8    O11   1.301440 A    
C23   C26   1.528836 S    
C19   C21   1.551074 S    
C32   N6    1.487770 S    
C27   N5    1.489871 S    
