data_mof_unit_26562.cif
_audit_creation_date              2012-12-10T18:18:25-0500
_audit_creation_method            fapswitch 2.2
_symmetry_space_group_name_H-M    P1
_symmetry_Int_Tables_number       1
_space_group_crystal_system       triclinic
_cell_length_a                    14.031492
_cell_length_b                    14.950863
_cell_length_c                    15.443098
_cell_angle_alpha                 90.111848
_cell_angle_beta                  67.829765
_cell_angle_gamma                 90.1238
_cell_volume                      3000.16742528

loop_
_atom_site_label
_atom_site_type_symbol
_atom_type_description
_atom_site_fract_x
_atom_site_fract_y
_atom_site_fract_z
_atom_type_partial_charge
Br1   Br    Br    0.305837 0.250922 0.666850 -0.567013
Br2   Br    Br    0.693424 0.748958 0.332486 -0.568709
C1    C     C_R   0.501152 0.673069 0.497502 0.946840
C2    C     C_R   0.502529 0.768445 0.494691 -0.122112
C3    C     C_R   0.580583 0.187101 0.439999 -0.302942
C4    C     C_R   0.419522 0.812803 0.560276 -0.303130
C5    C     C_R   0.582028 0.094885 0.437374 0.130727
C6    C     C_R   0.418034 0.905012 0.562849 0.130785
C7    C     C_R   0.499164 0.046669 0.501735 0.032370
C8    C     C_R   0.500837 0.953233 0.498405 0.032182
C9    C     C_R   0.414898 0.091787 0.569436 0.061899
C10   C     C_R   0.585022 0.908115 0.430594 0.061830
C11   C     C_R   0.664931 0.050518 0.370751 -0.213434
C12   C     C_R   0.498830 0.326911 0.502529 0.947638
C13   C     C_R   0.335140 0.949370 0.629480 -0.213695
C14   C     C_R   0.666510 0.957866 0.367200 -0.159060
C15   C     C_R   0.333451 0.042025 0.632886 -0.158686
C16   C     C_R   0.435850 0.501085 0.676323 0.907813
C17   C     C_R   0.564245 0.501448 0.323667 0.901470
C18   C     C_R   0.171345 0.462352 0.573115 -0.045974
C19   C     C_R   0.828603 0.537819 0.426969 -0.044344
C20   C     C_R   0.231858 0.538317 0.427299 -0.046859
C21   C     C_R   0.767995 0.462289 0.573046 -0.053261
C22   C     C_R   0.132118 0.538955 0.425389 0.014532
C23   C     C_R   0.398894 0.595693 0.092823 -0.214488
C24   C     C_R   0.867672 0.461922 0.575090 0.015695
C25   C     C_R   0.050468 0.500378 0.500223 0.085941
C26   C     C_R   0.949350 0.500375 0.500180 0.087992
C27   C     C_R   0.069873 0.461896 0.575143 0.013407
C28   C     C_R   0.929969 0.538742 0.425194 0.012130
C29   C     C_R   0.112193 0.577113 0.350755 -0.200410
C30   C     C_R   0.887512 0.424139 0.649923 -0.212603
C31   C     C_R   0.012048 0.576936 0.350620 -0.189338
C32   C     C_R   0.987704 0.424096 0.649930 -0.191536
C33   C     C_R   0.396919 0.516532 0.776999 -0.098307
C34   C     C_R   0.629549 0.526989 0.889905 -0.217680
C35   C     C_R   0.605259 0.510098 0.221985 -0.099138
C36   C     C_R   0.273375 0.585117 0.918052 0.165267
C37   C     C_R   0.745671 0.500605 0.069543 0.170808
C38   C     C_R   0.300771 0.555251 0.825039 -0.188251
C39   C     C_R   0.709336 0.496733 0.167886 -0.166640
C40   C     C_R   0.465785 0.505700 0.820862 -0.248477
C41   C     C_R   0.537377 0.532882 0.179721 -0.251559
C42   C     C_R   0.447031 0.542670 0.908312 0.069700
C43   C     C_R   0.569654 0.540334 0.083140 0.073556
C44   C     C_R   0.347766 0.578044 0.960178 0.099407
C45   C     C_R   0.326343 0.605969 0.052381 -0.241608
C46   C     C_R   0.673936 0.520219 0.026905 0.097963
C47   C     C_R   0.524871 0.542432 0.945795 0.088188
C48   C     C_R   0.497562 0.559954 0.041622 0.091084
C49   C     C_3   0.168280 0.626931 0.971754 -0.415546
C50   C     C_3   0.097254 0.637548 0.917762 -0.881313
C51   C     C_3   0.858266 0.481503 0.009488 -0.423130
C52   C     C_3   0.929060 0.462107 0.062154 -0.872510
C53   C     C_R   0.702848 0.518216 0.929526 -0.243013
C54   C     C_R   0.414613 0.185400 0.571519 0.192798
C55   C     C_R   0.585183 0.814514 0.428352 0.192742
C56   C     C_R   0.497428 0.231491 0.505372 -0.123368
H1    H     H_    0.252763 0.634305 0.095322 0.140036
H2    H     H_    0.000898 0.394476 0.708401 0.152543
H3    H     H_    0.457241 0.539997 0.223525 0.156117
H4    H     H_    0.535676 0.468898 0.784366 0.153126
H5    H     H_    0.760312 0.480836 0.203422 0.167183
H6    H     H_    0.249577 0.563803 0.788132 0.168324
H7    H     H_    0.376956 0.619717 0.163660 0.138754
H8    H     H_    0.657496 0.524165 0.814499 0.147409
H9    H     H_    0.643480 0.224883 0.389987 0.159117
H10   H     H_    0.356741 0.775002 0.610421 0.158142
H11   H     H_    0.728665 0.087577 0.321197 0.151737
H12   H     H_    0.781434 0.506284 0.882674 0.145214
H13   H     H_    0.271463 0.912303 0.679106 0.150939
H14   H     H_    0.732299 0.926282 0.314726 0.198007
H15   H     H_    0.267633 0.073592 0.685338 0.198395
H16   H     H_    0.132705 0.682756 0.856980 0.258091
H17   H     H_    0.080408 0.571558 0.893652 0.259469
H18   H     H_    0.023300 0.667563 0.964375 0.265301
H19   H     H_    0.127433 0.585482 0.034585 0.208725
H20   H     H_    0.180109 0.694805 0.995485 0.212299
H21   H     H_    0.931583 0.520324 0.106061 0.262648
H22   H     H_    0.903001 0.401318 0.106074 0.258342
H23   H     H_    0.187777 0.432906 0.629943 0.165675
H24   H     H_    0.008326 0.449494 0.011118 0.263702
H25   H     H_    0.861767 0.422703 0.964243 0.208732
H26   H     H_    0.890313 0.540221 0.963705 0.211229
H27   H     H_    0.812193 0.567117 0.370057 0.162898
H28   H     H_    0.295072 0.568684 0.370783 0.130482
H29   H     H_    0.704700 0.432219 0.629753 0.133685
H30   H     H_    0.174052 0.606983 0.292436 0.136645
H31   H     H_    0.825569 0.394612 0.708435 0.142779
H32   H     H_    0.998827 0.606668 0.292208 0.149089
N1    N     N_R   0.249980 0.499930 0.499960 -0.103058
N2    N     N_R   0.750020 0.500070 0.500040 -0.102142
O1    O     O_R   0.419720 0.632140 0.499980 -0.627405
O2    O     O_R   0.580280 0.367860 0.500020 -0.625093
O3    O     O_R   0.580270 0.632160 0.499970 -0.577174
O4    O     O_R   0.419730 0.367840 0.500030 -0.575993
O5    O     O_R   0.373870 0.499980 0.632250 -0.615141
O6    O     O_R   0.626130 0.500020 0.367750 -0.615869
O7    O     O_R   0.534420 0.500000 0.632240 -0.628816
O8    O     O_R   0.465580 0.500000 0.367760 -0.628593
Zn1   Zn    Zn3+2 0.392800 0.499980 0.500010 0.968866
Zn2   Zn    Zn3+2 0.607200 0.500020 0.499990 0.968956

loop_
_geom_bond_atom_site_label_1
_geom_bond_atom_site_label_2
_ccdc_geom_bond_type
C42   C47   A    
C46   C53   A    
C15   H15   S    
C24   C30   A    
C25   C27   A    
C14   H14   S    
C22   C25   A    
C3    H9    S    
C50   H17   S    
Br2   C55   S    
C37   C39   A    
C51   C52   S    
C3    C56   A    
C51   H26   S    
Br1   C54   S    
C50   H16   S    
C34   H8    S    
C5    C7    A    
C21   C24   A    
C33   C40   A    
C23   C48   A    
C17   C35   S    
C10   C14   A    
C2    C55   A    
C20   N1    A    
C29   C31   A    
C16   O5    A    
C7    C8    A    
C23   C45   A    
O3    Zn2   S    
N2    Zn2   S    
C4    H10   S    
C21   H29   S    
O4    Zn1   S    
C32   H2    S    
C40   C42   A    
N1    Zn1   S    
C12   O4    A    
C17   O6    A    
C42   C44   A    
C52   H22   S    
C18   C27   A    
C12   C56   S    
C18   N1    A    
C19   H27   S    
C36   C44   A    
C49   C50   S    
C23   H7    S    
C2    C4    A    
O1    Zn1   S    
C3    C5    A    
C4    C6    A    
C36   C49   S    
O6    Zn2   S    
C27   C32   A    
C30   C32   A    
C35   C41   A    
C49   H19   S    
C7    C9    A    
C30   H31   S    
C1    O1    A    
C41   C43   A    
C8    C10   A    
C10   C55   A    
C6    C13   A    
C20   C22   A    
C16   O7    A    
C39   H5    S    
C1    C2    S    
C52   H24   S    
C41   H3    S    
C52   H21   S    
C16   C33   S    
C43   C46   A    
C13   C15   A    
C40   H4    S    
C44   C45   A    
C9    C15   A    
C29   H30   S    
C28   C31   A    
C50   H18   S    
C17   O8    A    
C13   H13   S    
C19   C28   A    
C24   C26   A    
C38   H6    S    
C51   H25   S    
C26   C28   A    
C33   C38   A    
C22   C29   A    
C34   C53   A    
C31   H32   S    
C36   C38   A    
C37   C51   S    
C11   H11   S    
C43   C48   A    
O8    Zn1   S    
C54   C56   A    
C20   H28   S    
C35   C39   A    
C49   H20   S    
C53   H12   S    
C9    C54   A    
C45   H1    S    
C5    C11   A    
O7    Zn2   S    
O2    Zn2   S    
C6    C8    A    
C47   C48   A    
C11   C14   A    
C25   C26   A    
C21   N2    A    
C1    O3    A    
C18   H23   S    
C12   O2    A    
O5    Zn1   S    
C34   C47   A    
C37   C46   A    
C19   N2    A    
