data_mof_unit_8725.cif
_audit_creation_date              2012-12-11T16:44:14-0500
_audit_creation_method            fapswitch 2.2
_symmetry_space_group_name_H-M    P1
_symmetry_Int_Tables_number       1
_space_group_crystal_system       triclinic
_cell_length_a                    27.140203
_cell_length_b                    7.197447
_cell_length_c                    22.82456
_cell_angle_alpha                 90.035677
_cell_angle_beta                  101.444853
_cell_angle_gamma                 89.973228
_cell_volume                      4369.8991295

loop_
_atom_site_label
_atom_site_type_symbol
_atom_type_description
_atom_site_fract_x
_atom_site_fract_y
_atom_site_fract_z
_atom_type_partial_charge
O1    O     O_R   0.707300 0.594030 0.176840 -0.533848
O2    O     O_R   0.292700 0.405970 0.823160 -0.533470
O3    O     O_R   0.792700 0.094030 0.323160 -0.533867
O4    O     O_R   0.207300 0.905970 0.676840 -0.533290
O5    O     O_R   0.697330 0.262360 0.295660 -0.538305
O6    O     O_R   0.302670 0.737640 0.704340 -0.538240
O7    O     O_R   0.802670 0.762360 0.204340 -0.538228
O8    O     O_R   0.197330 0.237640 0.795660 -0.538235
C1    C     C_R   0.684769 0.432336 0.311796 0.699771
C2    C     C_R   0.315192 0.567639 0.688101 0.699829
C3    C     C_R   0.815160 0.932250 0.188121 0.700076
C4    C     C_R   0.184840 0.067750 0.811879 0.699984
O9    O     O_R   0.701410 0.264250 0.175600 -0.536064
O10   O     O_R   0.298590 0.735750 0.824400 -0.536374
O11   O     O_R   0.798590 0.764250 0.324400 -0.535700
O12   O     O_R   0.201410 0.235750 0.675600 -0.536304
O13   O     O_R   0.796800 0.094950 0.202240 -0.540061
O14   O     O_R   0.203200 0.905050 0.797760 -0.540099
O15   O     O_R   0.703200 0.594950 0.297760 -0.539620
O16   O     O_R   0.296800 0.405050 0.702240 -0.540013
C5    C     C_R   0.690068 0.431584 0.153024 0.685754
C6    C     C_R   0.309932 0.568417 0.846977 0.685912
C7    C     C_R   0.809938 0.931630 0.346973 0.686866
C8    C     C_R   0.190069 0.068373 0.653023 0.686504
O17   O     O_3   0.781290 0.427390 0.258880 -0.373159
O18   O     O_3   0.218710 0.572610 0.741120 -0.373144
O19   O     O_3   0.718710 0.927390 0.241120 -0.373737
O20   O     O_3   0.281290 0.072610 0.758880 -0.373459
V1    V     V_3+5 0.744190 0.152150 0.248350 1.408191
V2    V     V_3+5 0.255810 0.847850 0.751650 1.408705
V3    V     V_3+5 0.755810 0.652150 0.251650 1.408942
V4    V     V_3+5 0.244190 0.347850 0.748350 1.408866
C9    C     C_R   0.155115 0.072828 0.594277 -0.048635
C10   C     C_R   0.844901 0.927184 0.405715 -0.049243
C11   C     C_R   0.344893 0.573007 0.905720 -0.048277
C12   C     C_R   0.655110 0.427008 0.094279 -0.048187
C13   C     C_R   0.130258 0.243983 0.501808 -0.134692
C14   C     C_R   0.869766 0.756034 0.498184 -0.134556
C15   C     C_R   0.369777 0.744597 0.998146 -0.135985
C16   C     C_R   0.630241 0.255536 0.001832 -0.135521
C17   C     C_R   0.166683 0.193043 0.550872 -0.168533
C18   C     C_R   0.833333 0.806980 0.449126 -0.169099
C19   C     C_R   0.333333 0.693496 0.949107 -0.169688
C20   C     C_R   0.666667 0.306581 0.050884 -0.169471
C21   C     C_R   0.106836 0.993366 0.585689 -0.193830
C22   C     C_R   0.893181 0.006638 0.414295 -0.193779
C23   C     C_R   0.393167 0.493408 0.914311 -0.194086
C24   C     C_R   0.606834 0.506590 0.085687 -0.193813
C25   C     C_R   0.068793 0.041175 0.535004 0.045122
C26   C     C_R   0.931228 0.958823 0.464977 0.045163
C27   C     C_R   0.431224 0.541355 0.964976 0.045098
C28   C     C_R   0.568787 0.458715 0.035007 0.045099
C29   C     C_R   0.080965 0.175540 0.494522 0.027060
C30   C     C_R   0.919059 0.824462 0.505462 0.027145
C31   C     C_R   0.419064 0.675988 0.005441 0.027673
C32   C     C_R   0.580954 0.324145 0.994532 0.027538
C33   C     C_R   0.018693 0.966875 0.524537 -0.028006
C34   C     C_R   0.981330 0.033116 0.475440 -0.028043
C35   C     C_R   0.481324 0.466910 0.975439 -0.027925
C36   C     C_R   0.518689 0.533184 0.024537 -0.027838
C37   C     C_R   0.994884 0.174456 0.439066 -0.265865
C38   C     C_R   0.005141 0.825526 0.560909 -0.265847
C39   C     C_R   0.505142 0.674763 0.060899 -0.266292
C40   C     C_R   0.494879 0.325406 0.939063 -0.266336
C41   C     C_R   0.043460 0.246356 0.448554 0.433768
C42   C     C_R   0.956565 0.753633 0.551424 0.433826
C43   C     C_R   0.456572 0.746870 0.051405 0.432955
C44   C     C_R   0.543454 0.253339 0.948550 0.433352
H1    H     H_    0.900852 0.093056 0.378629 0.106637
H2    H     H_    0.099163 0.906949 0.621355 0.106651
H3    H     H_    0.599169 0.593191 0.121342 0.106170
H4    H     H_    0.400822 0.406722 0.878667 0.106487
H5    H     H_    0.796502 0.743174 0.443119 0.121700
H6    H     H_    0.203520 0.256853 0.556886 0.120670
H7    H     H_    0.703508 0.242681 0.056902 0.119329
H8    H     H_    0.296505 0.757408 0.943090 0.119261
H9    H     H_    0.140491 0.343516 0.470706 0.168180
H10   H     H_    0.859534 0.656506 0.529289 0.168343
H11   H     H_    0.359557 0.844364 0.029220 0.167255
H12   H     H_    0.640467 0.155816 0.970751 0.167564
H13   H     H_    0.968202 0.236577 0.403202 0.145868
H14   H     H_    0.031823 0.763392 0.596770 0.145893
H15   H     H_    0.531823 0.736893 0.096757 0.145785
H16   H     H_    0.468207 0.263356 0.903185 0.145792
C45   C     C_R   0.861807 0.108792 0.121070 -0.169061
C46   C     C_R   0.138192 0.891208 0.878930 -0.169110
C47   C     C_R   0.621508 0.610472 0.356831 -0.171477
C48   C     C_R   0.363202 0.389017 0.622637 -0.171741
H17   H     H_    0.840098 0.232074 0.125992 0.139430
H18   H     H_    0.159902 0.767926 0.874008 0.139390
H19   H     H_    0.629783 0.734975 0.333974 0.139179
H20   H     H_    0.342541 0.264332 0.628901 0.138513
C49   C     C_R   0.897472 0.118726 0.084654 -0.234629
C50   C     C_R   0.102528 0.881275 0.915346 -0.234820
C51   C     C_R   0.585714 0.620826 0.393157 -0.232419
C52   C     C_R   0.398891 0.379021 0.586176 -0.214779
H21   H     H_    0.902214 0.248589 0.062450 0.161071
H22   H     H_    0.097785 0.751411 0.937550 0.161002
H23   H     H_    0.567396 0.752360 0.397344 0.151257
H24   H     H_    0.404811 0.248243 0.565147 0.154780
C53   C     C_R   0.926379 0.962932 0.076120 0.124234
C54   C     C_R   0.073621 0.037068 0.923880 0.124249
C55   C     C_R   0.573907 0.464489 0.424478 0.123464
C56   C     C_R   0.426456 0.536334 0.576225 0.132032
C57   C     C_R   0.919538 0.795225 0.105588 0.436628
C58   C     C_R   0.080462 0.204775 0.894412 0.436704
C59   C     C_R   0.597634 0.293588 0.417308 0.435231
C60   C     C_R   0.418114 0.706061 0.603381 0.414102
C61   C     C_R   0.882946 0.785800 0.141825 -0.271249
C62   C     C_R   0.117054 0.214200 0.858174 -0.271312
C63   C     C_R   0.633397 0.283834 0.379962 -0.268825
C64   C     C_R   0.381669 0.715735 0.639841 -0.264647
H25   H     H_    0.877786 0.656722 0.164223 0.124183
H26   H     H_    0.122214 0.343278 0.835777 0.124203
H27   H     H_    0.651614 0.152504 0.374903 0.121862
H28   H     H_    0.375316 0.846733 0.660520 0.123749
C65   C     C_R   0.853799 0.942100 0.149949 -0.077637
C66   C     C_R   0.146201 0.057900 0.850051 -0.077610
C67   C     C_R   0.645986 0.442048 0.349814 -0.076603
C68   C     C_R   0.353897 0.557558 0.649897 -0.077457
C69   C     C_R   0.963140 0.859148 0.987931 0.444597
C70   C     C_R   0.036859 0.140852 0.012069 0.444442
C71   C     C_R   0.548136 0.426854 0.524668 0.448856
C72   C     C_R   0.452753 0.580517 0.477593 0.423188
C73   C     C_R   0.999267 0.880314 0.951690 -0.334535
C74   C     C_R   0.000732 0.119686 0.048310 -0.334653
C75   C     C_R   0.511555 0.444630 0.560519 -0.316027
C76   C     C_R   0.488975 0.560212 0.441389 -0.333934
H29   H     H_    0.998471 0.788435 0.913877 0.149350
H30   H     H_    0.001528 0.211565 0.086123 0.149262
H31   H     H_    0.520166 0.400823 0.606846 0.139160
H32   H     H_    0.480008 0.603907 0.395071 0.140022
C77   C     C_R   0.035883 0.020740 0.963036 0.043785
C78   C     C_R   0.964117 0.979260 0.036964 0.043785
C79   C     C_R   0.464167 0.521032 0.537413 0.058760
C80   C     C_R   0.536450 0.482285 0.464158 0.050375
O21   O     O_3   0.054211 0.386853 0.411670 -0.549320
C81   C     C_3   0.040407 0.558018 0.434040 -0.238368
H33   H     H_    0.061367 0.583444 0.480463 0.134642
H34   H     H_    0.999182 0.565413 0.432403 0.133413
H35   H     H_    0.050172 0.671650 0.405577 0.181549
O22   O     O_3   0.945816 0.613134 0.588309 -0.549206
C82   C     C_3   0.959616 0.441968 0.565935 -0.238071
H36   H     H_    0.000840 0.434567 0.567570 0.133349
H37   H     H_    0.938653 0.416551 0.519513 0.134538
H38   H     H_    0.949850 0.328335 0.594397 0.181653
O23   O     O_3   0.445814 0.887549 0.088305 -0.550012
C83   C     C_3   0.459711 0.058596 0.066003 -0.239989
H39   H     H_    0.438888 0.083860 0.019508 0.135050
H40   H     H_    0.500979 0.065909 0.067830 0.134053
H41   H     H_    0.449841 0.172375 0.094407 0.180725
O24   O     O_3   0.554228 0.112832 0.911615 -0.549652
C84   C     C_3   0.540305 0.941729 0.933819 -0.239200
H42   H     H_    0.499032 0.934428 0.931932 0.133765
H43   H     H_    0.561088 0.916280 0.980313 0.134813
H44   H     H_    0.550201 0.828087 0.905396 0.181176
O25   O     O_3   0.925956 0.725752 0.975342 -0.622224
H45   H     H_    0.930754 0.653114 0.939965 0.302697
O26   O     O_3   0.074044 0.274248 0.024657 -0.622397
H46   H     H_    0.069246 0.346886 0.060034 0.302521
O27   O     O_3   0.595719 0.360651 0.548209 -0.617863
H47   H     H_    0.597715 0.328659 0.590869 0.299849
O28   O     O_3   0.405982 0.655969 0.455421 -0.629001
H48   H     H_    0.404010 0.690730 0.412984 0.297068
O29   O     O_3   0.949656 0.644431 0.099575 -0.633312
H49   H     H_    0.940472 0.539375 0.123370 0.278084
O30   O     O_3   0.050344 0.355569 0.900424 -0.633250
H50   H     H_    0.059528 0.460625 0.876629 0.278124
O31   O     O_3   0.584710 0.137685 0.446093 -0.626686
H51   H     H_    0.606568 0.033028 0.439072 0.284452
O32   O     O_3   0.446145 0.859372 0.594095 -0.636569
H52   H     H_    0.437184 0.964586 0.618012 0.279262

loop_
_geom_bond_atom_site_label_1
_geom_bond_atom_site_label_2
_ccdc_geom_bond_type
O17   V3    S    
C82   H38   S    
O32   H52   S    
C48   C52   A    
O1    C5    A    
O25   H45   S    
C56   C79   S    
C47   H19   S    
O19   V1    S    
C9    C21   A    
O31   H51   S    
O3    C7    A    
O23   C83   S    
C10   C18   A    
C83   H41   S    
C56   C60   A    
C11   C23   A    
C62   C66   A    
O27   H47   S    
C61   C65   A    
C33   C38   A    
C5    C12   S    
C53   C78   S    
O7    C3    A    
C6    C11   S    
C35   C40   A    
O29   H49   S    
C36   C39   A    
C40   C44   A    
O9    V1    S    
C75   C79   A    
C14   C18   A    
C76   C80   A    
C58   C62   A    
O4    C8    A    
C51   H23   S    
C74   H30   S    
C82   H36   S    
O1    V3    S    
O13   V1    S    
O2    V4    S    
O3    V1    S    
C40   H16   S    
C22   H1    S    
C46   C50   A    
C17   H6    S    
O28   H48   S    
C45   C49   A    
C1    O15   A    
C15   C31   A    
C48   H20   S    
C2    O16   A    
C16   C32   A    
C47   C51   A    
O2    C6    A    
C70   O26   S    
C16   H12   S    
C54   C58   A    
C10   C22   A    
C69   C78   A    
C48   C68   A    
C11   C19   A    
C62   H26   S    
C16   C20   A    
C61   H25   S    
C72   C76   A    
C72   O28   S    
C13   C29   A    
C34   C37   A    
O11   C7    A    
C38   H14   S    
O15   V3    S    
C35   C36   A    
O12   C8    A    
C69   O25   S    
C47   C67   A    
O10   V2    S    
C76   H32   S    
C51   C55   A    
O5    V1    S    
C53   C57   A    
C39   C43   A    
O7    V3    S    
C38   C42   A    
O8    V4    S    
C83   H39   S    
C46   H18   S    
C49   C53   A    
O30   H50   S    
C64   C68   A    
C45   H17   S    
O18   V4    S    
C15   C19   A    
C14   H10   S    
C32   C44   A    
C13   H9    S    
C60   C64   A    
C39   H15   S    
C26   C34   A    
C70   C74   A    
C20   H7    S    
C55   C80   S    
C70   C77   A    
O5    C1    A    
C44   O24   S    
C23   C27   A    
C63   H27   S    
C71   C75   A    
O26   H46   S    
C14   C30   A    
C21   C25   A    
O8    C4    A    
C7    C10   S    
O9    C5    A    
C46   C66   A    
C26   C30   A    
C84   H44   S    
C45   C65   A    
C50   C54   A    
C81   H34   S    
C4    C66   S    
C63   C67   A    
O6    V2    S    
C69   C73   A    
C52   C56   A    
C73   H29   S    
C43   O23   S    
O14   V2    S    
C1    C67   S    
C12   C20   A    
C84   H43   S    
C24   H3    S    
C3    C65   S    
C49   H21   S    
C64   H28   S    
C29   C41   A    
O16   V4    S    
C73   C77   A    
C19   H8    S    
C82   H37   S    
C57   C61   A    
C3    O13   A    
C18   H5    S    
C72   C79   A    
C21   H2    S    
C59   C63   A    
C83   H40   S    
C81   H35   S    
O6    C2    A    
C25   C33   A    
C31   C43   A    
O11   V3    S    
C42   O22   S    
O12   V4    S    
O21   C81   S    
C22   C26   A    
C8    C9    S    
C71   C80   A    
C9    C17   A    
C58   O30   S    
O10   C6    A    
O20   V2    S    
C54   C77   S    
C41   O21   S    
C37   H13   S    
C59   O31   S    
C33   C34   A    
C71   O27   S    
C52   H24   S    
C57   O29   S    
C12   C24   A    
C27   C31   A    
C13   C17   A    
C75   H31   S    
C23   H4    S    
C25   C29   A    
C2    C68   S    
C81   H33   S    
C37   C41   A    
C24   C28   A    
C27   C35   A    
O24   C84   S    
C74   C78   A    
C28   C36   A    
C60   O32   S    
C4    O14   A    
C50   H22   S    
O22   C82   S    
C55   C59   A    
C84   H42   S    
C30   C42   A    
O4    V2    S    
C28   C32   A    
C15   H11   S    
