data_mof_unit_14730.cif
_audit_creation_date              2012-12-11T14:55:40-0500
_audit_creation_method            fapswitch 2.2
_symmetry_space_group_name_H-M    P1
_symmetry_Int_Tables_number       1
_space_group_crystal_system       triclinic
_cell_length_a                    8.344699
_cell_length_b                    14.946657
_cell_length_c                    19.095625
_cell_angle_alpha                 99.754889
_cell_angle_beta                  91.815939
_cell_angle_gamma                 99.753106
_cell_volume                      2308.87161783

loop_
_atom_site_label
_atom_site_type_symbol
_atom_type_description
_atom_site_fract_x
_atom_site_fract_y
_atom_site_fract_z
_atom_type_partial_charge
Ba1   Ba    Ba6+2 0.854510 0.539840 0.465770 1.709238
Ba2   Ba    Ba6+2 0.335330 0.460240 0.534240 1.673444
C1    C     C_3   0.822679 0.863223 0.257732 0.261069
C2    C     C_3   0.721635 0.783952 0.288413 0.654331
C3    C     C_3   0.459102 0.311900 0.314840 0.325618
C4    C     C_3   0.404621 0.277760 0.236279 0.360218
C5    C     C_3   0.063313 0.266207 0.726316 0.299408
C6    C     C_3   0.096062 0.240278 0.798817 0.322804
C7    C     C_3   0.520634 0.211339 0.682772 0.322702
C8    C     C_3   0.456909 0.116681 0.700472 -0.280869
C9    C     C_R   0.057711 0.545689 0.801026 -0.151073
C10   C     C_R   0.022253 0.530187 0.726338 0.060521
C11   C     C_R   0.848878 0.415466 0.809008 -0.166404
C12   C     C_3   0.093884 0.710522 0.277106 0.352901
C13   C     C_R   0.783464 0.422473 0.742223 -0.000807
C14   C     C_R   0.351721 0.566542 0.185554 -0.161210
C15   C     C_R   0.417316 0.558846 0.251958 0.117925
C16   C     C_R   0.130278 0.444984 0.197016 -0.141661
C17   C     C_R   0.170836 0.460975 0.271322 0.011129
C18   C     C_R   0.980460 0.482485 0.844004 -0.012578
C19   C     C_R   0.878974 0.471462 0.698519 -0.240749
C20   C     C_R   0.213496 0.503446 0.152136 -0.033469
C21   C     C_R   0.321010 0.512871 0.296846 -0.250594
C22   C     C_R   0.758956 0.432904 0.961184 -0.071616
C23   C     C_3   0.088495 0.727996 0.200148 -0.293724
C24   C     C_R   0.657580 0.401768 0.011640 -0.028476
C25   C     C_R   0.710242 0.424659 0.082594 0.000822
C26   C     C_R   0.867881 0.471327 0.101276 -0.085668
C27   C     C_R   0.986093 0.477672 0.050515 0.020631
C28   C     C_R   0.928604 0.464643 0.976894 0.050748
C29   C     C_R   0.155353 0.500792 0.073164 0.005953
C30   C     C_R   0.265503 0.519792 0.018949 0.046236
C31   C     C_R   0.207617 0.509943 0.945701 0.019439
C32   C     C_R   0.038427 0.485171 0.922913 0.002305
C33   C     C_R   0.435968 0.547286 0.034256 -0.059421
C34   C     C_3   0.193883 0.760034 0.635310 0.218649
C35   C     C_R   0.538898 0.580027 0.985022 -0.038505
C36   C     C_R   0.484864 0.563519 0.914443 -0.052979
C37   C     C_R   0.325392 0.520482 0.895134 -0.081830
C38   C     C_R   0.755790 0.237461 0.527106 -0.292694
C39   C     C_R   0.843631 0.180005 0.556161 0.000652
C40   C     C_R   0.775675 0.086835 0.552691 -0.146614
C41   C     C_R   0.621791 0.048784 0.515877 -0.001401
C42   C     C_R   0.543354 0.107763 0.481811 -0.091878
C43   C     C_R   0.608798 0.200694 0.488195 0.022535
C44   C     C_R   0.385640 0.913955 0.479119 0.003267
C45   C     C_3   0.126988 0.847295 0.664144 0.184499
C46   C     C_R   0.322321 0.819685 0.466887 0.135158
C47   C     C_R   0.572240 0.790494 0.518711 0.061026
C48   C     C_R   0.638320 0.884117 0.528602 -0.142992
C49   C     C_R   0.547275 0.948297 0.508780 -0.019416
C50   C     C_R   0.415250 0.758360 0.487676 -0.220472
C51   C     C_3   0.941735 0.255510 0.378570 0.327403
C52   C     C_3   0.903752 0.150643 0.360231 -0.346230
C53   C     C_3   0.728243 0.661555 0.678887 0.304198
C54   C     C_3   0.747739 0.686562 0.759671 -0.356223
H1    H     H_    0.772988 0.784077 0.342636 -0.068324
H2    H     H_    0.205210 0.887239 0.711042 0.113199
H3    H     H_    0.002028 0.828298 0.681334 0.110639
H4    H     H_    0.829102 0.281784 0.393213 0.003399
H5    H     H_    0.034023 0.275751 0.424162 0.057234
H6    H     H_    0.805669 0.128389 0.317035 0.190650
H7    H     H_    0.863241 0.120965 0.407381 0.048674
H8    H     H_    0.014473 0.123555 0.342352 0.132986
H9    H     H_    0.841356 0.640904 0.658496 -0.029637
H10   H     H_    0.625231 0.602906 0.664528 0.091707
H11   H     H_    0.953608 0.864812 0.265801 0.037340
H12   H     H_    0.856392 0.741252 0.776177 0.133145
H13   H     H_    0.762886 0.625111 0.782808 0.052948
H14   H     H_    0.637711 0.711676 0.780674 0.148302
H15   H     H_    0.804026 0.931501 0.285927 0.044331
H16   H     H_    0.359068 0.342663 0.340837 -0.100551
H17   H     H_    0.569685 0.365946 0.319218 0.065299
H18   H     H_    0.286386 0.229448 0.231614 0.044340
H19   H     H_    0.387408 0.337436 0.211151 -0.098141
H20   H     H_    0.158129 0.683304 0.166037 0.094674
H21   H     H_    0.137500 0.335332 0.725816 0.021017
H22   H     H_    0.932146 0.269284 0.719032 -0.062915
H23   H     H_    0.220007 0.223277 0.802757 0.083089
H24   H     H_    0.089936 0.299751 0.841587 -0.039827
H25   H     H_    0.655750 0.220647 0.684404 -0.042361
H26   H     H_    0.472279 0.213093 0.628204 0.065176
H27   H     H_    0.502551 0.062750 0.663010 0.076812
H28   H     H_    0.321886 0.102067 0.695895 0.198417
H29   H     H_    0.976102 0.670940 0.287775 0.042525
H30   H     H_    0.498993 0.113628 0.755575 0.174233
H31   H     H_    0.151701 0.603256 0.823963 0.089034
H32   H     H_    0.794131 0.357842 0.832524 0.124491
H33   H     H_    0.410618 0.622413 0.161320 0.143940
H34   H     H_    0.029988 0.390349 0.175955 0.109218
H35   H     H_    0.835935 0.468619 0.644010 0.060194
H36   H     H_    0.365114 0.515541 0.351194 0.072052
H37   H     H_    0.695762 0.437023 0.912661 0.067753
H38   H     H_    0.530948 0.372077 0.996831 0.102431
H39   H     H_    0.625034 0.412831 0.123009 0.134936
H40   H     H_    0.183823 0.665750 0.282309 0.074549
H41   H     H_    0.897276 0.502713 0.155774 0.121593
H42   H     H_    0.498089 0.538344 0.081495 0.056543
H43   H     H_    0.666478 0.606737 0.000082 0.099694
H44   H     H_    0.569763 0.577639 0.874402 0.096634
H45   H     H_    0.294864 0.494372 0.840164 0.125933
H46   H     H_    0.306266 0.958099 0.463950 0.096196
H47   H     H_    0.846719 0.046106 0.577922 0.126426
H48   H     H_    0.760711 0.904538 0.552137 0.136453
H49   H     H_    0.434049 0.083270 0.447717 0.096103
H50   H     H_    0.365195 0.685441 0.479559 0.065440
H51   H     H_    0.962722 0.711811 0.175848 0.137394
H52   H     H_    0.807938 0.309486 0.529953 0.061054
H53   H     H_    0.140739 0.800580 0.197277 0.217577
H54   H     H_    0.320912 0.780427 0.621160 0.005112
H55   H     H_    0.120287 0.721334 0.587209 0.072830
O1    O     O_2   0.872980 0.435970 0.325550 -0.431512
O2    O     O_3   0.698317 0.738717 0.651428 -0.620146
O3    O     O_3   0.134276 0.794558 0.326065 -0.559688
O4    O     O_2   0.316730 0.564060 0.674500 -0.455959
O5    O     O_3   0.068160 0.555880 0.585710 -0.506719
O6    O     O_3   0.525240 0.395830 0.629120 -0.472287
O7    O     O_3   0.196682 0.710113 0.690971 -0.648598
O8    O     O_3   0.608030 0.388080 0.462570 -0.491152
O9    O     O_3   0.102340 0.346310 0.592780 -0.491659
O10   O     O_2   0.171462 0.181436 0.539435 -0.458337
O11   O     O_3   0.108312 0.200661 0.672464 -0.574776
O12   O     O_3   0.121550 0.444190 0.414290 -0.499522
O13   O     O_3   0.581680 0.612000 0.537440 -0.498486
O14   O     O_2   0.334450 0.276040 0.463130 -0.456461
O15   O     O_3   0.491892 0.238018 0.346311 -0.606762
O16   O     O_2   0.472406 0.458309 0.757326 -0.513102
O17   O     O_3   0.468611 0.279685 0.732343 -0.590180
O18   O     O_3   0.664480 0.604250 0.370890 -0.471753
O19   O     O_2   0.720207 0.522737 0.246115 -0.516710
O20   O     O_3   0.000854 0.289388 0.318715 -0.612836
O21   O     O_3   0.723243 0.697998 0.243830 -0.631612
O22   O     O_2   0.855250 0.723990 0.536920 -0.460163
O23   O     O_3   0.087370 0.653760 0.407230 -0.514660
O24   O     O_2   0.981823 0.812399 0.444789 -0.471997
P1    P     P_3+3 0.039940 0.410170 0.336360 1.010929
P2    P     P_3+3 0.679300 0.712470 0.558210 1.011285
P3    P     P_3+3 0.129113 0.772577 0.413660 1.050894
P4    P     P_3+3 0.149780 0.589910 0.663640 0.975007
P5    P     P_3+3 0.055382 0.226795 0.589913 0.986700
P6    P     P_3+3 0.632132 0.600661 0.279544 0.995012
P7    P     P_3+3 0.511973 0.273129 0.438819 0.971574
P8    P     P_3+3 0.564841 0.387166 0.716714 0.933804
Cl1   Cl    Cl    0.119928 0.920056 0.600013 -0.750570
S1    S     S_3+6 0.521409 0.807686 0.294398 -0.077357
O25   O     O_2   0.440058 0.790185 0.221053 -0.246576
O26   O     O_2   0.435196 0.743445 0.338280 -0.435671
O27   O     O_3   0.519575 0.917439 0.332624 -0.485740
H56   H     H_    0.611066 0.933238 0.369308 0.285841
S2    S     S_3+6 0.550562 0.220821 0.188681 -0.020428
O28   O     O_2   0.553996 0.130075 0.212145 -0.211653
O29   O     O_2   0.502790 0.204037 0.110390 -0.250372
O30   O     O_3   0.736027 0.287280 0.204233 -0.536343
H57   H     H_    0.810030 0.250109 0.178098 0.366139
Cl2   Cl    Cl    0.775184 0.856437 0.164782 -0.518810
S3    S     S_3+6 0.950499 0.144017 0.813523 -0.031287
O31   O     O_2   0.008817 0.109205 0.877361 -0.197258
O32   O     O_2   0.789574 0.173746 0.827707 -0.323202
O33   O     O_3   0.927941 0.058470 0.742348 -0.462487
H58   H     H_    0.840403 0.070981 0.711108 0.328408

loop_
_geom_bond_atom_site_label_1
_geom_bond_atom_site_label_2
_ccdc_geom_bond_type
C26   H41   S    
C24   H38   S    
O24   P3    D    
C53   C54   S    
C48   H48   S    
C47   P2    S    
C39   C40   A    
C25   H39   S    
C40   H47   S    
C53   H10   S    
S1    O25   D    
C5    C6    S    
C2    O21   S    
C42   H49   S    
O22   P2    D    
C44   H46   S    
C24   C25   A    
C31   C37   A    
C44   C49   A    
Ba2   P4    S    
O10   P5    D    
C26   C27   A    
C33   C35   A    
C22   C24   A    
C16   C17   A    
C3    H16   S    
Ba1   O18   S    
Ba1   O1    S    
C3    C4    S    
O18   P6    S    
C52   H7    S    
C8    H27   S    
C34   C45   S    
C15   P6    S    
Ba1   Ba2   S    
Ba1   O8    S    
O19   P6    D    
O9    P5    S    
C39   P5    S    
C53   H9    S    
C51   H5    S    
C51   H4    S    
C8    H30   S    
O33   H58   S    
C9    H31   S    
C14   C15   A    
S2    O30   S    
C3    O15   S    
C6    H23   S    
C37   H45   S    
C51   O20   S    
Ba1   O5    S    
C33   H42   S    
C34   O7    S    
C7    C8    S    
C23   H53   S    
C7    H26   S    
C5    H21   S    
O5    P4    S    
C18   C32   S    
C50   H50   S    
C14   H33   S    
Ba2   O5    S    
O1    P1    D    
Ba1   O22   S    
C12   H40   S    
S1    O26   D    
Ba2   O6    S    
C4    H18   S    
C38   C43   A    
C44   C46   A    
C9    C18   A    
C7    O17   S    
C20   C29   S    
C28   C32   A    
C16   H34   S    
C30   C33   A    
O13   P2    S    
C4    H19   S    
O27   H56   S    
C36   H44   S    
O20   P1    S    
Ba2   O9    S    
C53   O2    S    
C17   P1    S    
C54   H12   S    
C45   H3    S    
C45   Cl1   S    
O15   P7    S    
C2    H1    S    
C17   C21   A    
C41   C42   A    
Ba1   O12   S    
C35   C36   A    
Ba2   O4    S    
C29   C30   A    
C15   C21   A    
C46   C50   A    
O14   P7    D    
Ba2   O8    S    
C47   C50   A    
C34   H55   S    
C1    Cl2   S    
C48   C49   A    
C10   P4    S    
O16   P8    D    
C5    H22   S    
C13   P8    S    
C38   C39   A    
O4    P4    D    
C54   H13   S    
C54   H14   S    
C11   C13   A    
C34   H54   S    
C43   P7    S    
O2    P2    S    
C40   C41   A    
C5    O11   S    
C1    C2    S    
Ba1   P1    S    
Ba1   O23   S    
C35   H43   S    
S1    O27   S    
Ba1   P2    S    
C42   C43   A    
C23   H51   S    
C19   H35   S    
O21   P6    S    
S3    O31   D    
C14   C20   A    
C11   C18   A    
O6    P8    S    
C16   C20   A    
S3    O33   S    
C1    H11   S    
C12   H29   S    
O23   P3    S    
C9    C10   A    
C51   C52   S    
C1    H15   S    
Ba2   O13   S    
C52   H6    S    
S2    O28   D    
C46   P3    S    
O12   P1    S    
C23   H20   S    
C30   C31   A    
S3    O32   D    
Ba1   O13   S    
O11   P5    S    
C27   C29   A    
C12   O3    S    
C22   H37   S    
C45   H2    S    
C41   C49   S    
C36   C37   A    
C52   H8    S    
C2    S1    S    
C10   C19   A    
C11   H32   S    
C8    H28   S    
C31   C32   A    
S2    O29   D    
O3    P3    S    
C12   C23   S    
C3    H17   S    
C6    S3    S    
O17   P8    S    
C22   C28   A    
C27   C28   A    
C4    S2    S    
Ba2   O14   S    
C38   H52   S    
C13   C19   A    
C47   C48   A    
C25   C26   A    
C6    H24   S    
O8    P7    S    
C21   H36   S    
O30   H57   S    
Ba2   O12   S    
O7    P4    S    
C7    H25   S    
