data_mof_unit_68582.cif
_audit_creation_date              2012-12-10T17:49:42-0500
_audit_creation_method            fapswitch 2.2
_symmetry_space_group_name_H-M    P1
_symmetry_Int_Tables_number       1
_space_group_crystal_system       triclinic
_cell_length_a                    10.483514
_cell_length_b                    10.684654
_cell_length_c                    9.911391
_cell_angle_alpha                 88.310431
_cell_angle_beta                  89.755469
_cell_angle_gamma                 92.109083
_cell_volume                      1108.95151808

loop_
_atom_site_label
_atom_site_type_symbol
_atom_type_description
_atom_site_fract_x
_atom_site_fract_y
_atom_site_fract_z
_atom_type_partial_charge
C1    C     C_R   0.514170 0.260693 0.502771 0.960597
C2    C     C_R   0.496374 0.056985 0.629607 0.034103
C3    C     C_R   0.534329 0.127066 0.511160 -0.242385
C4    C     C_R   0.257976 0.505225 0.499996 0.887587
C5    C     C_R   0.568436 0.064775 0.393624 0.413966
C6    C     C_R   0.540965 0.938257 0.387222 -0.285860
C7    C     C_R   0.482515 0.873127 0.496162 -0.169418
C8    C     C_R   0.331298 0.336392 0.145911 -0.289330
C9    C     C_R   0.253777 0.248826 0.080642 0.388847
C10   C     C_R   0.253408 0.247799 0.939889 0.328807
C11   C     C_R   0.333065 0.333445 0.866318 -0.382250
C12   C     C_3   0.958774 0.450227 0.388816 -0.042409
C13   C     C_R   0.416503 0.419183 0.930656 0.107001
C14   C     C_R   0.416053 0.419942 0.074981 0.142628
C15   C     C_R   0.579417 0.577514 0.068659 -0.083785
C16   C     C_R   0.489654 0.739398 0.498398 0.884415
C17   C     C_R   0.579244 0.577630 0.925539 -0.095375
C18   C     C_R   0.742619 0.502486 0.499589 0.912447
C19   C     C_3   0.041628 0.566675 0.607432 0.566793
C20   C     C_3   0.955838 0.446639 0.611881 -0.328755
C21   C     C_3   0.877826 0.506625 0.498774 -0.041211
C22   C     C_3   0.960981 0.627700 0.496670 -0.226806
C23   C     C_3   0.039428 0.390389 0.501298 -0.229167
C24   C     C_3   0.044874 0.570672 0.387187 -0.249225
C25   C     C_3   0.076274 0.191250 0.820212 0.109784
C26   C     C_3   0.999240 0.077529 0.770310 -0.264732
C27   C     C_3   0.871294 0.114099 0.710724 -0.957493
C28   C     C_3   0.090306 0.570934 0.836535 0.106766
C29   C     C_3   0.966884 0.596642 0.912499 -0.391903
C30   C     C_3   0.947956 0.507387 0.034176 -0.911751
C31   C     C_3   0.123425 0.510564 0.499620 -0.052815
C32   C     C_R   0.507308 0.101865 0.762468 -0.138756
C33   C     C_R   0.452237 0.034151 0.871797 -0.038935
C34   C     C_R   0.381910 0.923879 0.850348 -0.078825
C35   C     C_R   0.379482 0.874169 0.722175 -0.149366
C36   C     C_R   0.449575 0.934332 0.614641 0.093399
H1    H     H_    0.913178 0.396785 0.701931 0.158894
H2    H     H_    0.085753 0.621780 0.296993 0.176466
H3    H     H_    0.922630 0.402514 0.298378 0.227095
H4    H     H_    0.075985 0.294304 0.499668 0.186892
H5    H     H_    0.563156 0.185536 0.784945 0.182543
H6    H     H_    0.460474 0.069300 0.972617 0.195574
H7    H     H_    0.150800 0.072998 0.386120 0.373704
H8    H     H_    0.097412 0.256879 0.733863 0.113640
H9    H     H_    0.018358 0.237937 0.897155 0.163480
H10   H     H_    0.055192 0.030567 0.692202 0.220489
H11   H     H_    0.981359 0.009818 0.856234 0.262972
H12   H     H_    0.333173 0.874617 0.933715 0.168069
H13   H     H_    0.815368 0.165197 0.785430 0.277267
H14   H     H_    0.815464 0.028384 0.683113 0.269568
H15   H     H_    0.886324 0.173908 0.618199 0.276521
H16   H     H_    0.172355 0.604420 0.898073 0.160204
H17   H     H_    0.102932 0.468837 0.825392 0.117974
H18   H     H_    0.971315 0.694837 0.946921 0.238815
H19   H     H_    0.883321 0.585688 0.844773 0.230382
H20   H     H_    0.922795 0.411507 0.000440 0.280733
H21   H     H_    0.868926 0.539311 0.098012 0.271171
H22   H     H_    0.036527 0.504610 0.095072 0.256456
H23   H     H_    0.326057 0.786844 0.708849 0.186831
H24   H     H_    0.813094 0.999421 0.264453 0.363549
H25   H     H_    0.572024 0.889133 0.299501 0.201974
H26   H     H_    0.644285 0.640878 0.120108 0.138788
H27   H     H_    0.325695 0.333505 0.252721 0.259699
H28   H     H_    0.330483 0.326908 0.759310 0.247212
H29   H     H_    0.643901 0.641175 0.869471 0.144552
H30   H     H_    0.924110 0.723811 0.496208 0.145002
N1    N     N_R   0.498800 0.498800 0.142780 -0.091394
N2    N     N_R   0.498760 0.498720 0.857170 -0.103697
O1    O     O_R   0.500000 0.316780 0.614690 -0.664058
O2    O     O_2   0.161411 0.012424 0.117391 -0.279838
O3    O     O_3   0.212623 0.130489 0.337367 -0.601761
O4    O     O_3   0.191413 0.150226 0.875298 -0.590057
O5    O     O_3   0.094769 0.638659 0.712253 -0.661619
O6    O     O_2   0.583005 0.192675 0.156763 -0.288574
O7    O     O_2   0.751529 0.235667 0.320672 -0.322929
O8    O     O_3   0.755178 0.027914 0.191988 -0.526644
O9    O     O_R   0.499990 0.316750 0.385360 -0.555527
O10   O     O_R   0.313960 0.499980 0.614650 -0.638019
O11   O     O_R   0.313940 0.499960 0.385310 -0.648190
O12   O     O_R   0.500010 0.683250 0.614640 -0.627941
O13   O     O_R   0.500000 0.683220 0.385310 -0.626884
O14   O     O_R   0.686060 0.500040 0.614690 -0.635129
O15   O     O_R   0.686040 0.500020 0.385350 -0.597364
O16   O     O_2   0.023605 0.182379 0.178756 -0.291962
S1    S     S_3+6 0.158537 0.139654 0.177897 0.013998
S2    S     S_3+6 0.665464 0.135455 0.263588 0.031774
Zn1   Zn    Zn3+2 0.500010 0.500020 0.653130 0.928367
Zn2   Zn    Zn3+2 0.499990 0.499980 0.346870 0.994348

loop_
_geom_bond_atom_site_label_1
_geom_bond_atom_site_label_2
_ccdc_geom_bond_type
O10   Zn1   S    
O8    S2    S    
C18   C21   S    
C1    O9    A    
C7    C36   A    
C35   C36   A    
C19   C31   S    
C12   C23   S    
N1    Zn2   S    
C33   H6    S    
C6    H25   S    
C2    C32   A    
C28   C29   S    
O12   Zn1   S    
C5    C6    A    
C29   H18   S    
O14   Zn1   S    
C30   H21   S    
C11   C13   A    
C35   H23   S    
C34   C35   A    
C22   H30   S    
C9    S1    S    
O3    S1    S    
C19   C20   S    
O9    Zn2   S    
C8    C9    A    
C24   H2    S    
C14   N1    A    
C9    C10   A    
O1    Zn1   S    
C27   H14   S    
O15   Zn2   S    
C13   C14   A    
C28   O5    S    
C25   H8    S    
O11   Zn2   S    
C27   H15   S    
C33   C34   A    
O13   Zn2   S    
C19   O5    S    
C19   C22   S    
H7    O3    S    
O16   S1    D    
C4    O11   A    
C11   H28   S    
C29   H19   S    
C25   C26   S    
C30   H20   S    
C12   C21   S    
H24   O8    S    
C1    O1    A    
C1    C3    S    
C23   C31   S    
C4    O10   A    
C29   C30   S    
O7    S2    D    
C20   C23   S    
C32   H5    S    
C15   N1    A    
C18   O15   A    
C26   C27   S    
C25   O4    S    
O6    S2    D    
C26   H11   S    
C5    S2    S    
C7    C16   S    
C22   C24   S    
C34   H12   S    
C25   H9    S    
C2    C36   A    
C15   C17   A    
C17   N2    A    
C8    C14   A    
C3    C5    A    
C28   H17   S    
C6    C7    A    
C12   C24   S    
C17   H29   S    
C32   C33   A    
C12   H3    S    
C2    C3    A    
C24   C31   S    
C20   H1    S    
C28   H16   S    
C30   H22   S    
C16   O13   A    
C18   O14   A    
C15   H26   S    
C4    C31   S    
C10   C11   A    
C26   H10   S    
C8    H27   S    
C27   H13   S    
C20   C21   S    
N2    Zn1   S    
C16   O12   A    
C21   C22   S    
O2    S1    D    
C23   H4    S    
C13   N2    A    
C10   O4    S    
