data_mof_unit_29330.cif
_audit_creation_date              2012-12-11T14:43:32-0500
_audit_creation_method            fapswitch 2.2
_symmetry_space_group_name_H-M    P1
_symmetry_Int_Tables_number       1
_space_group_crystal_system       triclinic
_cell_length_a                    20.98092
_cell_length_b                    7.076388
_cell_length_c                    16.404195
_cell_angle_alpha                 90.002447
_cell_angle_beta                  93.00681
_cell_angle_gamma                 89.999649
_cell_volume                      2432.16360814

loop_
_atom_site_label
_atom_site_type_symbol
_atom_type_description
_atom_site_fract_x
_atom_site_fract_y
_atom_site_fract_z
_atom_type_partial_charge
O1    O     O_R   0.564840 0.505290 0.579830 -0.537478
O2    O     O_R   0.435160 0.005290 0.420170 -0.537456
O3    O     O_R   0.556720 0.179930 0.409350 -0.542729
O4    O     O_R   0.443280 0.679930 0.590650 -0.542744
C1    C     C_R   0.570678 0.344869 0.381829 0.706888
C2    C     C_R   0.429328 0.844875 0.618176 0.706931
O5    O     O_R   0.572280 0.175810 0.578530 -0.539655
O6    O     O_R   0.427720 0.675810 0.421470 -0.539654
O7    O     O_R   0.450830 0.001920 0.590540 -0.534760
O8    O     O_R   0.549170 0.501920 0.409460 -0.534773
C3    C     C_R   0.590056 0.345983 0.605096 0.685881
C4    C     C_R   0.409944 0.845979 0.394903 0.685896
O9    O     O_3   0.460130 0.338030 0.503750 -0.369579
O10   O     O_3   0.539870 0.838030 0.496250 -0.369584
V1    V     V_3+5 0.507400 0.064560 0.499310 1.422146
V2    V     V_3+5 0.492600 0.564560 0.500690 1.422118
C5    C     C_R   0.141645 0.894819 0.170610 -0.096702
C6    C     C_R   0.858356 0.394807 0.829388 -0.096718
C7    C     C_R   0.356357 0.870304 0.332423 -0.076821
C8    C     C_R   0.643646 0.370318 0.667572 -0.076825
C9    C     C_R   0.303480 0.076813 0.230308 -0.141677
C10   C     C_R   0.696533 0.576853 0.769674 -0.141675
C11   C     C_R   0.356385 0.030661 0.281412 -0.144510
C12   C     C_R   0.643626 0.530700 0.718573 -0.144510
C13   C     C_R   0.302332 0.752786 0.329127 -0.208775
C14   C     C_R   0.697665 0.252778 0.670874 -0.208793
C15   C     C_R   0.248125 0.798214 0.277421 0.114552
C16   C     C_R   0.751875 0.298207 0.722577 0.114550
C17   C     C_R   0.248806 0.963618 0.228261 0.136982
C18   C     C_R   0.751201 0.463633 0.771728 0.136985
C19   C     C_R   0.195344 0.012635 0.176695 -0.187366
C20   C     C_R   0.804665 0.512649 0.823292 -0.187352
C21   C     C_R   0.140897 0.733103 0.220879 -0.158971
C22   C     C_R   0.859098 0.233071 0.779127 -0.158985
C23   C     C_R   0.192863 0.684637 0.273794 0.141469
C24   C     C_R   0.807132 0.184612 0.726208 0.141459
H1    H     H_    0.196656 0.138357 0.139374 0.162815
H2    H     H_    0.803360 0.638396 0.860602 0.162834
H3    H     H_    0.099737 0.640430 0.217963 0.149244
H4    H     H_    0.900254 0.140384 0.782047 0.149254
H5    H     H_    0.305181 0.202671 0.192824 0.130597
H6    H     H_    0.694838 0.702730 0.807151 0.130610
H7    H     H_    0.397366 0.123956 0.282216 0.121409
H8    H     H_    0.602650 0.624013 0.717764 0.121421
H9    H     H_    0.302238 0.631328 0.369079 0.157920
H10   H     H_    0.697753 0.131298 0.630931 0.157926
C25   C     C_R   0.383211 0.872787 0.835055 0.163565
C26   C     C_R   0.616815 0.372326 0.164944 0.163458
H11   H     H_    0.468051 0.813323 0.771435 0.107038
H12   H     H_    0.531980 0.312874 0.228575 0.107054
H13   H     H_    0.306806 0.019524 0.946838 0.154006
H14   H     H_    0.693189 0.519075 0.053132 0.153949
C27   C     C_R   0.387609 0.854022 0.687491 -0.096159
C28   C     C_R   0.612402 0.353983 0.312517 -0.096216
C29   C     C_R   0.081883 0.823664 0.742619 -0.153849
C30   C     C_R   0.918140 0.323854 0.257411 -0.153903
C31   C     C_R   0.116488 0.752131 0.679836 -0.102682
C32   C     C_R   0.883548 0.252418 0.320223 -0.102693
C33   C     C_R   0.182576 0.764360 0.683752 -0.136132
C34   C     C_R   0.817457 0.264576 0.316312 -0.136115
C35   C     C_R   0.215654 0.864375 0.746881 0.065048
C36   C     C_R   0.784363 0.364416 0.253145 0.065009
C37   C     C_R   0.180771 0.930359 0.814281 0.036905
C38   C     C_R   0.819235 0.430319 0.185726 0.036909
C39   C     C_R   0.283749 0.881209 0.748750 0.029446
C40   C     C_R   0.716265 0.381153 0.251263 0.029494
C41   C     C_R   0.316407 0.904125 0.826121 0.065056
C42   C     C_R   0.683609 0.403838 0.173879 0.065099
C43   C     C_R   0.282170 0.973023 0.890938 -0.196704
C44   C     C_R   0.717834 0.472693 0.109045 -0.196669
C45   C     C_R   0.216814 0.007124 0.881877 0.084859
C46   C     C_R   0.783182 0.506929 0.118108 0.084863
C47   C     C_R   0.320711 0.884814 0.677440 0.059425
C48   C     C_R   0.679295 0.384886 0.322567 0.059371
C49   C     C_R   0.417053 0.839192 0.765401 -0.234458
C50   C     C_R   0.582971 0.338877 0.234607 -0.234438
C51   C     C_R   0.112683 0.904546 0.812102 -0.078108
C52   C     C_R   0.887326 0.404585 0.187907 -0.078092
H15   H     H_    0.030646 0.802002 0.739893 0.122954
H16   H     H_    0.969381 0.302249 0.260138 0.122961
H17   H     H_    0.207657 0.682121 0.640265 0.118033
H18   H     H_    0.792391 0.182388 0.359826 0.118056
H19   H     H_    0.092084 0.676862 0.629926 0.139269
H20   H     H_    0.907965 0.177270 0.370157 0.139283
O11   O     O_R   0.950790 0.256670 0.090520 -0.534469
O12   O     O_R   0.049210 0.756670 0.909480 -0.534471
O13   O     O_R   0.927720 0.590370 0.921470 -0.527624
O14   O     O_R   0.072280 0.090370 0.078530 -0.527626
C53   C     C_R   0.910749 0.419819 0.893761 0.722383
C54   C     C_R   0.089252 0.919823 0.106237 0.722359
O15   O     O_R   0.943270 0.586180 0.090640 -0.526553
O16   O     O_R   0.056730 0.086180 0.909360 -0.526550
O17   O     O_R   0.064850 0.759970 0.079840 -0.540864
O18   O     O_R   0.935150 0.259970 0.920160 -0.540868
C55   C     C_R   0.927183 0.417346 0.115888 0.718627
C56   C     C_R   0.072820 0.917339 0.884116 0.718612
O19   O     O_3   0.039850 0.428050 0.996240 -0.357147
O20   O     O_3   0.960150 0.928050 0.003760 -0.357159
V3    V     V_3+5 0.992610 0.701540 0.000700 1.509138
V4    V     V_3+5 0.007390 0.201540 0.999300 1.509135
C57   C     C_3   0.293034 0.960490 0.595329 -0.353105
C58   C     C_3   0.270411 0.164691 0.603038 -0.682480
H21   H     H_    0.229733 0.173866 0.643437 0.230094
H22   H     H_    0.310050 0.255093 0.628126 0.222162
H23   H     H_    0.254417 0.219502 0.541895 0.233023
H24   H     H_    0.328782 0.960054 0.548010 0.168757
H25   H     H_    0.254097 0.873778 0.567707 0.180952
C59   C     C_3   0.706961 0.460710 0.404661 -0.352973
C60   C     C_3   0.729668 0.664842 0.396878 -0.682287
H26   H     H_    0.770398 0.673776 0.356538 0.230076
H27   H     H_    0.690075 0.755317 0.371683 0.222097
H28   H     H_    0.745628 0.719778 0.458016 0.232983
H29   H     H_    0.671181 0.460544 0.451948 0.168798
H30   H     H_    0.745854 0.373902 0.432360 0.180848
I1    I     I_    0.187035 0.223649 0.960442 -0.433076
I2    I     I_    0.812929 0.723465 0.039536 -0.433168
I3    I     I_    0.184071 0.432981 0.343267 -0.490155
I4    I     I_    0.815921 0.932951 0.656730 -0.490177
C61   C     C_3   0.420107 0.872531 0.917293 -0.370391
C62   C     C_3   0.402960 0.701477 0.968596 -0.734146
H31   H     H_    0.351811 0.703899 0.982680 0.238469
H32   H     H_    0.413085 0.568731 0.935477 0.229157
H33   H     H_    0.432150 0.702787 0.027069 0.210189
H34   H     H_    0.472384 0.867179 0.909241 0.176219
H35   H     H_    0.411947 0.005673 0.950926 0.172400
C63   C     C_3   0.579937 0.371644 0.082691 -0.370466
C64   C     C_3   0.597183 0.200478 0.031504 -0.733675
H36   H     H_    0.648314 0.203347 0.017287 0.238408
H37   H     H_    0.587265 0.067751 0.064795 0.229174
H38   H     H_    0.567888 0.201231 0.973090 0.210057
H39   H     H_    0.527660 0.366094 0.090728 0.176236
H40   H     H_    0.588038 0.504704 0.048976 0.172392

loop_
_geom_bond_atom_site_label_1
_geom_bond_atom_site_label_2
_ccdc_geom_bond_type
C57   H25   S    
C40   C42   A    
C57   C58   S    
C15   C17   A    
C26   C50   A    
O1    C3    A    
O2    C4    A    
C2    O7    A    
C39   C47   A    
C61   H34   S    
O5    C3    A    
C21   H3    S    
C22   H4    S    
C32   H20   S    
C60   H27   S    
C29   C51   A    
C31   C33   A    
C25   C61   S    
C32   C34   A    
C40   C48   A    
O16   C56   A    
C30   C52   A    
C59   C60   S    
C58   H23   S    
C34   C36   A    
C59   H30   S    
C53   O18   A    
C43   C45   A    
C36   C38   A    
C28   C48   A    
C34   H18   S    
C8    C12   A    
C39   C41   A    
C31   H19   S    
C20   H2    S    
C24   I4    S    
O17   V3    S    
C62   H33   S    
C26   C63   S    
C47   C57   S    
O6    V2    S    
C6    C53   S    
C27   C49   A    
C5    C21   A    
C25   C41   A    
O19   V3    S    
C62   H32   S    
O13   V3    S    
C3    C8    S    
C33   C35   A    
C36   C40   A    
C1    C28   S    
O4    C2    A    
C60   H28   S    
C15   C23   A    
C9    C17   A    
C19   H1    S    
C41   C43   A    
C59   H29   S    
O4    V2    S    
C7    C11   A    
C64   H37   S    
O2    V1    S    
H12   C50   S    
C29   H15   S    
O18   V4    S    
C52   C55   S    
O6    C4    A    
H11   C49   S    
C45   I1    S    
O1    V2    S    
C26   C42   A    
C58   H22   S    
O12   V3    S    
C6    C22   A    
O14   V4    S    
O12   C56   A    
C9    H5    S    
C61   H35   S    
C37   C45   A    
O20   V4    S    
C29   C31   A    
C5    C19   A    
C10   C12   A    
C23   I3    S    
C6    C20   A    
C2    C27   S    
C64   H36   S    
C13   H9    S    
O19   V4    S    
O3    V1    S    
C62   H31   S    
O16   V4    S    
C54   O17   A    
C37   C51   A    
C57   H24   S    
C10   C18   A    
C28   C50   A    
C11   H7    S    
C38   C52   A    
C35   C37   A    
C27   C47   A    
C5    C54   S    
C33   H17   S    
O14   C54   A    
O3    C1    A    
C61   C62   S    
C13   C15   A    
C46   I2    S    
C51   C56   S    
C14   C16   A    
C30   H16   S    
C9    C11   A    
O7    V1    S    
C64   H38   S    
C25   C49   A    
C16   C18   A    
C17   C19   A    
O11   V4    S    
O8    V2    S    
C60   H26   S    
C18   C20   A    
O11   C55   A    
C10   H6    S    
C8    C14   A    
C63   H39   S    
C63   C64   S    
C12   H8    S    
C4    C7    S    
O5    V1    S    
C21   C23   A    
C30   C32   A    
C22   C24   A    
C38   C46   A    
C58   H21   S    
C7    C13   A    
H14   C44   S    
C63   H40   S    
C14   H10   S    
C48   C59   S    
C35   C39   A    
C1    O8    A    
C16   C24   A    
O15   C55   A    
C42   C44   A    
O20   V3    S    
O9    V2    S    
O13   C53   A    
O10   V1    S    
C44   C46   A    
H13   C43   S    
O15   V3    S    
