data_mof_unit_8893.cif
_audit_creation_date              2012-12-10T16:49:23-0500
_audit_creation_method            fapswitch 2.2
_symmetry_space_group_name_H-M    P1
_symmetry_Int_Tables_number       1
_space_group_crystal_system       triclinic
_cell_length_a                    19.33115
_cell_length_b                    8.716765
_cell_length_c                    7.462519
_cell_angle_alpha                 102.902454
_cell_angle_beta                  94.641313
_cell_angle_gamma                 93.095481
_cell_volume                      1218.33811946

loop_
_atom_site_label
_atom_site_type_symbol
_atom_type_description
_atom_site_fract_x
_atom_site_fract_y
_atom_site_fract_z
_atom_type_partial_charge
C1    C     C_R   0.497046 0.200167 0.454424 0.872324
C2    C     C_R   0.502954 0.799832 0.545575 0.872322
C3    C     C_2   0.485576 0.034191 0.434813 0.005229
C4    C     C_2   0.514424 0.965809 0.565187 0.005229
C5    C     C_R   0.367475 0.500149 0.502035 0.857451
C6    C     C_R   0.632524 0.499852 0.497965 0.857454
C7    C     C_R   0.262870 0.582136 0.667952 0.031929
C8    C     C_R   0.737130 0.417865 0.332051 0.031921
C9    C     C_R   0.190218 0.579855 0.673706 0.232928
C10   C     C_R   0.809782 0.420158 0.326292 0.232931
C11   C     C_R   0.146086 0.499573 0.517604 -0.044228
C12   C     C_R   0.853914 0.500455 0.482386 -0.044228
C13   C     C_R   0.174534 0.418283 0.360571 -0.200794
C14   C     C_R   0.825465 0.581751 0.639415 -0.200798
C15   C     C_R   0.246355 0.417458 0.354182 0.118841
C16   C     C_R   0.753644 0.582565 0.645809 0.118829
C17   C     C_R   0.291301 0.500577 0.507633 -0.056639
C18   C     C_R   0.708699 0.499430 0.492366 -0.056630
C19   C     C_R   0.929854 0.500683 0.487496 0.468558
C20   C     C_R   0.070146 0.499347 0.512495 0.468560
Cu1   Cu    Cu3+1 0.507710 0.517380 0.684380 1.054458
Cu2   Cu    Cu3+1 0.492290 0.482620 0.315620 1.054458
H1    H     H_    0.140699 0.355669 0.240587 0.190766
H2    H     H_    0.859299 0.644376 0.759393 0.190765
N1    N     N_R   0.029672 0.365788 0.432481 -0.203333
N2    N     N_R   0.970328 0.634242 0.567511 -0.203335
N3    N     N_R   0.960712 0.366198 0.421438 -0.150631
N4    N     N_R   0.039288 0.633832 0.578554 -0.150631
N5    N     N_2   0.480680 0.456420 0.038530 0.020499
N6    N     N_2   0.519320 0.543580 0.961470 0.020499
O1    O     O_R   0.505010 0.286130 0.619770 -0.552556
O2    O     O_R   0.494990 0.713870 0.380230 -0.552557
O3    O     O_R   0.491990 0.256780 0.308370 -0.559517
O4    O     O_R   0.508010 0.743220 0.691630 -0.559517
O5    O     O_R   0.406650 0.514660 0.655750 -0.555033
O6    O     O_R   0.593350 0.485340 0.344250 -0.555036
O7    O     O_R   0.393640 0.485310 0.344340 -0.564654
O8    O     O_R   0.606360 0.514690 0.655660 -0.564655
N7    N     N_3   0.308078 0.669814 0.823350 -0.520238
H3    H     H_    0.295825 0.787637 0.850527 0.273024
H4    H     H_    0.299560 0.623900 0.938361 0.263194
N8    N     N_3   0.691923 0.330167 0.176667 -0.520245
H5    H     H_    0.704181 0.212348 0.149510 0.273016
H6    H     H_    0.700437 0.376070 0.061647 0.263211
Br1   Br    Br    0.152989 0.678895 0.900229 -0.484358
Br2   Br    Br    0.847011 0.321114 0.099770 -0.484351
N9    N     N_3   0.273274 0.329027 0.192226 -0.566164
H7    H     H_    0.254088 0.211242 0.170973 0.250469
H8    H     H_    0.254136 0.371969 0.079198 0.233631
N10   N     N_3   0.726723 0.671000 0.807761 -0.566167
H9    H     H_    0.745901 0.788788 0.828994 0.250472
H10   H     H_    0.745868 0.628077 0.920795 0.233637
Br3   Br    Br    0.416618 0.930662 0.234758 -0.497094
Br4   Br    Br    0.583382 0.069338 0.765242 -0.497095
N11   N     N_3   0.431236 0.351793 0.922139 -0.391126
H11   H     H_    0.382775 0.380426 0.966835 0.223513
H12   H     H_    0.439510 0.239729 0.944134 0.249555
N12   N     N_3   0.568764 0.648206 0.077860 -0.391128
H13   H     H_    0.617225 0.619574 0.033163 0.223513
H14   H     H_    0.560490 0.760271 0.055868 0.249555

loop_
_geom_bond_atom_site_label_1
_geom_bond_atom_site_label_2
_ccdc_geom_bond_type
C10   Br2   S    
C2    C4    S    
N11   H11   S    
C6    O8    A    
C9    Br1   S    
N5    N6    D    
Cu1   O5    S    
Cu2   N5    S    
C5    O7    A    
N1    N3    A    
C9    C11   A    
Cu1   N6    S    
Cu2   O2    S    
N2    N4    A    
N9    H7    S    
C15   N9    S    
C8    N8    S    
C2    O4    A    
C13   C15   A    
N10   H9    S    
C12   C14   A    
C1    O3    A    
N9    H8    S    
C16   C18   A    
Cu1   Cu2   S    
C3    Br3   S    
Cu1   O1    S    
N8    H6    S    
Cu2   O3    S    
C10   C12   A    
C12   C19   S    
C2    O2    A    
C19   N3    A    
C6    O6    A    
N11   H12   S    
C1    O1    A    
C6    C18   S    
C14   C16   A    
C11   C20   S    
N10   H10   S    
C5    C17   S    
N8    H5    S    
N12   H14   S    
C3    C4    D    
C5    O5    A    
C11   C13   A    
Cu2   O6    S    
C13   H1    S    
N7    H4    S    
C20   N1    A    
C14   H2    S    
N7    H3    S    
C7    C9    A    
C19   N2    A    
C7    N7    S    
N6    N12   S    
Cu1   O4    S    
C20   N4    A    
C4    Br4   S    
N12   H13   S    
C15   C17   A    
N5    N11   S    
Cu2   O7    S    
C8    C10   A    
C8    C18   A    
Cu1   O8    S    
C16   N10   S    
C1    C3    S    
C7    C17   A    
