data_mof_unit_68004.cif
_audit_creation_date              2013-03-05T15:47:56-0500
_audit_creation_method            fapswitch 2.2
_symmetry_space_group_name_H-M    P1
_symmetry_Int_Tables_number       1
_space_group_crystal_system       triclinic
_cell_length_a                    11.853085
_cell_length_b                    11.852957
_cell_length_c                    18.673091
_cell_angle_alpha                 89.832219
_cell_angle_beta                  89.835348
_cell_angle_gamma                 120.084706
_cell_volume                      2270.00229918

loop_
_atom_site_label
_atom_site_type_symbol
_atom_site_description
_atom_site_fract_x
_atom_site_fract_y
_atom_site_fract_z
_atom_type_partial_charge
O1    O     O_R   0.913270 0.574260 0.668550 -0.543779
O2    O     O_R   0.660990 0.086730 0.831450 -0.527970
O3    O     O_R   0.425740 0.339010 0.668550 -0.552786
O4    O     O_R   0.913270 0.574260 0.831450 -0.536601
O5    O     O_R   0.660990 0.086730 0.668550 -0.546808
O6    O     O_R   0.425740 0.339010 0.831450 -0.527730
O7    O     O_R   0.574260 0.913270 0.168550 -0.543730
O8    O     O_R   0.086730 0.660990 0.331450 -0.528023
O9    O     O_R   0.339010 0.425740 0.168550 -0.552795
O10   O     O_R   0.574260 0.913270 0.331450 -0.536599
O11   O     O_R   0.086730 0.660990 0.168550 -0.546802
O12   O     O_R   0.339010 0.425740 0.331450 -0.527740
O13   O     O_R   0.640160 0.530400 0.673300 -0.523125
O14   O     O_R   0.890240 0.359840 0.826700 -0.517226
O15   O     O_R   0.469600 0.109760 0.673300 -0.512773
O16   O     O_R   0.640160 0.530400 0.826700 -0.521174
O17   O     O_R   0.890240 0.359840 0.673300 -0.501191
O18   O     O_R   0.469600 0.109760 0.826700 -0.528269
O19   O     O_R   0.530400 0.640160 0.173300 -0.523193
O20   O     O_R   0.359840 0.890240 0.326700 -0.517243
O21   O     O_R   0.109760 0.469600 0.173300 -0.512700
O22   O     O_R   0.530400 0.640160 0.326700 -0.521192
O23   O     O_R   0.359840 0.890240 0.173300 -0.501192
O24   O     O_R   0.109760 0.469600 0.326700 -0.528228
C1    C     C_R   0.532777 0.441107 0.639771 0.545561
C2    C     C_R   0.927297 0.474961 0.856044 0.527763
C3    C     C_R   0.550783 0.077255 0.642638 0.520712
C4    C     C_R   0.522679 0.453534 0.855182 0.520001
C5    C     C_R   0.886755 0.459861 0.638611 0.524324
C6    C     C_R   0.546836 0.070191 0.855865 0.517536
C7    C     C_R   0.441239 0.532685 0.139804 0.545620
C8    C     C_R   0.474953 0.927257 0.356054 0.527786
C9    C     C_R   0.077285 0.550794 0.142629 0.520751
C10   C     C_R   0.453533 0.522674 0.355181 0.519957
C11   C     C_R   0.459866 0.886777 0.138612 0.524387
C12   C     C_R   0.070193 0.546838 0.355867 0.517522
H1    H     H_    0.648448 0.948492 0.553807 0.165116
H2    H     H_    0.308274 0.469164 0.921241 0.130741
H3    H     H_    0.942843 0.663907 0.543311 0.144729
H4    H     H_    0.497296 0.818541 0.914315 0.118789
H5    H     H_    0.318616 0.321966 0.550878 0.126853
H6    H     H_    0.136311 0.690415 0.932244 0.141841
H7    H     H_    0.948572 0.648436 0.053769 0.165089
H8    H     H_    0.469135 0.308225 0.421199 0.130773
H9    H     H_    0.664002 0.943014 0.043311 0.144750
H10   H     H_    0.818497 0.497217 0.414292 0.118776
H11   H     H_    0.322073 0.318588 0.050881 0.126803
H12   H     H_    0.690409 0.136252 0.432268 0.141856
Cr1   Cr    Cr6+3 0.769930 0.543130 0.750000 0.962683
Cr2   Cr    Cr6+3 0.773200 0.230070 0.750000 0.982174
Cr3   Cr    Cr6+3 0.456870 0.226800 0.750000 0.968587
Cr4   Cr    Cr6+3 0.543130 0.769930 0.250000 0.962696
Cr5   Cr    Cr6+3 0.230070 0.773200 0.250000 0.982171
Cr6   Cr    Cr6+3 0.226800 0.456870 0.250000 0.968664
O25   O     O_3   0.666667 0.333333 0.750000 -0.318190
O26   O     O_3   0.333333 0.666667 0.250000 -0.318146
C13   C     C_3   0.406638 0.026975 0.471946 0.012462
C14   C     C_3   0.603292 0.551054 0.031249 -0.001688
C15   C     C_3   0.986342 0.390462 0.478299 0.014713
C16   C     C_3   0.483282 0.059622 0.040780 -0.003138
C17   C     C_3   0.628475 0.587354 0.468443 0.001682
C18   C     C_3   0.931265 0.379653 0.035193 -0.003535
C19   C     C_3   0.027073 0.406603 0.971934 0.012487
C20   C     C_3   0.551083 0.603203 0.531250 -0.001653
C21   C     C_3   0.390412 0.986286 0.978279 0.014698
C22   C     C_3   0.059635 0.483378 0.540796 -0.003093
C23   C     C_3   0.587407 0.628463 0.968460 0.001692
C24   C     C_3   0.379673 0.931173 0.535212 -0.003585
C25   C     C_3   0.534502 0.125555 0.507274 -0.158179
C26   C     C_3   0.525634 0.421238 0.990584 -0.121407
C27   C     C_3   0.860481 0.386261 0.502834 -0.165879
C28   C     C_3   0.602032 0.091434 0.992552 -0.121148
C29   C     C_3   0.605912 0.459725 0.502254 -0.171439
C30   C     C_3   0.871372 0.450361 0.993347 -0.134714
C31   C     C_3   0.125648 0.534483 0.007260 -0.158165
C32   C     C_3   0.421254 0.525560 0.490590 -0.121387
C33   C     C_3   0.386278 0.860463 0.002831 -0.165908
C34   C     C_3   0.091387 0.602087 0.492549 -0.121108
C35   C     C_3   0.459801 0.605894 0.002297 -0.171321
C36   C     C_3   0.450379 0.871277 0.493374 -0.134739
H13   H     H_    0.559497 0.225596 0.518719 0.101405
H14   H     H_    0.548128 0.341565 0.984173 0.102178
H15   H     H_    0.768635 0.298891 0.515518 0.108809
H16   H     H_    0.690008 0.187532 0.984391 0.116191
H17   H     H_    0.679230 0.435433 0.518330 0.099701
H18   H     H_    0.767043 0.417005 0.985290 0.097363
H19   H     H_    0.225684 0.559490 0.018727 0.101445
H20   H     H_    0.341579 0.548054 0.484194 0.102181
H21   H     H_    0.298932 0.768604 0.015519 0.108790
H22   H     H_    0.187470 0.690074 0.484368 0.116224
H23   H     H_    0.435542 0.679239 0.018376 0.099748
H24   H     H_    0.417006 0.766943 0.485322 0.097373
C37   C     C_3   0.512013 0.029249 0.568088 0.043896
C38   C     C_3   0.508434 0.496398 0.927949 0.036715
C39   C     C_3   0.933879 0.477900 0.563302 0.025785
C40   C     C_3   0.508230 0.015318 0.929785 0.038030
C41   C     C_3   0.526618 0.473744 0.563185 0.037339
C42   C     C_3   0.970349 0.480392 0.931224 0.034502
C43   C     C_3   0.029330 0.512007 0.068068 0.043876
C44   C     C_3   0.496400 0.508397 0.427941 0.036725
C45   C     C_3   0.477889 0.933903 0.063304 0.025783
C46   C     C_3   0.015315 0.508243 0.429788 0.037997
C47   C     C_3   0.473848 0.526571 0.063208 0.037433
C48   C     C_3   0.480408 0.970253 0.431245 0.034503
C49   C     C_3   0.581668 0.972071 0.526618 -0.104404
C50   C     C_3   0.382638 0.479180 0.959431 -0.129919
C51   C     C_3   0.963234 0.594971 0.516359 -0.109294
C52   C     C_3   0.502208 0.889679 0.953892 -0.139766
C53   C     C_3   0.401718 0.397369 0.521705 -0.103508
C54   C     C_3   0.070006 0.607265 0.965361 -0.134595
C55   C     C_3   0.972157 0.581653 0.026586 -0.104470
C56   C     C_3   0.479180 0.382578 0.459399 -0.129858
C57   C     C_3   0.594990 0.963320 0.016376 -0.109285
C58   C     C_3   0.889640 0.502159 0.453878 -0.139782
C59   C     C_3   0.397459 0.401695 0.021719 -0.103632
C60   C     C_3   0.607280 0.069914 0.465383 -0.134519
C61   C     C_R   0.320178 0.071518 0.438041 0.001883
C62   C     C_R   0.253657 0.115768 0.480694 -0.148211
C63   C     C_R   0.179904 0.164181 0.449078 -0.119917
C64   C     C_R   0.166517 0.163788 0.375424 -0.067207
C65   C     C_R   0.228300 0.116290 0.333348 -0.130865
C66   C     C_R   0.315342 0.084741 0.363768 -0.086958
H25   H     H_    0.264569 0.119201 0.538207 0.138027
H26   H     H_    0.135727 0.203526 0.481495 0.129304
H27   H     H_    0.111366 0.201615 0.349862 0.149926
H28   H     H_    0.210065 0.106586 0.277193 0.091375
H29   H     H_    0.386998 0.085459 0.329069 0.152338
C67   C     C_R   0.706347 0.586198 0.085449 0.023452
C68   C     C_R   0.708493 0.487980 0.125249 -0.097714
C69   C     C_R   0.781655 0.518925 0.187766 -0.114624
C70   C     C_R   0.870617 0.647426 0.202101 -0.062193
C71   C     C_R   0.873178 0.746261 0.160978 -0.147894
C72   C     C_R   0.776232 0.713178 0.110497 -0.102780
H30   H     H_    0.647486 0.389325 0.109424 0.129381
H31   H     H_    0.770867 0.446639 0.226146 0.087352
H32   H     H_    0.933111 0.670914 0.247999 0.187188
H33   H     H_    0.937337 0.847120 0.175170 0.079753
H34   H     H_    0.750890 0.783872 0.094676 0.115047
C73   C     C_R   0.951858 0.255417 0.461171 0.019192
C74   C     C_R   0.917728 0.165087 0.517076 -0.129753
C75   C     C_R   0.867604 0.035401 0.501435 -0.147204
C76   C     C_R   0.817344 0.989881 0.434241 -0.075921
C77   C     C_R   0.849702 0.076279 0.378132 -0.132911
C78   C     C_R   0.916598 0.209712 0.391326 -0.136427
H35   H     H_    0.925288 0.192987 0.572657 0.143231
H36   H     H_    0.855185 0.970092 0.543039 0.109451
H37   H     H_    0.748737 0.888426 0.425804 0.168110
H38   H     H_    0.813354 0.037345 0.326458 0.140037
H39   H     H_    0.926653 0.275024 0.349231 0.133986
C79   C     C_R   0.480319 0.139997 0.101801 0.020684
C80   C     C_R   0.564584 0.167133 0.159672 -0.082856
C81   C     C_R   0.552976 0.224961 0.221822 -0.143296
C82   C     C_R   0.455278 0.256579 0.226113 -0.096547
C83   C     C_R   0.360427 0.212349 0.172878 -0.083188
C84   C     C_R   0.377000 0.160902 0.110377 -0.110341
H40   H     H_    0.632265 0.134322 0.157539 0.166674
H41   H     H_    0.617915 0.243338 0.266473 0.084717
H42   H     H_    0.447535 0.305223 0.273014 0.142983
H43   H     H_    0.270806 0.213675 0.179309 0.139133
H44   H     H_    0.306442 0.134149 0.070047 0.079110
C85   C     C_R   0.750229 0.668983 0.423453 0.010369
C86   C     C_R   0.869086 0.768954 0.448953 -0.123869
C87   C     C_R   0.963575 0.854790 0.400621 -0.081661
C88   C     C_R   0.926303 0.862724 0.331276 -0.135752
C89   C     C_R   0.804553 0.766559 0.309648 -0.108494
C90   C     C_R   0.744736 0.652540 0.349656 -0.064222
H45   H     H_    0.886810 0.790467 0.503425 0.077332
H46   H     H_    0.055569 0.926027 0.419045 0.151497
H47   H     H_    0.986592 0.943281 0.296279 0.088617
H48   H     H_    0.760977 0.774738 0.260960 0.154176
H49   H     H_    0.674969 0.562164 0.324687 0.114181
C91   C     C_R   0.879209 0.261970 0.084001 0.015525
C92   C     C_R   0.862059 0.273236 0.156717 -0.079999
C93   C     C_R   0.848970 0.178576 0.205052 -0.087416
C94   C     C_R   0.870180 0.078768 0.182887 -0.066080
C95   C     C_R   0.888606 0.067104 0.110749 -0.129128
C96   C     C_R   0.877856 0.149942 0.061554 -0.117849
H50   H     H_    0.857294 0.354234 0.176344 0.105757
H51   H     H_    0.817358 0.182981 0.257865 0.084163
H52   H     H_    0.867906 0.007900 0.219871 0.071036
H53   H     H_    0.909811 0.993771 0.093184 0.077802
H54   H     H_    0.874818 0.131286 0.005738 0.120037
C97   C     C_R   0.071581 0.320099 0.938002 0.001804
C98   C     C_R   0.084692 0.315277 0.863728 -0.086813
C99   C     C_R   0.116104 0.228204 0.833248 -0.130978
C100  C     C_R   0.163793 0.166500 0.875243 -0.067307
C101  C     C_R   0.164497 0.179997 0.948890 -0.119611
C102  C     C_R   0.115945 0.253579 0.980590 -0.148269
H55   H     H_    0.085437 0.386984 0.829069 0.152319
H56   H     H_    0.106276 0.210013 0.777094 0.091383
H57   H     H_    0.201633 0.111414 0.849624 0.149847
H58   H     H_    0.204366 0.136181 0.981195 0.129394
H59   H     H_    0.119419 0.264441 0.038101 0.137950
C103  C     C_R   0.586197 0.706248 0.585454 0.023541
C104  C     C_R   0.713182 0.776207 0.610487 -0.102737
C105  C     C_R   0.746230 0.873151 0.660967 -0.147911
C106  C     C_R   0.647376 0.870561 0.702082 -0.062285
C107  C     C_R   0.518888 0.781536 0.687762 -0.114670
C108  C     C_R   0.487961 0.708334 0.625262 -0.097605
H60   H     H_    0.783907 0.750919 0.594657 0.114990
H61   H     H_    0.847084 0.937346 0.675156 0.079765
H62   H     H_    0.670843 0.933062 0.747976 0.187184
H63   H     H_    0.446595 0.770717 0.726142 0.087389
H64   H     H_    0.389306 0.647253 0.609462 0.129480
C109  C     C_R   0.255373 0.951810 0.961143 0.019124
C110  C     C_R   0.209680 0.916639 0.891292 -0.136426
C111  C     C_R   0.076249 0.849699 0.878099 -0.132875
C112  C     C_R   0.989851 0.817292 0.934207 -0.075901
C113  C     C_R   0.035361 0.867589 0.001393 -0.147112
C114  C     C_R   0.165041 0.917718 0.017037 -0.129705
H65   H     H_    0.275000 0.926740 0.849200 0.134022
H66   H     H_    0.037314 0.813341 0.826428 0.140030
H67   H     H_    0.888401 0.748657 0.925774 0.168122
H68   H     H_    0.970046 0.855116 0.043000 0.109470
H69   H     H_    0.192909 0.925157 0.072619 0.143255
C115  C     C_R   0.140042 0.480483 0.601822 0.020588
C116  C     C_R   0.161045 0.377237 0.610349 -0.110483
C117  C     C_R   0.212406 0.360551 0.672859 -0.083123
C118  C     C_R   0.256560 0.455319 0.726136 -0.096530
C119  C     C_R   0.224915 0.553006 0.721872 -0.143362
C120  C     C_R   0.167106 0.564665 0.659723 -0.082817
H70   H     H_    0.134350 0.306830 0.569955 0.079262
H71   H     H_    0.213683 0.270900 0.679279 0.139125
H72   H     H_    0.305144 0.447505 0.773047 0.143014
H73   H     H_    0.243240 0.617882 0.766547 0.084713
H74   H     H_    0.134238 0.632298 0.657617 0.166816
C121  C     C_R   0.668991 0.750227 0.923476 0.010351
C122  C     C_R   0.652511 0.744738 0.849681 -0.064264
C123  C     C_R   0.766503 0.804546 0.809659 -0.108505
C124  C     C_R   0.862710 0.926267 0.831288 -0.135671
C125  C     C_R   0.854842 0.963537 0.900643 -0.081638
C126  C     C_R   0.768974 0.869074 0.948975 -0.123872
H75   H     H_    0.562127 0.674965 0.824723 0.114173
H76   H     H_    0.774656 0.760957 0.760972 0.154220
H77   H     H_    0.943277 0.986502 0.796290 0.088613
H78   H     H_    0.926193 0.055460 0.919085 0.151496
H79   H     H_    0.790476 0.886799 0.003450 0.077334
C127  C     C_R   0.261992 0.879116 0.584022 0.015465
C128  C     C_R   0.149926 0.877672 0.561554 -0.117855
C129  C     C_R   0.067107 0.888496 0.610729 -0.129066
C130  C     C_R   0.078789 0.870162 0.682876 -0.066087
C131  C     C_R   0.178613 0.848995 0.705068 -0.087516
C132  C     C_R   0.273283 0.862065 0.656751 -0.079974
H80   H     H_    0.131272 0.874588 0.505733 0.120034
H81   H     H_    0.993788 0.909707 0.593144 0.077771
H82   H     H_    0.007923 0.867925 0.719846 0.071022
H83   H     H_    0.183003 0.817385 0.757882 0.084147
H84   H     H_    0.354293 0.857340 0.676404 0.105795

loop_
_geom_bond_atom_site_label_1
_geom_bond_atom_site_label_2
_geom_bond_distance
_ccdc_geom_bond_type
C91   C96   1.386041 A    
O16   C4    1.331539 A    
C81   H41   1.082478 S    
C25   C60   1.536401 S    
C14   C67   1.479657 S    
C89   C90   1.384802 A    
C42   C54   1.513984 S    
C34   C46   1.559457 S    
C61   C62   1.394481 A    
C45   C57   1.523831 S    
C120  H74   1.053085 S    
C49   C60   1.543324 S    
C33   C45   1.509021 S    
C87   C88   1.387434 A    
C11   C45   1.486332 S    
C61   C66   1.399854 A    
O19   C7    1.337781 A    
C67   C68   1.390322 A    
C85   C86   1.396112 A    
C32   C53   1.530107 S    
O8    Cr5   2.162550 S    
C117  C118  1.394823 A    
C99   H56   1.066021 S    
C30   C42   1.555568 S    
O14   Cr2   2.055906 S    
C109  C110  1.396161 A    
C64   C65   1.372301 A    
H11   C59   1.084865 S    
C33   H21   1.086483 S    
O24   C12   1.336647 A    
C36   C48   1.555611 S    
C17   C85   1.520848 S    
C92   H50   1.056184 S    
C4    C38   1.490532 S    
C88   C89   1.379069 A    
C26   C38   1.542882 S    
O7    Cr4   2.165434 S    
C68   C69   1.392413 A    
C19   C42   1.543856 S    
C25   C37   1.532734 S    
C15   C22   1.543917 S    
O20   C8    1.326718 A    
O21   Cr6   2.053926 S    
C93   C94   1.390860 A    
C27   C39   1.508999 S    
C97   C102  1.394642 A    
O21   C9    1.331094 A    
C16   C28   1.546942 S    
O24   Cr6   2.048975 S    
C77   C78   1.391737 A    
C24   C127  1.511171 S    
C115  C120  1.398191 A    
O17   C5    1.368054 A    
C98   C99   1.383911 A    
C12   C46   1.493505 S    
C130  C131  1.390865 A    
O8    C12   1.344246 A    
C66   H29   1.063403 S    
C62   C63   1.394984 A    
C119  C120  1.390674 A    
C6    C40   1.493468 S    
O2    Cr2   2.162530 S    
C106  H62   1.076614 S    
C37   C49   1.516904 S    
C118  H72   1.078634 S    
O5    C3    1.345362 A    
C69   C70   1.377410 A    
C110  H65   1.065179 S    
C21   C40   1.548462 S    
O6    C4    1.342395 A    
C128  C129  1.394662 A    
C71   C72   1.385443 A    
C20   C103  1.479688 S    
Cr2   O25   2.154572 S    
C23   C38   1.562294 S    
C10   C44   1.490486 S    
C80   C81   1.390627 A    
C8    C48   1.485584 S    
C107  C108  1.392386 A    
O18   C6    1.336604 A    
C23   C121  1.520767 S    
O6    Cr3   2.172315 S    
C106  C107  1.377411 A    
C32   H20   1.109120 S    
C90   H49   1.079706 S    
C35   H23   1.086400 S    
C85   C90   1.389443 A    
O11   Cr5   2.174862 S    
H12   C60   1.090149 S    
C103  C104  1.388038 A    
C40   C52   1.521441 S    
C100  C101  1.384517 A    
O10   Cr4   2.173895 S    
C72   H34   1.063500 S    
C48   C60   1.513999 S    
O20   Cr5   2.055903 S    
C107  H63   1.072435 S    
C35   C47   1.535305 S    
C88   H47   1.076579 S    
C77   H38   1.065500 S    
H7    C55   1.088938 S    
O22   C10   1.331555 A    
O19   Cr4   2.054611 S    
C125  H78   1.049306 S    
O1    C5    1.352091 A    
C122  C123  1.384736 A    
C123  C124  1.379009 A    
O18   Cr3   2.048907 S    
O23   Cr5   2.044052 S    
C27   H15   1.086521 S    
C74   C75   1.374473 A    
C95   H53   1.070751 S    
C22   C34   1.546872 S    
Cr6   O26   2.151776 S    
C28   H16   1.102413 S    
C19   C97   1.508387 S    
H10   C58   1.102390 S    
Cr4   O26   2.151855 S    
C130  H82   1.075675 S    
C117  H71   1.076648 S    
C21   C33   1.536016 S    
O16   Cr1   2.047779 S    
C70   H32   1.076601 S    
C53   C56   1.543960 S    
C118  C119  1.386633 A    
C5    C39   1.486351 S    
O3    Cr3   2.168344 S    
C110  C111  1.391722 A    
C112  C113  1.380653 A    
C104  C105  1.385480 A    
Cr3   O25   2.151798 S    
C17   C29   1.531822 S    
C116  C117  1.376841 A    
C92   C93   1.384311 A    
C28   C57   1.542577 S    
C30   H18   1.104277 S    
C111  C112  1.375182 A    
C35   C50   1.538530 S    
C34   C51   1.542598 S    
C9    C43   1.489697 S    
C7    C47   1.491931 S    
C52   C57   1.543898 S    
H2    C50   1.094879 S    
C17   C20   1.555676 S    
H3    C51   1.085843 S    
C97   C98   1.399692 A    
C51   C58   1.543902 S    
H1    C49   1.088905 S    
C47   C59   1.509311 S    
C46   C58   1.521443 S    
O10   C8    1.347998 A    
C76   H37   1.074088 S    
C24   C36   1.553313 S    
C41   C53   1.509385 S    
C73   C78   1.396220 A    
C14   C23   1.555679 S    
C101  C102  1.395174 A    
O15   C3    1.331187 A    
C121  C122  1.389435 A    
C15   C73   1.476270 S    
C73   C74   1.398771 A    
C115  C116  1.374579 A    
C43   C55   1.516848 S    
C18   C19   1.553517 S    
C31   C43   1.532822 S    
C113  C114  1.374414 A    
C20   C32   1.543522 S    
C23   C35   1.531786 S    
C124  H77   1.076533 S    
C54   C55   1.543294 S    
C16   C79   1.498958 S    
C80   H40   1.053145 S    
O14   C2    1.326639 A    
C36   H24   1.104266 S    
C96   H54   1.063058 S    
C29   H17   1.086331 S    
C101  H58   1.050141 S    
C128  H80   1.063099 S    
C39   C51   1.523823 S    
C75   H36   1.051672 S    
C2    C42   1.485621 S    
O13   Cr1   2.054571 S    
C116  H70   1.051580 S    
H8    C56   1.094832 S    
C1    C41   1.491923 S    
C95   C96   1.394643 A    
C69   H31   1.072433 S    
C16   C21   1.543834 S    
C44   C56   1.516495 S    
O15   Cr3   2.053975 S    
C79   C84   1.374818 A    
C29   C41   1.535265 S    
C129  H81   1.070745 S    
C111  H66   1.065473 S    
O5    Cr2   2.174871 S    
C3    C37   1.489626 S    
C17   C44   1.562280 S    
C32   C44   1.542864 S    
C13   C24   1.553496 S    
O12   C10   1.342362 A    
C16   C45   1.517282 S    
C30   C55   1.542790 S    
C91   C92   1.389080 A    
C29   C56   1.538539 S    
C13   C61   1.507992 S    
C104  H60   1.063478 S    
C100  H57   1.072637 S    
Cr5   O26   2.154572 S    
C31   H19   1.090478 S    
C89   H48   1.074763 S    
C13   C48   1.543614 S    
C127  C128  1.386074 A    
C38   C50   1.516474 S    
C31   C54   1.536481 S    
C78   H39   1.065244 S    
C131  C132  1.384302 A    
C84   H44   1.051800 S    
C64   H27   1.072652 S    
C15   C46   1.548425 S    
O7    C11   1.352094 A    
C20   C41   1.530308 S    
C33   C52   1.535296 S    
C14   C26   1.543497 S    
C24   C37   1.539608 S    
C105  C106  1.386342 A    
O13   C1    1.337954 A    
C70   C71   1.386309 A    
O17   Cr2   2.044043 S    
C102  H59   1.080406 S    
O4    C2    1.348075 A    
C63   C64   1.384682 A    
C65   C66   1.384139 A    
C112  H67   1.074103 S    
C94   H52   1.075659 S    
O9    Cr6   2.168416 S    
O11   C9    1.345457 A    
C26   C59   1.530081 S    
C86   C87   1.396580 A    
C18   C91   1.511139 S    
C50   C59   1.543983 S    
C74   H35   1.080467 S    
O23   C11   1.368022 A    
C113  H68   1.051637 S    
H4    C52   1.102356 S    
O4    Cr1   2.173857 S    
O2    C6    1.344283 A    
C131  H83   1.064594 S    
C87   H46   1.049337 S    
C82   C83   1.394830 A    
C83   H43   1.076631 S    
C94   C95   1.382384 A    
Cr1   O25   2.151832 S    
C75   C76   1.380703 A    
C36   C49   1.542832 S    
C18   C43   1.539688 S    
C99   C100  1.372243 A    
C108  H64   1.064464 S    
C123  H76   1.074747 S    
C19   C31   1.527284 S    
C109  C114  1.398713 A    
C34   H22   1.102419 S    
C22   C115  1.498956 S    
C127  C132  1.389118 A    
C129  C130  1.382358 A    
C119  H73   1.082487 S    
C121  C126  1.396085 A    
O22   Cr4   2.047714 S    
C63   H26   1.050119 S    
C62   H25   1.080515 S    
H6    C54   1.090190 S    
C124  C125  1.387448 A    
C26   H14   1.109118 S    
C68   H30   1.064481 S    
C25   H13   1.090485 S    
C126  H79   1.045414 S    
O9    C7    1.347447 A    
C86   H45   1.045376 S    
C28   C40   1.559444 S    
C103  C108  1.390329 A    
H9    C57   1.085845 S    
C83   C84   1.376767 A    
C65   H28   1.066099 S    
O3    C1    1.347556 A    
C21   C109  1.476269 S    
C81   C82   1.386591 A    
C27   C58   1.535280 S    
C132  H84   1.056247 S    
C82   H42   1.078622 S    
C125  C126  1.396564 A    
C76   C77   1.375207 A    
C79   C80   1.398212 A    
C18   C30   1.553312 S    
H5    C53   1.085002 S    
C14   C47   1.530290 S    
C71   H33   1.081329 S    
C13   C25   1.527182 S    
C105  H61   1.081340 S    
C67   C72   1.388038 A    
O1    Cr1   2.165498 S    
C93   H51   1.064644 S    
C98   H55   1.063273 S    
O12   Cr6   2.172258 S    
C114  H69   1.080456 S    
C15   C27   1.536031 S    
C22   C39   1.517203 S    
C122  H75   1.079700 S    
