data_mof_unit_62139.cif
_audit_creation_date              2012-12-10T17:00:13-0500
_audit_creation_method            fapswitch 2.2
_symmetry_space_group_name_H-M    P1
_symmetry_Int_Tables_number       1
_space_group_crystal_system       triclinic
_cell_length_a                    13.149355
_cell_length_b                    13.220723
_cell_length_c                    16.045482
_cell_angle_alpha                 80.548111
_cell_angle_beta                  100.576467
_cell_angle_gamma                 91.248556
_cell_volume                      2704.6942126

loop_
_atom_site_label
_atom_site_type_symbol
_atom_type_description
_atom_site_fract_x
_atom_site_fract_y
_atom_site_fract_z
_atom_type_partial_charge
C1    C     C_R   0.465417 0.777557 0.467871 0.513378
C2    C     C_2   0.055188 0.518288 0.493478 -0.147664
C3    C     C_2   0.888324 0.552376 0.530173 -0.104305
C4    C     C_R   0.536111 0.223799 0.531175 0.496573
C5    C     C_2   0.944531 0.499433 0.490350 -0.149559
C6    C     C_R   0.777132 0.533979 0.524150 0.515523
C7    C     C_R   0.223358 0.466277 0.475230 0.509043
C8    C     C_R   0.515880 0.487866 0.726986 0.506006
C9    C     C_R   0.484126 0.512399 0.273114 0.503315
C10   C     C_1   0.522425 0.483335 0.817703 0.016670
C11   C     C_2   0.534105 0.475098 0.985014 -0.119314
C12   C     C_1   0.472073 0.521561 0.106065 -0.041834
C13   C     C_2   0.465831 0.526207 0.014974 -0.120145
C14   C     C_1   0.527812 0.479563 0.893937 -0.042136
C15   C     C_1   0.477479 0.517480 0.182333 0.017581
C16   C     C_2   0.549667 0.113815 0.543497 -0.061100
C17   C     C_2   0.511661 0.061313 0.480489 -0.096464
C18   C     C_2   0.457128 0.890137 0.453819 -0.085394
C19   C     C_2   0.528569 0.950207 0.493737 0.070590
C20   C     C_2   0.112327 0.452609 0.466534 -0.080366
H1    H     H_    0.404631 0.571903 0.971176 0.137805
H2    H     H_    0.605193 0.865455 0.605007 0.261589
H3    H     H_    0.663945 0.868202 0.516948 0.258703
H4    H     H_    0.078581 0.383791 0.444420 0.095062
H5    H     H_    0.595285 0.429386 0.028824 0.139186
H6    H     H_    0.466271 0.099980 0.420550 0.104540
H7    H     H_    0.389628 0.925449 0.409970 0.084647
H8    H     H_    0.587956 0.075251 0.606128 0.128013
H9    H     H_    0.908751 0.440097 0.455364 0.163489
H10   H     H_    0.090898 0.583816 0.520129 0.133616
H11   H     H_    0.924147 0.610556 0.566380 0.110032
N1    N     N_3   0.622646 0.910388 0.549569 -0.615359
O1    O     O_3   0.500000 0.500000 0.500000 -0.439193
O2    O     O_R   0.564890 0.556920 0.685230 -0.537935
O3    O     O_R   0.419250 0.562810 0.301190 -0.535960
O4    O     O_R   0.461010 0.422870 0.688230 -0.533285
O5    O     O_R   0.554850 0.457400 0.325340 -0.537633
O6    O     O_R   0.732880 0.470090 0.478000 -0.537482
O7    O     O_R   0.260330 0.535210 0.424090 -0.531483
O8    O     O_R   0.533020 0.732860 0.528350 -0.549816
O9    O     O_R   0.473780 0.261850 0.569570 -0.537371
O10   O     O_R   0.406490 0.723840 0.419860 -0.534726
O11   O     O_R   0.586720 0.281460 0.482230 -0.529593
O12   O     O_R   0.723810 0.584530 0.562340 -0.540417
O13   O     O_R   0.282980 0.410180 0.535580 -0.532984
Zn1   Zn    Zn3+2 0.592010 0.428480 0.447310 0.945205
Zn2   Zn    Zn3+2 0.579060 0.591980 0.567800 0.934527
Zn3   Zn    Zn3+2 0.430650 0.400450 0.572090 0.948724
Zn4   Zn    Zn3+2 0.398290 0.579090 0.412800 0.947704

loop_
_geom_bond_atom_site_label_1
_geom_bond_atom_site_label_2
_ccdc_geom_bond_type
C16   H8    S    
O8    Zn2   S    
C6    O6    A    
C4    C16   S    
C4    O11   A    
O12   Zn2   S    
C12   C15   T    
C2    H10   S    
C3    C6    S    
H3    N1    S    
C9    O5    A    
C9    C15   S    
C13   H1    S    
C6    O12   A    
C3    H11   S    
O1    Zn1   S    
C11   C13   D    
C1    C18   S    
H2    N1    S    
C19   N1    S    
C7    O13   A    
O7    Zn4   S    
O9    Zn3   S    
O3    Zn4   S    
O4    Zn3   S    
C5    H9    S    
C8    O4    A    
O1    Zn2   S    
O11   Zn1   S    
O6    Zn1   S    
C2    C5    S    
C4    O9    A    
C17   H6    S    
O10   Zn4   S    
O1    Zn4   S    
C1    O10   A    
C12   C13   S    
C8    C10   S    
C18   C19   D    
C10   C14   T    
O13   Zn3   S    
C11   C14   S    
C9    O3    A    
O1    Zn3   S    
C11   H5    S    
C7    O7    A    
O2    Zn2   S    
C1    O8    A    
C17   C19   S    
O5    Zn1   S    
C8    O2    A    
C2    C20   D    
C7    C20   S    
C18   H7    S    
C20   H4    S    
C16   C17   D    
C3    C5    D    
