data_mof_unit_67036.cif
_audit_creation_date              2013-03-05T15:58:15-0500
_audit_creation_method            fapswitch 2.2
_symmetry_space_group_name_H-M    P1
_symmetry_Int_Tables_number       1
_space_group_crystal_system       triclinic
_cell_length_a                    8.174297
_cell_length_b                    12.669822
_cell_length_c                    14.230695
_cell_angle_alpha                 92.975596
_cell_angle_beta                  90.690904
_cell_angle_gamma                 98.281096
_cell_volume                      1456.21073501

loop_
_atom_site_label
_atom_site_type_symbol
_atom_site_description
_atom_site_fract_x
_atom_site_fract_y
_atom_site_fract_z
_atom_type_partial_charge
P1    P     P_3+3 0.054400 0.427280 0.286870 0.466150
O1    O     O_2   0.887370 0.460630 0.272300 -0.377843
O2    O     O_3   0.129410 0.451380 0.388510 -0.405996
O3    O     O_3   0.670210 0.653170 0.329170 -0.378614
O4    O     O_2   0.792101 0.591480 0.165291 -0.400220
O5    O     O_3   0.016635 0.289066 0.262411 -0.539747
O6    O     O_3   0.715592 0.784119 0.172910 -0.491001
H1    H     H_    0.740236 0.887835 0.290134 0.131761
C1    C     C_3   0.601700 0.947126 0.179269 -0.907011
H2    H     H_    0.554646 0.007048 0.227570 0.249017
H3    H     H_    0.711550 0.985947 0.142513 0.277483
P2    P     P_3+3 0.668300 0.742890 0.573060 0.463632
P3    P     P_3+3 0.132519 0.842724 0.373748 0.449030
O7    O     O_2   0.845380 0.761330 0.544970 -0.374997
O8    O     O_3   0.088930 0.704860 0.376040 -0.390917
O9    O     O_2   0.000959 0.889335 0.433718 -0.384547
O10   O     O_3   0.684317 0.767154 0.695221 -0.551607
O11   O     O_3   0.098255 0.880589 0.259296 -0.512531
C2    C     C_3   0.142903 0.802096 0.195025 0.452541
H4    H     H_    0.060157 0.725288 0.200872 0.148742
H5    H     H_    0.272813 0.789574 0.207102 0.013412
C3    C     C_3   0.126105 0.837579 0.095282 -0.852912
H6    H     H_    0.995820 0.847205 0.079636 0.295519
H7    H     H_    0.206181 0.914952 0.087002 0.279799
C4    C     C_3   0.226311 0.762617 0.656798 0.399433
H8    H     H_    0.349019 0.742177 0.638534 0.096853
H9    H     H_    0.138537 0.740862 0.596499 0.136352
C5    C     C_3   0.239718 0.882203 0.677947 -0.894211
H10   H     H_    0.324050 0.905913 0.739193 0.268641
H11   H     H_    0.288886 0.926015 0.616686 0.226598
H12   H     H_    0.115965 0.903804 0.694472 0.275346
Ba1   Ba    Ba6+2 0.855630 0.555280 0.454520 1.543219
C6    C     C_3   0.968861 0.237026 0.343958 0.389043
H13   H     H_    0.847792 0.257438 0.365198 0.082533
H14   H     H_    0.060104 0.258947 0.402438 0.139257
C7    C     C_3   0.955255 0.117446 0.322192 -0.843919
H15   H     H_    0.868008 0.093606 0.262204 0.255332
H16   H     H_    0.909680 0.073207 0.383894 0.217584
H17   H     H_    0.078387 0.096145 0.303679 0.294480
C8    C     C_3   0.716970 0.675855 0.738907 0.331400
H18   H     H_    0.815472 0.639590 0.702122 0.053241
H19   H     H_    0.603241 0.616604 0.739368 0.116049
C9    C     C_3   0.774949 0.707546 0.840228 -0.160555
H20   H     H_    0.901347 0.753510 0.840715 0.180320
H21   H     H_    0.777756 0.635196 0.880453 0.105544
P4    P     P_3+3 0.135310 0.572810 0.713130 0.457431
O12   O     O_2   0.302330 0.539400 0.727760 -0.367558
O13   O     O_3   0.060300 0.548700 0.611500 -0.404233
O14   O     O_3   0.519500 0.346920 0.670840 -0.372674
O15   O     O_3   0.172302 0.710993 0.737617 -0.566984
P5    P     P_3+3 0.061057 0.155932 0.625625 0.448862
O16   O     O_3   0.614310 0.373510 0.452640 -0.388648
O17   O     O_3   0.100780 0.295230 0.623970 -0.386264
O18   O     O_2   0.195609 0.111021 0.566819 -0.381189
O19   O     O_3   0.096136 0.118310 0.739793 -0.520397
Ba2   Ba    Ba6+2 0.334200 0.444810 0.545490 1.552298
P6    P     P_3+3 0.657807 0.653403 0.206620 0.466603
C10   C     C_3   0.647027 0.855634 0.234612 0.428639
H22   H     H_    0.533483 0.819043 0.269466 0.028294
H23   H     H_    0.504271 0.916229 0.125790 0.277502
O20   O     O_3   0.575400 0.626570 0.547370 -0.397712
C11   C     C_3   0.476379 0.308708 0.258442 0.312096
H24   H     H_    0.356702 0.328635 0.284610 0.104727
H25   H     H_    0.574698 0.377941 0.273316 0.079098
C12   C     C_3   0.462103 0.286519 0.152303 -0.126691
H26   H     H_    0.433080 0.358271 0.117720 0.100466
H27   H     H_    0.580986 0.266037 0.125024 0.148567
P7    P     P_3+3 0.527070 0.241456 0.422229 0.429903
O21   O     O_2   0.344320 0.238700 0.455090 -0.367569
O22   O     O_3   0.516451 0.217587 0.300072 -0.568443
H28   H     H_    0.163974 0.776773 0.044197 0.214724
C13   C     C_3   0.044572 0.194309 0.803908 0.420257
H29   H     H_    0.125313 0.272348 0.800513 0.156505
H30   H     H_    0.914348 0.204884 0.789891 0.016442
C14   C     C_3   0.057581 0.156470 0.902858 -0.834341
H31   H     H_    0.187536 0.146795 0.918895 0.309096
H32   H     H_    0.017657 0.215859 0.954546 0.227029
H33   H     H_    0.978092 0.078420 0.908926 0.257495
P8    P     P_3+3 0.532397 0.344887 0.793153 0.463184
C15   C     C_3   0.539914 0.142723 0.763606 0.404075
H34   H     H_    0.652218 0.179579 0.727670 0.033456
O23   O     O_2   0.400734 0.408547 0.835187 -0.392984
O24   O     O_3   0.469877 0.214017 0.824843 -0.499163
H35   H     H_    0.446625 0.108807 0.708723 0.142763
H36   H     H_    0.685189 0.085710 0.873053 0.261020
C16   C     C_3   0.588398 0.052992 0.819812 -0.907266
H37   H     H_    0.637143 0.993320 0.771982 0.252571
H38   H     H_    0.479601 0.013573 0.857069 0.291956
C17   C     C_R   0.985032 0.442520 0.060900 -0.098374
C18   C     C_R   0.183109 0.497421 0.195783 0.255986
C19   C     C_R   0.338319 0.549189 0.225998 -0.547622
C20   C     C_R   0.451852 0.594689 0.162407 0.245643
C21   C     C_R   0.407987 0.595700 0.067520 -0.286715
C22   C     C_R   0.250088 0.548927 0.034692 0.042319
C23   C     C_R   0.137594 0.495327 0.097938 0.003871
H39   H     H_    0.374095 0.550053 0.299527 0.183920
C24   C     C_R   0.053436 0.501195 0.901879 -0.019562
C25   C     C_R   0.941382 0.446618 0.965020 0.054682
C26   C     C_R   0.008024 0.499692 0.803987 0.234924
C27   C     C_R   0.854103 0.445700 0.773591 -0.540837
C28   C     C_R   0.740229 0.400156 0.837171 0.253921
C29   C     C_R   0.784172 0.398374 0.932048 -0.307392
C30   C     C_R   0.205971 0.553892 0.939005 -0.108296
H40   H     H_    0.497835 0.631783 0.019437 0.202270
H41   H     H_    0.695196 0.360206 0.980006 0.151870
H42   H     H_    0.818687 0.444238 0.699976 0.181576
H43   H     H_    0.897970 0.398028 0.105916 0.157471
H44   H     H_    0.292952 0.598664 0.894156 0.189735
C31   C     C_R   0.764377 0.176505 0.536508 -0.515474
C32   C     C_R   0.428851 0.813280 0.461531 -0.527382
C33   C     C_R   0.405724 0.994825 0.427819 -0.204740
C34   C     C_R   0.340593 0.887412 0.423144 0.211810
C35   C     C_R   0.576285 0.846290 0.512371 0.296092
C36   C     C_R   0.641321 0.956893 0.521787 -0.064935
C37   C     C_R   0.555300 0.031466 0.477211 -0.069176
C38   C     C_R   0.619285 0.141224 0.485075 0.271223
C39   C     C_R   0.853926 0.104436 0.576312 0.210149
C40   C     C_R   0.790394 0.995645 0.572373 -0.193586
H45   H     H_    0.334905 0.048616 0.394621 0.193043
H46   H     H_    0.860705 0.943120 0.607471 0.186027
H47   H     H_    0.813250 0.260711 0.540796 0.171467
H48   H     H_    0.377463 0.729529 0.456437 0.177209
Br1   Br    Br    0.629634 0.795553 0.903475 -0.544976
Br2   Br    Br    0.288374 0.168496 0.121270 -0.520766

loop_
_geom_bond_atom_site_label_1
_geom_bond_atom_site_label_2
_geom_bond_distance
_ccdc_geom_bond_type
P4    C26   1.868604 S    
C21   C22   1.404193 A    
P6    C20   1.829925 S    
C33   C34   1.385990 A    
C15   H35   1.110206 S    
C36   C37   1.425612 A    
C31   C39   1.388050 A    
C18   C23   1.434830 A    
H36   C16   1.109200 S    
C4    C5    1.517315 S    
P1    C18   1.860114 S    
P3    O11   1.752185 S    
O1    Ba1   2.830663 S    
C5    H10   1.106242 S    
C2    H5    1.108757 S    
Ba1   O20   2.890335 S    
O11   C2    1.406038 S    
P3    C34   1.833048 S    
C15   O24   1.407974 S    
C16   H38   1.110118 S    
C37   C38   1.411663 A    
C6    C7    1.518421 S    
C11   O22   1.402270 S    
C29   H41   1.083297 S    
C33   H45   1.078535 S    
P1    O1    1.501391 D    
C12   Br2   1.937102 S    
C4    O15   1.397359 S    
Ba1   O16   2.807030 S    
C15   C16   1.518515 S    
C31   C38   1.390888 A    
H1    C10   1.110730 S    
C19   H39   1.082152 S    
C8    C9    1.527558 S    
C2    H4    1.109771 S    
P7    O21   1.566849 D    
C12   H27   1.110722 S    
P2    O10   1.749646 S    
C11   H25   1.110712 S    
C30   H44   1.080286 S    
C1    H2    1.110454 S    
O6    C10   1.407717 S    
O19   C13   1.404375 S    
O16   P7    1.751801 S    
C8    H19   1.107913 S    
P2    Ba1   3.396332 S    
Ba1   O13   2.786724 S    
O2    Ba1   2.897363 S    
C13   C14   1.518274 S    
C21   H40   1.079121 S    
C24   C26   1.435799 A    
C24   C25   1.423530 A    
C40   H46   1.077223 S    
C7    H17   1.110212 S    
P4    O13   1.561968 S    
P1    O5    1.749673 S    
C28   C29   1.395102 A    
O8    Ba1   2.775932 S    
C2    C3    1.521518 S    
C13   H30   1.108877 S    
C19   C20   1.390262 A    
C16   H37   1.110655 S    
C13   H29   1.110546 S    
C4    H8    1.102210 S    
C25   C29   1.405215 A    
P1    Ba1   3.378280 S    
O14   P8    1.744266 S    
P1    O2    1.562087 S    
O10   C8    1.398346 S    
C17   C23   1.409918 A    
C14   H31   1.109114 S    
C11   H24   1.108878 S    
C24   C30   1.409701 A    
C14   H32   1.110312 S    
O2    Ba2   2.787288 S    
C26   C27   1.395114 A    
C17   H43   1.080530 S    
C6    H13   1.100218 S    
C36   C40   1.419154 A    
C20   C21   1.394090 A    
C9    H21   1.108467 S    
C32   C35   1.397550 A    
O3    Ba1   2.779117 S    
P7    C38   1.832530 S    
P7    O22   1.747894 S    
C8    H18   1.106897 S    
P2    O7    1.495286 D    
C22   C30   1.411308 A    
C12   H26   1.109351 S    
C1    H3    1.110244 S    
C9    H20   1.110320 S    
P5    C39   1.841330 S    
C3    H7    1.110115 S    
C7    H16   1.105796 S    
C9    Br1   1.940997 S    
C3    H28   1.110774 S    
C35   C36   1.424242 A    
O17   Ba2   2.776515 S    
O13   Ba2   2.898120 S    
P4    O12   1.501753 D    
C1    C10   1.520770 S    
C11   C12   1.521931 S    
C3    H6    1.110480 S    
C5    H12   1.110107 S    
O7    Ba1   2.862845 S    
C15   H34   1.111280 S    
P8    O23   1.543431 D    
C4    H9    1.109391 S    
O14   Ba2   2.778526 S    
P4    O15   1.749185 S    
C27   H42   1.081994 S    
O5    C6    1.396472 S    
O4    P6    1.543462 D    
C17   C25   1.411607 A    
C1    H23   1.109660 S    
P5    O18   1.544940 D    
P3    O8    1.733768 S    
C10   H22   1.110585 S    
C39   C40   1.399215 A    
C32   H48   1.081919 S    
P8    O24   1.747276 S    
P2    O20   1.580274 S    
C31   H47   1.082327 S    
C18   C19   1.393779 A    
C5    H11   1.106383 S    
C27   C28   1.392072 A    
C6    H14   1.107871 S    
Ba1   Ba2   4.536697 S    
P2    C35   1.847568 S    
P5    O19   1.748591 S    
C22   C23   1.421399 A    
C14   H33   1.110251 S    
C32   C34   1.392856 A    
C7    H15   1.106845 S    
Ba2   O21   2.863060 S    
P3    O9    1.544774 D    
P4    Ba2   3.378731 S    
Ba2   O20   2.806367 S    
P8    C28   1.831672 S    
C33   C37   1.409400 A    
P5    O17   1.749350 S    
O6    P6    1.748900 S    
O16   Ba2   2.889559 S    
O3    P6    1.745883 S    
O12   Ba2   2.831176 S    
