data_mof_unit_11146.cif
_audit_creation_date              2012-10-26T19:55:35-0400
_audit_creation_method            fapswitch 2.2
_symmetry_space_group_name_H-M    P1
_symmetry_Int_Tables_number       1
_space_group_crystal_system       triclinic
_cell_length_a                    12.957564
_cell_length_b                    15.872089
_cell_length_c                    17.148143
_cell_angle_alpha                 97.472164
_cell_angle_beta                  93.396615
_cell_angle_gamma                 85.779989
_cell_volume                      3482.91618693

loop_
_atom_site_label
_atom_site_type_symbol
_atom_type_description
_atom_site_fract_x
_atom_site_fract_y
_atom_site_fract_z
_atom_type_partial_charge
C1    C     C_R   0.505899 0.488140 0.348793 0.599630
C2    C     C_R   0.524154 0.592192 0.787919 0.164904
C3    C     C_R   0.443277 0.755034 0.463004 0.365736
C4    C     C_R   0.554902 0.245893 0.538736 0.371103
C5    C     C_R   0.448996 0.844927 0.463947 -0.193042
C6    C     C_R   0.549957 0.155829 0.537908 -0.190581
C7    C     C_R   0.523572 0.889478 0.512478 0.151914
C8    C     C_R   0.472942 0.111529 0.491791 0.158037
C9    C     C_R   0.592337 0.843590 0.559447 0.232271
C10   C     C_R   0.402475 0.157543 0.446097 0.232920
C11   C     C_R   0.586229 0.754721 0.557912 0.084630
C12   C     C_R   0.500186 0.510957 0.651893 0.576274
C13   C     C_R   0.410895 0.245768 0.444998 0.075771
C14   C     C_R   0.301484 0.516591 0.502414 0.554155
C15   C     C_R   0.698380 0.483330 0.496740 0.571072
C16   C     C_R   0.810127 0.472540 0.489066 0.015602
C17   C     C_R   0.189507 0.527339 0.508744 -0.001860
C18   C     C_R   0.039458 0.581257 0.583305 0.011625
C19   C     C_R   0.958495 0.425129 0.410414 0.011141
C20   C     C_R   0.144351 0.585974 0.567654 0.256354
C21   C     C_R   0.853644 0.418227 0.426188 0.286668
C22   C     C_R   0.128397 0.474092 0.457798 -0.186779
C23   C     C_R   0.586795 0.531665 0.149222 0.223178
C24   C     C_R   0.871422 0.524963 0.540832 -0.187375
C25   C     C_R   0.021636 0.475062 0.465915 -0.005637
C26   C     C_R   0.977465 0.526582 0.531130 -0.004562
C27   C     C_R   0.521241 0.479053 0.263172 -0.061748
C28   C     C_R   0.504423 0.515772 0.739137 -0.080011
C29   C     C_R   0.571243 0.541888 0.230682 0.178433
C30   C     C_R   0.491291 0.441767 0.774640 0.170215
C31   C     C_3   0.639952 0.932260 0.670407 -0.004803
C32   C     C_3   0.719188 0.996375 0.700788 -0.372315
C33   C     C_3   0.346638 0.068098 0.338120 -0.007215
C34   C     C_R   0.510440 0.441368 0.855920 0.216941
C35   C     C_3   0.262059 0.008112 0.310127 -0.375068
C36   C     C_3   0.666526 0.711777 0.609785 -0.284962
C37   C     C_3   0.330642 0.288735 0.393159 -0.289305
C38   C     C_3   0.822023 0.279942 0.374132 -0.042607
C39   C     C_3   0.757521 0.238183 0.427344 -0.359351
C40   C     C_3   0.180367 0.724312 0.578335 -0.001062
C41   C     C_3   0.253236 0.790397 0.615602 -0.377620
C42   C     C_3   0.995340 0.633564 0.655527 -0.400580
C43   C     C_3   0.000138 0.385621 0.332149 -0.404780
C44   C     C_3   0.354044 0.366245 0.726914 0.020678
C45   C     C_R   0.539177 0.466383 0.099276 0.131493
C46   C     C_3   0.321494 0.288792 0.671677 -0.351742
C47   C     C_3   0.575090 0.684369 0.272764 0.018238
C48   C     C_3   0.636403 0.750952 0.323707 -0.353563
C49   C     C_3   0.591185 0.314005 0.878203 0.023356
C50   C     C_3   0.579571 0.231342 0.911785 -0.369190
C51   C     C_3   0.754191 0.545067 0.123515 0.016213
C52   C     C_3   0.831077 0.611060 0.115836 -0.377387
C53   C     C_3   0.347782 0.347447 0.071590 0.027030
C54   C     C_3   0.308226 0.275119 0.013131 -0.373318
C55   C     C_3   0.667924 0.680081 0.916603 0.022455
C56   C     C_R   0.532623 0.518122 0.904467 0.131248
C57   C     C_3   0.691198 0.759589 0.972592 -0.372019
C58   C     C_3   0.563812 0.277880 0.241592 0.023315
C59   C     C_3   0.540693 0.188935 0.255788 -0.391651
C60   C     C_3   0.435879 0.717537 0.768612 0.024058
C61   C     C_3   0.453395 0.809581 0.760702 -0.388600
C62   C     C_3   0.683646 0.251905 0.642873 -0.018221
C63   C     C_3   0.750397 0.315190 0.693129 -0.372351
C64   C     C_3   0.285307 0.751866 0.384889 -0.034072
C65   C     C_3   0.296116 0.774599 0.302124 -0.416551
C66   C     C_R   0.492107 0.403708 0.131675 0.209952
C67   C     C_R   0.542071 0.592030 0.869658 0.213863
C68   C     C_R   0.492661 0.405329 0.213523 0.167480
Cu1   Cu    Cu3+1 0.494970 0.415610 0.496200 1.009167
Cu2   Cu    Cu3+1 0.505030 0.584390 0.503800 1.020215
H1    H     H_    0.834287 0.565341 0.588288 0.105366
H2    H     H_    0.420656 0.028877 0.345248 0.142305
H3    H     H_    0.354691 0.109253 0.291600 0.115470
H4    H     H_    0.187950 0.045271 0.298604 0.152656
H5    H     H_    0.284023 0.967808 0.254952 0.085649
H6    H     H_    0.251137 0.966443 0.355816 0.158904
H7    H     H_    0.669986 0.747424 0.669808 0.132675
H8    H     H_    0.652382 0.647179 0.619250 0.191018
H9    H     H_    0.743698 0.711077 0.584767 0.118842
H10   H     H_    0.254369 0.293168 0.420177 0.120970
H11   H     H_    0.348044 0.351644 0.380683 0.196084
H12   H     H_    0.165670 0.431977 0.411552 0.109899
H13   H     H_    0.323378 0.251108 0.334228 0.129699
H14   H     H_    0.905245 0.266879 0.391638 0.125716
H15   H     H_    0.809936 0.248201 0.312963 0.125223
H16   H     H_    0.674063 0.249379 0.411081 0.176646
H17   H     H_    0.777646 0.168501 0.421079 0.086252
H18   H     H_    0.774222 0.265084 0.489347 0.185485
H19   H     H_    0.099666 0.749936 0.589655 0.124707
H20   H     H_    0.189792 0.715516 0.513834 0.138223
H21   H     H_    0.237522 0.850101 0.588361 0.095962
H22   H     H_    0.241162 0.804354 0.679625 0.134687
H23   H     H_    0.602840 0.120020 0.574163 0.115540
H24   H     H_    0.334605 0.766386 0.606006 0.173978
H25   H     H_    0.935480 0.681906 0.637432 0.114524
H26   H     H_    0.960406 0.591219 0.691904 0.112001
H27   H     H_    0.055195 0.667215 0.693979 0.167988
H28   H     H_    0.938258 0.362531 0.288918 0.155997
H29   H     H_    0.038320 0.434108 0.304838 0.120189
H30   H     H_    0.056992 0.331468 0.341128 0.108858
H31   H     H_    0.316172 0.424214 0.704128 0.123830
H32   H     H_    0.326194 0.361868 0.786375 0.147989
H33   H     H_    0.359641 0.229743 0.691556 0.151197
H34   H     H_    0.399726 0.880148 0.424892 0.130424
H35   H     H_    0.236150 0.285481 0.671076 0.087114
H36   H     H_    0.343851 0.293555 0.611018 0.180866
H37   H     H_    0.495122 0.688650 0.293186 0.172614
H38   H     H_    0.571990 0.699687 0.211177 0.162586
H39   H     H_    0.714943 0.751294 0.301144 0.147172
H40   H     H_    0.596017 0.814983 0.322411 0.088730
H41   H     H_    0.644230 0.736413 0.385444 0.182382
H42   H     H_    0.658370 0.345662 0.909823 0.119758
H43   H     H_    0.607588 0.297358 0.815036 0.150022
H44   H     H_    0.511807 0.199184 0.882274 0.148488
H45   H     H_    0.633593 0.889920 0.716259 0.115008
H46   H     H_    0.650372 0.188291 0.901913 0.070880
H47   H     H_    0.568693 0.244427 0.975992 0.204772
H48   H     H_    0.763603 0.492242 0.074484 0.124796
H49   H     H_    0.774082 0.519565 0.180634 0.149997
H50   H     H_    0.911391 0.582049 0.121367 0.085691
H51   H     H_    0.819263 0.634530 0.057665 0.139206
H52   H     H_    0.820834 0.665560 0.163010 0.161106
H53   H     H_    0.326065 0.408467 0.047163 0.134823
H54   H     H_    0.309290 0.347737 0.128033 0.142877
H55   H     H_    0.328777 0.213172 0.035589 0.148242
H56   H     H_    0.563734 0.968105 0.661931 0.142279
H57   H     H_    0.222661 0.283758 0.004626 0.078465
H58   H     H_    0.343289 0.274614 0.955507 0.184747
H59   H     H_    0.689715 0.689711 0.856693 0.150122
H60   H     H_    0.716221 0.625035 0.936388 0.124629
H61   H     H_    0.670577 0.751979 0.033137 0.183063
H62   H     H_    0.774997 0.770268 0.973253 0.075530
H63   H     H_    0.645695 0.815851 0.953085 0.146878
H64   H     H_    0.620994 0.303224 0.287903 0.173780
H65   H     H_    0.600041 0.271281 0.183486 0.141748
H66   H     H_    0.479535 0.164264 0.212500 0.156353
H67   H     H_    0.728945 0.039181 0.655835 0.150598
H68   H     H_    0.611882 0.145740 0.249067 0.084708
H69   H     H_    0.515309 0.189974 0.316263 0.138535
H70   H     H_    0.406252 0.716683 0.828245 0.156346
H71   H     H_    0.375562 0.694058 0.723966 0.171008
H72   H     H_    0.474626 0.814958 0.699965 0.136155
H73   H     H_    0.381716 0.850491 0.773634 0.086972
H74   H     H_    0.516568 0.832230 0.803136 0.155875
H75   H     H_    0.631018 0.226510 0.681862 0.140038
H76   H     H_    0.736552 0.199951 0.614570 0.100377
H77   H     H_    0.794175 0.283607 0.740174 0.075675
H78   H     H_    0.692667 0.035363 0.755384 0.080560
H79   H     H_    0.806146 0.339432 0.655994 0.146479
H80   H     H_    0.700992 0.369829 0.720710 0.160418
H81   H     H_    0.259478 0.808307 0.426331 0.099263
H82   H     H_    0.221515 0.708219 0.380641 0.142343
H83   H     H_    0.308258 0.715544 0.260350 0.144648
H84   H     H_    0.224137 0.810138 0.282809 0.104697
H85   H     H_    0.362500 0.814464 0.300347 0.129280
H86   H     H_    0.795058 0.962590 0.714078 0.152951
N1    N     N_2   0.541671 0.457822 0.016323 -0.158062
N2    N     N_2   0.539156 0.526435 0.988338 -0.150017
N3    N     N_R   0.512580 0.711160 0.509520 -0.236210
N4    N     N_R   0.487420 0.288840 0.490480 -0.241111
N5    N     N_2   0.537757 0.978562 0.512310 -0.222530
N6    N     N_2   0.458949 0.022453 0.492375 -0.225900
O1    O     O_R   0.495300 0.420890 0.382510 -0.494344
O2    O     O_3   0.317467 0.118320 0.408672 -0.554321
O3    O     O_3   0.789527 0.367570 0.375229 -0.570360
O4    O     O_3   0.203472 0.646874 0.610378 -0.570055
O5    O     O_3   0.463075 0.367282 0.729858 -0.517248
O6    O     O_3   0.623192 0.602846 0.280008 -0.523098
O7    O     O_3   0.498926 0.366824 0.887557 -0.513311
O8    O     O_3   0.652287 0.583377 0.119606 -0.526347
O9    O     O_3   0.456232 0.334627 0.082845 -0.532647
O10   O     O_3   0.561471 0.667019 0.917233 -0.523598
O11   O     O_3   0.471721 0.332093 0.243753 -0.541948
O12   O     O_R   0.504700 0.579110 0.617490 -0.491073
O13   O     O_3   0.529658 0.667395 0.756298 -0.553099
O14   O     O_3   0.626477 0.294320 0.585357 -0.499104
O15   O     O_3   0.376440 0.706894 0.411303 -0.520566
O16   O     O_R   0.503790 0.563430 0.388930 -0.430262
O17   O     O_R   0.496210 0.436570 0.611070 -0.414997
O18   O     O_R   0.345440 0.440310 0.497300 -0.549505
O19   O     O_R   0.654560 0.559690 0.502700 -0.533639
O20   O     O_R   0.353930 0.582840 0.503720 -0.435880
O21   O     O_R   0.646070 0.417160 0.496280 -0.440176
O22   O     O_3   0.674378 0.883863 0.600434 -0.554600

loop_
_geom_bond_atom_site_label_1
_geom_bond_atom_site_label_2
_ccdc_geom_bond_type
C38   O3    S    
C48   H40   S    
C35   H4    S    
C34   C56   A    
C16   C21   A    
C23   C45   A    
C31   O22   S    
C27   C29   A    
C50   H47   S    
C57   H62   S    
C49   H43   S    
C18   C26   A    
C43   H28   S    
C39   H17   S    
C57   H63   S    
Cu1   N4    S    
N5    N6    D    
C11   N3    A    
C41   H24   S    
C53   C54   S    
C58   H64   S    
C7    N5    S    
C35   H5    S    
N1    N2    D    
C12   C28   S    
C42   H26   S    
C23   C29   A    
C29   O6    S    
C64   O15   S    
C11   C36   S    
C19   C21   A    
C24   C26   A    
C30   O5    S    
C36   H7    S    
C18   C42   S    
Cu1   O18   S    
C38   C39   S    
C2    O13   S    
C56   N2    S    
C66   C68   A    
C15   C16   S    
C46   H35   S    
C15   O19   A    
C59   H66   S    
C17   C20   A    
C21   O3    S    
C18   C20   A    
Cu2   N3    S    
C1    O16   A    
C31   H45   S    
C63   H79   S    
C65   H83   S    
C27   C68   A    
Cu2   O19   S    
C33   H2    S    
C14   O20   A    
C32   H86   S    
C52   H52   S    
C61   H73   S    
C47   C48   S    
C19   C43   S    
C55   H59   S    
C62   H75   S    
C15   O21   A    
C51   H49   S    
C10   C13   A    
C40   H19   S    
C13   N4    A    
C13   C37   S    
Cu1   O21   S    
C6    H23   S    
C48   H39   S    
C5    H34   S    
C16   C24   A    
C3    N3    A    
C14   C17   S    
C37   H11   S    
C39   H18   S    
C64   H82   S    
C63   H77   S    
C54   H55   S    
C44   C46   S    
C37   H10   S    
C35   H6    S    
C31   H56   S    
C30   C34   A    
C64   H81   S    
C51   C52   S    
C66   O9    S    
C33   O2    S    
C45   N1    S    
C43   H30   S    
C4    C6    A    
C2    C67   A    
C53   H53   S    
C42   H27   S    
C5    C7    A    
C44   H32   S    
Cu2   O16   S    
C6    C8    A    
C38   H15   S    
C59   H68   S    
C25   C26   A    
C54   H58   S    
C22   C25   A    
C42   H25   S    
C60   C61   S    
C50   H44   S    
C44   O5    S    
C63   H80   S    
C65   H84   S    
C60   H71   S    
Cu2   O12   S    
C52   H51   S    
C61   H74   S    
C31   C32   S    
C59   H69   S    
C68   O11   S    
C55   H60   S    
C62   O14   S    
C48   H41   S    
C62   C63   S    
Cu2   O20   S    
C9    C11   A    
C34   O7    S    
C36   H9    S    
C49   H42   S    
C52   H50   S    
C33   H3    S    
C40   C41   S    
C41   H21   S    
C60   H70   S    
C49   C50   S    
C47   H37   S    
C55   C57   S    
C4    O14   S    
C58   H65   S    
C58   O11   S    
C22   H12   S    
C55   O10   S    
C12   O12   A    
C46   H33   S    
C7    C9    A    
C10   O2    S    
C38   H14   S    
C40   O4    S    
C57   H61   S    
C51   O8    S    
Cu1   O1    S    
C43   H29   S    
C3    C5    A    
C53   H54   S    
C44   H31   S    
C32   H78   S    
C67   O10   S    
C56   C67   A    
C20   O4    S    
C54   H57   S    
C17   C22   A    
C36   H8    S    
C64   C65   S    
C28   C30   A    
C58   C59   S    
C32   H67   S    
C65   H85   S    
C9    O22   S    
C8    N6    S    
Cu1   O17   S    
C49   O7    S    
C47   O6    S    
C4    N4    A    
C23   O8    S    
C46   H36   S    
C33   C35   S    
C50   H46   S    
C3    O15   S    
Cu1   Cu2   S    
C19   C25   A    
C53   O9    S    
C51   H48   S    
C61   H72   S    
C12   O17   A    
C41   H22   S    
C1    O1    A    
C8    C10   A    
C47   H38   S    
C62   H76   S    
C45   C66   A    
C1    C27   S    
C60   O13   S    
C37   H13   S    
C2    C28   A    
C39   H16   S    
C40   H20   S    
C14   O18   A    
C24   H1    S    
