data_mof_unit_7279.cif
_audit_creation_date              2012-12-10T16:50:03-0500
_audit_creation_method            fapswitch 2.2
_symmetry_space_group_name_H-M    P1
_symmetry_Int_Tables_number       1
_space_group_crystal_system       triclinic
_cell_length_a                    7.787295
_cell_length_b                    8.566149
_cell_length_c                    10.601374
_cell_angle_alpha                 90.967436
_cell_angle_beta                  85.694369
_cell_angle_gamma                 93.749992
_cell_volume                      703.630560688

loop_
_atom_site_label
_atom_site_type_symbol
_atom_type_description
_atom_site_fract_x
_atom_site_fract_y
_atom_site_fract_z
_atom_type_partial_charge
C1    C     C_R   0.545804 0.794678 0.496823 0.931596
C2    C     C_R   0.454206 0.205311 0.503259 0.962364
C3    C     C_R   0.498751 0.502696 0.260698 0.858697
C4    C     C_R   0.423717 0.788799 0.876485 -0.179061
C5    C     C_R   0.381233 0.922083 0.946400 -0.135985
C6    C     C_R   0.375992 0.920612 0.077918 -0.137278
C7    C     C_R   0.413175 0.785848 0.139928 -0.175987
C8    C     C_R   0.455562 0.649432 0.070371 0.094755
C9    C     C_R   0.460993 0.650979 0.938038 0.094218
C10   C     C_R   0.507857 0.514589 0.871258 -0.087465
C11   C     C_R   0.554274 0.382167 0.930906 -0.209032
C12   C     C_R   0.549022 0.380629 0.059954 -0.213555
C13   C     C_R   0.497579 0.511563 0.128522 -0.086926
C14   C     C_2   0.569796 0.958277 0.494957 -0.383826
C15   C     C_2   0.430188 0.041683 0.505140 -0.401424
C16   C     C_R   0.502506 0.504076 0.739217 0.859527
H1    H     H_    0.590589 0.278833 0.877394 0.149488
H2    H     H_    0.701575 0.009522 0.485208 0.185626
H3    H     H_    0.986718 0.617990 0.594581 0.194715
H4    H     H_    0.429460 0.795529 0.774481 0.142045
H5    H     H_    0.353482 0.027068 0.898369 0.139176
H6    H     H_    0.344125 0.024451 0.132040 0.135941
H7    H     H_    0.410136 0.790341 0.241994 0.149467
H8    H     H_    0.583257 0.276646 0.106812 0.148750
H9    H     H_    0.298410 0.990418 0.514876 0.183426
H10   H     H_    0.013298 0.382032 0.405409 0.193708
N1    N     N_2   0.950330 0.457950 0.466250 -0.171257
N2    N     N_2   0.049670 0.542050 0.533750 -0.170952
O1    O     O_R   0.389250 0.738570 0.508280 -0.622706
O2    O     O_R   0.678390 0.711630 0.486650 -0.625061
O3    O     O_R   0.355400 0.513470 0.694050 -0.613788
O4    O     O_R   0.644540 0.486530 0.672420 -0.620465
O5    O     O_R   0.321610 0.288370 0.513350 -0.627071
O6    O     O_R   0.610750 0.261430 0.491720 -0.612325
O7    O     O_R   0.355460 0.513470 0.327580 -0.628037
O8    O     O_R   0.644600 0.486530 0.305950 -0.607663
Zn1   Zn    Zn3+2 0.306930 0.517990 0.514440 0.939798
Zn2   Zn    Zn3+2 0.693070 0.482010 0.485560 0.946566

loop_
_geom_bond_atom_site_label_1
_geom_bond_atom_site_label_2
_ccdc_geom_bond_type
C8    C9    A    
C11   C12   A    
C6    C7    A    
H3    N2    S    
O4    Zn2   S    
C16   O4    A    
C9    C10   A    
C12   H8    S    
C3    C13   S    
C3    O7    A    
C2    O6    A    
C1    O1    A    
C7    C8    A    
C10   C16   S    
C16   O3    A    
C2    C15   S    
H10   N1    S    
C8    C13   A    
C3    O8    A    
C7    H7    S    
N2    Zn1   S    
C2    O5    A    
O8    Zn2   S    
C1    O2    A    
O7    Zn1   S    
C5    C6    A    
C15   H9    S    
C10   C11   A    
N1    Zn2   S    
C4    H4    S    
C5    H5    S    
C12   C13   A    
O2    Zn2   S    
O1    Zn1   S    
N1    N2    D    
C14   H2    S    
C14   C15   D    
C11   H1    S    
C1    C14   S    
C4    C9    A    
O6    Zn2   S    
O5    Zn1   S    
O3    Zn1   S    
C4    C5    A    
C6    H6    S    
