data_mof_unit_20038.cif
_audit_creation_date              2012-10-26T19:27:43-0400
_audit_creation_method            fapswitch 2.2
_symmetry_space_group_name_H-M    P1
_symmetry_Int_Tables_number       1
_space_group_crystal_system       triclinic
_cell_length_a                    20.701499
_cell_length_b                    21.125742
_cell_length_c                    14.793964
_cell_angle_alpha                 89.953234
_cell_angle_beta                  127.888955
_cell_angle_gamma                 90.021064
_cell_volume                      5106.06827202

loop_
_atom_site_label
_atom_site_type_symbol
_atom_type_description
_atom_site_fract_x
_atom_site_fract_y
_atom_site_fract_z
_atom_type_partial_charge
C1    C     C_R   0.602185 0.913007 0.630509 0.558831
C2    C     C_R   0.664090 0.227067 0.068971 -0.098661
C3    C     C_R   0.703322 0.761475 0.943542 0.042739
C4    C     C_R   0.205531 0.737002 0.945898 0.042744
C5    C     C_R   0.754225 0.289894 0.010931 0.043769
C6    C     C_R   0.754015 0.709433 0.010143 0.044674
C7    C     C_R   0.247471 0.291932 0.991919 0.044206
C8    C     C_R   0.294161 0.823455 0.974493 -0.123599
C9    C     C_R   0.657388 0.208408 0.973710 -0.123642
C10   C     C_R   0.654851 0.789328 0.970373 -0.124623
C11   C     C_R   0.349008 0.213722 0.034227 -0.122364
C12   C     C_R   0.789829 0.325637 0.970825 -0.123939
C13   C     C_R   0.661162 0.770371 0.065252 -0.098464
C14   C     C_R   0.156904 0.709264 0.972637 -0.125043
C15   C     C_R   0.209305 0.326174 0.029617 -0.124663
C16   C     C_R   0.790972 0.674465 0.971323 -0.123670
C17   C     C_R   0.343233 0.233125 0.939930 -0.097153
C18   C     C_R   0.781953 0.307595 0.874337 -0.096758
C19   C     C_R   0.162947 0.728365 0.067202 -0.098866
C20   C     C_R   0.216412 0.307466 0.125328 -0.097617
C21   C     C_R   0.783613 0.692908 0.875341 -0.097694
C22   C     C_R   0.321024 0.988296 0.667725 0.083109
C23   C     C_R   0.678914 0.011637 0.332168 0.079037
C24   C     C_R   0.820395 0.506278 0.667434 0.086461
C25   C     C_R   0.397970 0.087126 0.369645 0.557254
C26   C     C_R   0.179331 0.491242 0.332447 0.083177
C27   C     C_R   0.350376 0.995543 0.603810 0.259785
C28   C     C_R   0.649606 0.004449 0.396149 0.259083
C29   C     C_R   0.850187 0.502400 0.603650 0.262304
C30   C     C_R   0.149736 0.496801 0.396278 0.260060
C31   C     C_R   0.487594 0.001670 0.774884 0.006414
C32   C     C_R   0.512333 0.998516 0.225115 0.008387
C33   C     C_R   0.987599 0.498939 0.774879 0.007935
C34   C     C_R   0.012323 0.500762 0.225134 0.010208
C35   C     C_R   0.461050 0.998759 0.844469 -0.018750
C36   C     C_R   0.396651 0.913921 0.368082 0.557905
C37   C     C_R   0.538758 0.001821 0.155416 -0.017968
C38   C     C_R   0.960955 0.500398 0.844426 -0.016820
C39   C     C_R   0.038837 0.498303 0.155491 -0.015386
C40   C     C_R   0.376459 0.989994 0.788134 0.027475
C41   C     C_R   0.623362 0.010472 0.211727 0.026962
C42   C     C_R   0.875876 0.505451 0.787837 0.026698
C43   C     C_R   0.123833 0.492352 0.212030 0.027221
C44   C     C_R   0.515262 0.003435 0.967677 0.033306
C45   C     C_R   0.484462 0.997500 0.032154 0.036154
C46   C     C_R   0.015453 0.497397 0.967815 0.037331
C47   C     C_R   0.602207 0.086962 0.630521 0.557583
C48   C     C_R   0.984286 0.501017 0.032078 0.038673
C49   C     C_R   0.400496 0.986603 0.971299 -0.144283
C50   C     C_R   0.599119 0.014830 0.028449 -0.144227
C51   C     C_R   0.899595 0.507637 0.970789 -0.150368
C52   C     C_R   0.100052 0.490135 0.029038 -0.146012
C53   C     C_R   0.348200 0.983300 0.853044 -0.108090
C54   C     C_R   0.651490 0.017777 0.146746 -0.100110
C55   C     C_R   0.847163 0.509484 0.852487 -0.114665
C56   C     C_R   0.152454 0.487776 0.147326 -0.108373
C57   C     C_R   0.654807 0.141284 0.697064 -0.019672
C58   C     C_R   0.103680 0.414143 0.632376 0.558396
C59   C     C_R   0.335209 0.866091 0.291200 -0.021389
C60   C     C_R   0.345791 0.141800 0.303577 -0.020467
C61   C     C_R   0.654849 0.858670 0.697050 -0.020467
C62   C     C_R   0.155745 0.640654 0.698013 -0.020199
C63   C     C_R   0.835005 0.366099 0.291081 -0.021451
C64   C     C_R   0.834636 0.633468 0.290464 -0.021084
C65   C     C_R   0.166380 0.367291 0.710848 -0.021580
C66   C     C_R   0.734087 0.232747 0.718741 0.097786
C67   C     C_R   0.228200 0.792070 0.240690 0.097370
C68   C     C_R   0.264199 0.231965 0.280314 0.099230
C69   C     C_R   0.896536 0.585993 0.367905 0.556917
C70   C     C_R   0.735828 0.768130 0.720057 0.098693
C71   C     C_R   0.238612 0.730219 0.722935 0.099678
C72   C     C_R   0.729570 0.290792 0.242487 0.099270
C73   C     C_R   0.727349 0.707250 0.239708 0.097465
C74   C     C_R   0.276396 0.295671 0.764663 0.097585
C75   C     C_R   0.691032 0.177721 0.660127 -0.084396
C76   C     C_R   0.285813 0.837691 0.314441 -0.080846
C77   C     C_R   0.307674 0.177017 0.338899 -0.084326
C78   C     C_R   0.692264 0.822984 0.661148 -0.083828
C79   C     C_R   0.194034 0.675948 0.662998 -0.083205
C80   C     C_R   0.896568 0.413943 0.367990 0.557812
C81   C     C_R   0.786898 0.336718 0.315773 -0.079625
C82   C     C_R   0.785494 0.662018 0.313985 -0.080713
C83   C     C_R   0.217018 0.339869 0.688991 -0.080039
C84   C     C_R   0.662833 0.159564 0.794014 -0.127436
C85   C     C_R   0.326002 0.849264 0.192721 -0.132194
C86   C     C_R   0.339831 0.161581 0.208782 -0.128986
C87   C     C_R   0.662006 0.839709 0.793067 -0.128931
C88   C     C_R   0.163123 0.659346 0.794272 -0.129097
C89   C     C_R   0.824467 0.350133 0.191292 -0.133253
C90   C     C_R   0.824546 0.649672 0.191065 -0.132316
C91   C     C_R   0.102357 0.586841 0.630682 0.558022
C92   C     C_R   0.176179 0.350920 0.810024 -0.133424
C93   C     C_R   0.701556 0.216369 0.851315 0.021080
C94   C     C_R   0.266801 0.805217 0.114327 0.019768
C95   C     C_R   0.300542 0.218309 0.151588 0.020305
C96   C     C_R   0.701174 0.783017 0.850491 0.020294
C97   C     C_R   0.203264 0.715552 0.852710 0.020266
C98   C     C_R   0.765604 0.305661 0.113519 0.019481
C99   C     C_R   0.764931 0.693441 0.112334 0.019718
C100  C     C_R   0.236879 0.308110 0.890018 0.019296
C101  C     C_R   0.739671 0.252520 0.814721 0.056798
C102  C     C_R   0.287078 0.804940 0.878828 -0.098244
C103  C     C_R   0.218780 0.775025 0.140728 0.055868
C104  C     C_R   0.259976 0.252900 0.185903 0.058385
C105  C     C_R   0.740657 0.747721 0.815190 0.058210
C106  C     C_R   0.243456 0.750519 0.818084 0.058532
C107  C     C_R   0.719202 0.274332 0.141634 0.057509
C108  C     C_R   0.717256 0.723861 0.139070 0.056008
C109  C     C_R   0.286073 0.278809 0.864908 0.056483
C110  C     C_R   0.704399 0.237325 0.945215 0.044071
C111  C     C_R   0.256465 0.788887 0.012684 0.044992
C112  C     C_R   0.299069 0.240449 0.059393 0.042915
Cu1   Cu    Cu3+1 0.526640 0.000000 0.436960 0.997539
Cu2   Cu    Cu3+1 0.473360 0.000000 0.563040 0.997340
Cu3   Cu    Cu3+1 0.026640 0.500000 0.436960 0.999266
Cu4   Cu    Cu3+1 0.973360 0.500000 0.563040 0.998672
H1    H     H_    0.317067 0.833733 0.854057 0.156105
H2    H     H_    0.626780 0.022059 0.986954 0.096228
H3    H     H_    0.871131 0.511536 0.011702 0.089278
H4    H     H_    0.128390 0.485754 0.988009 0.091888
H5    H     H_    0.292705 0.850175 0.390934 0.185461
H6    H     H_    0.684904 0.164047 0.584641 0.180246
H7    H     H_    0.686839 0.837179 0.586378 0.180780
H8    H     H_    0.312388 0.162333 0.412914 0.180138
H9    H     H_    0.794695 0.348597 0.393140 0.185798
H10   H     H_    0.188590 0.661870 0.588199 0.181151
H11   H     H_    0.209907 0.352122 0.612230 0.186088
H12   H     H_    0.626299 0.202977 0.085641 0.154858
H13   H     H_    0.792995 0.649956 0.391102 0.185281
H14   H     H_    0.327532 0.866696 0.014402 0.100974
H15   H     H_    0.612367 0.172315 0.921746 0.116641
H16   H     H_    0.609012 0.824761 0.917316 0.118223
H17   H     H_    0.395583 0.178924 0.088308 0.120660
H18   H     H_    0.822015 0.369450 0.009818 0.106325
H19   H     H_    0.111117 0.673802 0.919801 0.117268
H20   H     H_    0.175625 0.369301 0.989211 0.102170
H21   H     H_    0.823891 0.630978 0.010995 0.102404
H22   H     H_    0.284623 0.975235 0.814087 0.159249
H23   H     H_    0.622297 0.793634 0.080738 0.157195
H24   H     H_    0.715013 0.026117 0.185695 0.162612
H25   H     H_    0.783096 0.514340 0.813323 0.159047
H26   H     H_    0.216454 0.482340 0.186469 0.160227
H27   H     H_    0.367739 0.869930 0.180708 0.131491
H28   H     H_    0.638959 0.127924 0.824117 0.122385
H29   H     H_    0.637238 0.870771 0.822548 0.126579
H30   H     H_    0.365392 0.131080 0.179744 0.126859
H31   H     H_    0.865020 0.371717 0.177816 0.131243
H32   H     H_    0.137677 0.628460 0.823016 0.125896
H33   H     H_    0.133763 0.370835 0.821398 0.130866
H34   H     H_    0.383270 0.210773 0.925736 0.155457
H35   H     H_    0.865956 0.628827 0.178588 0.131295
H36   H     H_    0.448633 0.995556 0.188159 0.122589
H37   H     H_    0.551334 0.004484 0.811975 0.122658
H38   H     H_    0.948614 0.502897 0.188296 0.120633
H39   H     H_    0.051367 0.497489 0.811856 0.121800
H40   H     H_    0.810318 0.337278 0.848074 0.158290
H41   H     H_    0.123927 0.705195 0.082540 0.157127
H42   H     H_    0.186127 0.336001 0.149872 0.157430
H43   H     H_    0.813004 0.663827 0.850018 0.156845
H44   H     H_    0.372637 0.980181 0.012663 0.091431
I1    I     I_    0.294861 0.778913 0.661543 -0.314114
I2    I     I_    0.259754 0.001216 0.421049 -0.221279
I3    I     I_    0.240231 0.501532 0.579178 -0.220694
I4    I     I_    0.759765 0.499541 0.420586 -0.217879
I5    I     I_    0.191768 0.974486 0.581335 -0.250551
I6    I     I_    0.808313 0.024371 0.418519 -0.255624
I7    I     I_    0.690261 0.513214 0.580943 -0.243049
I8    I     I_    0.309078 0.480545 0.418963 -0.247062
I9    I     I_    0.662922 0.248140 0.292953 -0.318546
I10   I     I_    0.659126 0.748559 0.288550 -0.306607
I11   I     I_    0.347376 0.256432 0.718758 -0.314601
I12   I     I_    0.786495 0.283607 0.653733 -0.306054
I13   I     I_    0.159650 0.750943 0.289226 -0.305911
I14   I     I_    0.208651 0.280688 0.342598 -0.308157
I15   I     I_    0.790474 0.718653 0.657112 -0.314980
I16   I     I_    0.740168 0.999406 0.579018 -0.219272
N1    N     N_R   0.433280 0.000000 0.657760 -0.246258
N2    N     N_R   0.566720 0.000000 0.342240 -0.246391
N3    N     N_R   0.933280 0.500000 0.657760 -0.246289
N4    N     N_R   0.066720 0.500000 0.342240 -0.245963
O1    O     O_R   0.600040 0.935040 0.546740 -0.476006
O2    O     O_R   0.444990 0.064930 0.346780 -0.512472
O3    O     O_R   0.444990 0.935070 0.346780 -0.513031
O4    O     O_R   0.555010 0.064930 0.653220 -0.513020
O5    O     O_R   0.055010 0.435070 0.653220 -0.511943
O6    O     O_R   0.944990 0.564930 0.346780 -0.513101
O7    O     O_R   0.944990 0.435070 0.346780 -0.511418
O8    O     O_R   0.055010 0.564930 0.653220 -0.512100
O9    O     O_R   0.399960 0.064960 0.453260 -0.477156
O10   O     O_R   0.399960 0.935040 0.453260 -0.478441
O11   O     O_R   0.600040 0.064960 0.546740 -0.478362
O12   O     O_R   0.100040 0.435040 0.546740 -0.477897
O13   O     O_R   0.899960 0.564960 0.453260 -0.479172
O14   O     O_R   0.899960 0.435040 0.453260 -0.477203
O15   O     O_R   0.100040 0.564960 0.546740 -0.477131
O16   O     O_R   0.555010 0.935070 0.653220 -0.510964

loop_
_geom_bond_atom_site_label_1
_geom_bond_atom_site_label_2
_ccdc_geom_bond_type
C65   C92   A    
C91   O8    A    
C16   C21   A    
C55   H25   S    
C70   C78   A    
C75   H6    S    
C24   C42   A    
C94   C111  A    
C34   N4    A    
C16   H21   S    
C66   C101  A    
C64   C90   A    
C74   C83   A    
C96   C105  A    
C36   C59   S    
C85   H27   S    
C74   C109  A    
C71   C79   A    
C67   C103  A    
C44   C45   A    
C54   H24   S    
C99   C108  A    
Cu4   O8    S    
C26   I8    S    
C50   C54   A    
Cu2   O16   S    
C31   N1    A    
Cu2   O10   S    
C76   H5    S    
C13   H23   S    
C66   I12   S    
C38   C42   A    
C95   C112  A    
C11   H17   S    
C27   I2    S    
Cu2   O4    S    
C65   C83   A    
C33   N3    A    
C5    C110  A    
C84   H28   S    
Cu3   Cu4   S    
C46   C52   A    
C2    C107  A    
C68   C77   A    
C91   O15   A    
C7    C112  A    
C24   C29   A    
C61   C87   A    
C22   I5    S    
C19   C103  A    
C48   C51   A    
Cu1   O1    S    
C17   H34   S    
C51   H3    S    
C80   O14   A    
C49   H44   S    
C3    C96   A    
C25   C60   S    
C71   I1    S    
C70   I15   S    
C51   C55   A    
Cu3   N4    S    
C93   C110  A    
C56   H26   S    
C3    C6    A    
C34   H38   S    
Cu1   N2    S    
C100  C109  A    
Cu2   O9    S    
C12   H18   S    
C4    C97   A    
C87   C96   A    
C58   O5    A    
C37   C41   A    
C21   H43   S    
C29   I4    S    
C32   N2    A    
C30   I3    S    
C13   C108  A    
C33   H39   S    
C86   H30   S    
C31   H37   S    
C26   C43   A    
C63   C80   S    
C9    H15   S    
C15   C20   A    
Cu1   O11   S    
C46   C48   A    
C60   C77   A    
Cu4   O13   S    
C7    C100  A    
C53   H22   S    
C19   H41   S    
C68   C104  A    
C62   C79   A    
C24   I7    S    
C5    C12   A    
C8    C111  A    
C93   C101  A    
Cu3   O6    S    
C68   I14   S    
C28   I16   S    
C73   C108  A    
C39   C43   A    
C15   H20   S    
C23   C28   A    
C62   C88   A    
C10   C13   A    
C98   C107  A    
C34   C39   A    
C1    C61   S    
C18   C101  A    
C59   C85   A    
C95   C104  A    
C35   C44   A    
C42   C55   A    
C47   C57   S    
C23   I6    S    
Cu3   O7    S    
C85   C94   A    
C58   C65   S    
Cu1   O2    S    
C32   H36   S    
C72   C107  A    
C45   C49   A    
C61   C78   A    
Cu2   N1    S    
C22   C40   A    
C62   C91   S    
C63   C89   A    
C69   O13   A    
C88   H32   S    
C57   C84   A    
C36   O3    A    
C32   C37   A    
C82   H13   S    
C78   H7    S    
C64   C82   A    
C74   I11   S    
C102  H1    S    
Cu3   O12   S    
C52   H4    S    
C59   C76   A    
C4    C111  A    
C63   C81   A    
C94   C103  A    
C26   C30   A    
C22   C27   A    
C58   O12   A    
C36   O10   A    
Cu4   N3    S    
C97   C106  A    
C37   C45   A    
C90   C99   A    
C18   H40   S    
C25   O2    A    
C92   C100  A    
C60   C86   A    
Cu1   Cu2   S    
C44   C50   A    
C9    C110  A    
C89   H31   S    
Cu3   O15   S    
C11   C17   A    
C1    O1    A    
C87   H29   S    
C81   H9    S    
C11   C112  A    
C50   H2    S    
C14   C19   A    
C79   H10   S    
C72   C81   A    
C83   H11   S    
C90   H35   S    
C70   C105  A    
C17   C109  A    
C27   N1    A    
C47   O11   A    
C1    O16   A    
C20   C104  A    
C64   C69   S    
Cu4   O5    S    
C33   C38   A    
C23   C41   A    
C89   C98   A    
C72   I9    S    
C57   C75   A    
C35   C40   A    
C88   C97   A    
Cu4   O14   S    
C77   H8    S    
C25   O9    A    
C6    C99   A    
C8    H14   S    
Cu1   O3    S    
C28   N2    A    
C67   I13   S    
C49   C53   A    
C66   C75   A    
C47   O4    A    
C7    C15   A    
C80   O7    A    
C73   C82   A    
C102  C106  A    
C31   C35   A    
C84   C93   A    
C4    C14   A    
C10   H16   S    
C41   C54   A    
C38   C46   A    
C86   C95   A    
C6    C16   A    
C43   C56   A    
C5    C98   A    
C40   C53   A    
C29   N3    A    
C71   C106  A    
C12   C18   A    
C92   H33   S    
C3    C10   A    
C30   N4    A    
C20   H42   S    
C67   C76   A    
C73   I10   S    
C2    C9    A    
C8    C102  A    
C69   O6    A    
C21   C105  A    
C14   H19   S    
C52   C56   A    
C39   C48   A    
C2    H12   S    
