data_mof_unit_8220.cif
_audit_creation_date              2013-03-05T15:58:55-0500
_audit_creation_method            fapswitch 2.2
_symmetry_space_group_name_H-M    P1
_symmetry_Int_Tables_number       1
_space_group_crystal_system       triclinic
_cell_length_a                    10.763302
_cell_length_b                    12.62299
_cell_length_c                    13.157012
_cell_angle_alpha                 80.993035
_cell_angle_beta                  92.067704
_cell_angle_gamma                 103.196393
_cell_volume                      1718.91394883

loop_
_atom_site_label
_atom_site_type_symbol
_atom_site_description
_atom_site_fract_x
_atom_site_fract_y
_atom_site_fract_z
_atom_type_partial_charge
O1    O     O_R   0.468120 0.366740 0.627160 -0.607918
O2    O     O_R   0.510770 0.544830 0.662520 -0.615708
C1    C     C_R   0.481229 0.437818 0.691262 0.930226
O3    O     O_R   0.663880 0.410950 0.482330 -0.585173
O4    O     O_R   0.706530 0.589040 0.517700 -0.580311
C2    C     C_R   0.740884 0.497556 0.508326 0.955773
Zn1   Zn    Zn3+2 0.471520 0.381090 0.476390 1.011014
Zn2   Zn    Zn3+2 0.528480 0.618910 0.523610 0.976878
O5    O     O_R   0.489230 0.455170 0.337480 -0.595449
O6    O     O_R   0.531880 0.633260 0.372840 -0.638972
O7    O     O_R   0.293470 0.410960 0.482300 -0.597606
O8    O     O_R   0.336120 0.589050 0.517670 -0.638056
C3    C     C_R   0.519483 0.561869 0.308562 0.845121
C4    C     C_R   0.258000 0.500408 0.496490 0.867975
C5    C     C_3   0.899194 0.371681 0.515000 0.410601
C6    C     C_3   0.042026 0.381438 0.493897 -0.472843
H1    H     H_    0.082158 0.321077 0.547881 0.235761
H2    H     H_    0.054906 0.357797 0.418343 0.250655
H3    H     H_    0.879463 0.554250 0.345220 0.157339
C7    C     C_3   0.936323 0.574933 0.413784 -0.510388
C8    C     C_3   0.949716 0.546661 0.608264 0.477017
C9    C     C_3   0.877637 0.495855 0.512210 -0.207001
C10   C     C_3   0.120514 0.500373 0.495805 -0.071920
C11   C     C_3   0.080274 0.578360 0.398945 0.431423
C12   C     C_3   0.091046 0.535692 0.600380 -0.529292
H4    H     H_    0.112559 0.472076 0.662772 0.216578
H5    H     H_    0.158278 0.612385 0.615577 0.215127
H6    H     H_    0.921867 0.658582 0.416195 0.235554
C13   C     C_R   0.453142 0.712657 0.052423 0.258270
H7    H     H_    0.478763 0.755075 0.204111 0.175840
H8    H     H_    0.343799 0.695346 0.866838 0.174273
C14   C     C_R   0.525738 0.599763 0.197834 -0.103325
C15   C     C_R   0.533077 0.307629 0.836700 -0.171588
C16   C     C_R   0.596235 0.302185 0.930448 -0.161040
C17   C     C_R   0.608081 0.387483 0.989407 0.299108
C18   C     C_R   0.529648 0.465808 0.965084 0.001835
C19   C     C_R   0.464513 0.469136 0.869844 0.059413
C20   C     C_R   0.515107 0.542447 0.029639 0.080991
C21   C     C_R   0.456089 0.630860 0.991610 0.165845
C22   C     C_R   0.394498 0.632177 0.896499 -0.160773
C23   C     C_R   0.391131 0.548143 0.840269 -0.166825
C24   C     C_R   0.543762 0.526194 0.134211 -0.113504
C25   C     C_R   0.491729 0.697673 0.155222 -0.276655
C26   C     C_R   0.480864 0.398362 0.801648 -0.104816
H9    H     H_    0.567834 0.450168 0.169262 0.174295
H10   H     H_    0.541816 0.250046 0.785858 0.201849
H11   H     H_    0.650188 0.239144 0.949882 0.207260
H12   H     H_    0.334053 0.547716 0.770733 0.153537
C27   C     C_R   0.377601 0.106928 0.314519 0.026704
N1    N     N_R   0.433240 0.222190 0.444680 -0.185193
C28   C     C_R   0.609723 0.783758 0.652283 -0.033214
C29   C     C_R   0.608426 0.875405 0.698957 0.198185
C30   C     C_R   0.550125 0.957292 0.645879 0.130820
C31   C     C_R   0.524656 0.958544 0.538507 -0.020967
C32   C     C_R   0.537840 0.866110 0.494564 0.114717
C33   C     C_R   0.483759 0.045461 0.473309 -0.051085
C34   C     C_R   0.445119 0.032846 0.370309 0.013294
C35   C     C_R   0.481595 0.949669 0.326185 0.172020
C36   C     C_R   0.528266 0.868895 0.388895 -0.202737
C37   C     C_R   0.488415 0.148179 0.503200 -0.067245
C38   C     C_R   0.367795 0.199579 0.357217 0.417724
N2    N     N_R   0.566070 0.776970 0.554790 -0.151058
H13   H     H_    0.541123 0.173822 0.569257 0.227020
H14   H     H_    0.642409 0.715606 0.695745 0.239322
H15   H     H_    0.569445 0.815204 0.352762 0.198036
N3    N     N_2   0.823701 0.305258 0.441644 -0.292291
H16   H     H_    0.827130 0.223180 0.457543 0.245227
C39   C     C_3   0.815005 0.341371 0.332016 -0.631495
H17   H     H_    0.909930 0.370658 0.295611 0.267639
H18   H     H_    0.756424 0.403433 0.315351 0.241468
H19   H     H_    0.763762 0.270045 0.295683 0.251734
N4    N     N_2   0.157338 0.691625 0.392534 -0.282944
H20   H     H_    0.199854 0.718346 0.457939 0.282270
C40   C     C_3   0.127681 0.778522 0.316131 -0.767298
H21   H     H_    0.062731 0.820905 0.349299 0.271113
H22   H     H_    0.082901 0.746538 0.246576 0.247151
H23   H     H_    0.217046 0.839992 0.292685 0.235717
N5    N     N_2   0.405175 0.806718 0.011929 -0.316933
H24   H     H_    0.462316 0.879377 0.028121 0.250735
C41   C     C_3   0.272192 0.796762 0.034685 -0.818206
H25   H     H_    0.241076 0.870934 0.995646 0.263315
H26   H     H_    0.258421 0.789737 0.118798 0.239490
H27   H     H_    0.211908 0.723160 0.006721 0.277093
N6    N     N_R   0.713923 0.403114 0.059760 0.191080
O9    O     O_R   0.782380 0.501784 0.063597 -0.358114
O10   O     O_R   0.759965 0.319427 0.100558 -0.430827
N7    N     N_R   0.863444 0.307289 0.618494 0.214565
O11   O     O_R   0.743500 0.271697 0.642889 -0.385028
O12   O     O_R   0.947288 0.278502 0.684653 -0.359586
N8    N     N_R   0.285910 0.268010 0.311196 0.220101
O13   O     O_R   0.317911 0.332028 0.224367 -0.444957
O14   O     O_R   0.166991 0.242549 0.339259 -0.428287
N9    N     N_2   0.493832 0.955154 0.218378 -0.340890
H28   H     H_    0.411243 0.948577 0.176069 0.248454
C42   C     C_3   0.605319 0.032900 0.172710 -0.686877
H29   H     H_    0.606731 0.031609 0.088636 0.238521
H30   H     H_    0.693281 0.010297 0.207051 0.258125
H31   H     H_    0.604831 0.117526 0.185742 0.256537
N10   N     N_2   0.304595 0.080142 0.225633 -0.316873
H32   H     H_    0.207238 0.061185 0.237062 0.259140
C43   C     C_3   0.344817 0.148316 0.127744 -0.654037
H33   H     H_    0.355731 0.095405 0.070364 0.216717
H34   H     H_    0.437117 0.208053 0.134269 0.239943
H35   H     H_    0.271123 0.194163 0.098010 0.277295
N11   N     N_2   0.499600 0.025194 0.702784 -0.321109
H36   H     H_    0.553973 0.052969 0.763160 0.283477
C44   C     C_3   0.366383 0.983824 0.729831 -0.738861
H37   H     H_    0.353508 0.905064 0.783865 0.251050
H38   H     H_    0.307541 0.970566 0.659820 0.271524
H39   H     H_    0.332786 0.044797 0.767808 0.246408
N12   N     N_R   0.660987 0.881591 0.800654 0.209845
O15   O     O_R   0.669122 0.791981 0.861968 -0.372289
O16   O     O_R   0.726735 0.975055 0.823090 -0.350496
N13   N     N_2   0.092190 0.537833 0.301407 -0.323520
H40   H     H_    0.032179 0.560683 0.243302 0.250884
C45   C     C_3   0.217377 0.547582 0.260303 -0.673217
H41   H     H_    0.278830 0.629599 0.265594 0.228665
H42   H     H_    0.210065 0.535965 0.178098 0.257834
H43   H     H_    0.260300 0.482485 0.301635 0.293312
N14   N     N_R   0.944653 0.663923 0.605590 0.211952
O17   O     O_R   0.031655 0.744417 0.559546 -0.443614
O18   O     O_R   0.864471 0.689143 0.664297 -0.317495
N15   N     N_R   0.895208 0.486776 0.708510 0.247666
O19   O     O_R   0.967362 0.487090 0.790171 -0.318398
O20   O     O_R   0.772568 0.465539 0.722920 -0.359145

loop_
_geom_bond_atom_site_label_1
_geom_bond_atom_site_label_2
_geom_bond_distance
_ccdc_geom_bond_type
N3    C39   1.449435 S    
N7    O11   1.300562 A    
C11   N13   1.473909 S    
N9    H28   1.025679 S    
C32   C36   1.385921 A    
N4    C40   1.451568 S    
C3    C14   1.459427 S    
C42   H29   1.109529 S    
N13   H40   1.032101 S    
N8    O13   1.299625 A    
C42   H31   1.109290 S    
N15   O19   1.302780 A    
C30   C31   1.427643 A    
C29   C30   1.410116 A    
Zn1   O7    2.042222 S    
N11   C44   1.446382 S    
C43   H33   1.109012 S    
C40   H22   1.108062 S    
C37   H13   1.072684 S    
C18   C19   1.413165 A    
C35   N9    1.418672 S    
N6    O10   1.300745 A    
C20   C24   1.392867 A    
C8    N14   1.488488 S    
O3    Zn1   2.018933 S    
C20   C21   1.423131 A    
C41   H25   1.110292 S    
O7    C4    1.312797 A    
N5    C41   1.446082 S    
N15   O20   1.300319 A    
C5    C6    1.545749 S    
C2    C9    1.475892 S    
C32   N2    1.358630 A    
C27   C34   1.413608 A    
H8    C22   1.082476 S    
C16   C17   1.403216 A    
O5    C3    1.308846 A    
C23   H12   1.083480 S    
C5    C9    1.630791 S    
C13   N5    1.422016 S    
C7    C11   1.558583 S    
C39   H17   1.103354 S    
C40   H23   1.108199 S    
C44   H37   1.111723 S    
N3    H16   1.033255 S    
N9    C42   1.446986 S    
C8    C9    1.601934 S    
C13   C25   1.397437 A    
C15   H10   1.082884 S    
C44   H38   1.111482 S    
C28   N2    1.358676 A    
C41   H27   1.110907 S    
N14   O18   1.301277 A    
C31   C33   1.425451 A    
C1    C26   1.459589 S    
C27   C38   1.400316 A    
C40   H21   1.109619 S    
C28   C29   1.395010 A    
N6    O9    1.301829 A    
C41   H26   1.108913 S    
C21   C22   1.394397 A    
N5    H24   1.029088 S    
C6    H1    1.109183 S    
C7    H6    1.107245 S    
C29   N12   1.440274 S    
C35   C36   1.383199 A    
C5    N3    1.476648 S    
C33   C37   1.402485 A    
O1    C1    1.306437 A    
C24   H9    1.080332 S    
C4    C10   1.479403 S    
C8    N15   1.482018 S    
C27   N10   1.426760 S    
N8    O14   1.298851 A    
N10   H32   1.031283 S    
Zn2   O8    2.018933 S    
C13   C21   1.408095 A    
C15   C16   1.386542 A    
N12   O16   1.301006 A    
C39   H18   1.105055 S    
C22   C23   1.378435 A    
N10   C43   1.452520 S    
O8    C4    1.299158 A    
C6    C10   1.549013 S    
N7    O12   1.303127 A    
C44   H39   1.110561 S    
H7    C25   1.075563 S    
O3    C2    1.296922 A    
C12   H5    1.109572 S    
C33   C34   1.425294 A    
C38   N8    1.426502 S    
C11   N4    1.471430 S    
C5    N7    1.487067 S    
C43   H34   1.111311 S    
Zn1   O5    1.913028 S    
C8    C12   1.567157 S    
C31   C32   1.417226 A    
N12   O15   1.300903 A    
O1    Zn1   1.964398 S    
C15   C26   1.396454 A    
Zn2   O6    1.964395 S    
O2    Zn2   1.913028 S    
C28   H14   1.077258 S    
Zn1   N1    2.058960 S    
C7    C9    1.561661 S    
N4    H20   1.027471 S    
O6    C3    1.311760 A    
O4    Zn2   2.042222 S    
N13   C45   1.441945 S    
C17   N6    1.439435 S    
C42   H30   1.110865 S    
C16   H11   1.082784 S    
C43   H35   1.110605 S    
N11   H36   1.027822 S    
C45   H43   1.095297 S    
N1    C37   1.346619 A    
H3    C7    1.103391 S    
C18   C20   1.420486 A    
O2    C1    1.312027 A    
C12   H4    1.112247 S    
C36   H15   1.065364 S    
C34   C35   1.410340 A    
O4    C2    1.314665 A    
C19   C26   1.402976 A    
C39   H19   1.110110 S    
C14   C25   1.396640 A    
C45   H42   1.111630 S    
C45   H41   1.104898 S    
C10   C12   1.574985 S    
C19   C23   1.409196 A    
C10   C11   1.594609 S    
C30   N11   1.426206 S    
C6    H2    1.103706 S    
N1    C38   1.361772 A    
C14   C24   1.392170 A    
N14   O17   1.300021 A    
C17   C18   1.433570 A    
Zn2   N2    2.046584 S    
