data_mof_unit_55875.cif
_audit_creation_date              2012-12-10T18:12:32-0500
_audit_creation_method            fapswitch 2.2
_symmetry_space_group_name_H-M    P1
_symmetry_Int_Tables_number       1
_space_group_crystal_system       triclinic
_cell_length_a                    9.417323
_cell_length_b                    10.73171
_cell_length_c                    17.258903
_cell_angle_alpha                 89.474428
_cell_angle_beta                  86.164207
_cell_angle_gamma                 90.387664
_cell_volume                      1740.22524376

loop_
_atom_site_label
_atom_site_type_symbol
_atom_type_description
_atom_site_fract_x
_atom_site_fract_y
_atom_site_fract_z
_atom_type_partial_charge
C1    C     C_R   0.500896 0.740059 0.497119 0.784697
C2    C     C_R   0.339299 0.479378 0.776452 -0.201285
C3    C     C_R   0.469454 0.534196 0.137647 -0.322850
C4    C     C_R   0.455607 0.556830 0.217488 0.416484
C5    C     C_R   0.610344 0.379987 0.237459 -0.356431
C6    C     C_R   0.612692 0.350905 0.158733 0.476384
C7    C     C_R   0.541993 0.428806 0.108311 0.026548
C8    C     C_2   0.442346 0.437247 0.981102 -0.258046
C9    C     C_2   0.549554 0.404654 0.024405 -0.165009
C10   C     C_R   0.529840 0.480411 0.266910 -0.181435
C11   C     C_3   0.395587 0.927107 0.437091 -0.396646
C12   C     C_R   0.481634 0.497023 0.650099 0.799773
C13   C     C_3   0.391148 0.071293 0.437865 0.347539
C14   C     C_3   0.458030 0.926605 0.577191 -0.402421
C15   C     C_3   0.652050 0.929656 0.468863 -0.386587
C16   C     C_3   0.501884 0.877889 0.495023 0.108194
C17   C     C_3   0.500393 0.121610 0.494485 0.106361
C18   C     C_3   0.459058 0.070035 0.577082 -0.477472
C19   C     C_3   0.651240 0.072668 0.468436 -0.352602
C20   C     C_3   0.909471 0.382881 0.532897 -0.202858
C21   C     C_3   0.076549 0.384199 0.538587 0.482468
C22   C     C_3   0.926541 0.507830 0.418512 -0.341411
C23   C     C_R   0.500092 0.259844 0.497018 0.773060
C24   C     C_3   0.913169 0.606671 0.542658 0.526218
C25   C     C_3   0.093632 0.502183 0.418906 -0.345874
C26   C     C_3   0.081395 0.607868 0.539001 -0.199643
C27   C     C_R   0.518614 0.498706 0.350274 0.879094
C28   C     C_R   0.472175 0.482955 0.734674 -0.040417
C29   C     C_R   0.596531 0.467437 0.773976 -0.213782
C30   C     C_R   0.588428 0.448869 0.853845 -0.153733
C31   C     C_R   0.455245 0.444220 0.895794 0.197767
C32   C     C_R   0.331018 0.459952 0.856456 -0.179208
Cu1   Cu    Cu3+1 0.357600 0.500140 0.499960 0.929021
Cu2   Cu    Cu3+1 0.642400 0.499860 0.500040 0.929801
H1    H     H_    0.700519 0.470078 0.743178 0.182803
H2    H     H_    0.286680 0.889941 0.452775 0.117181
H3    H     H_    0.426826 0.892932 0.377741 0.193848
H4    H     H_    0.282036 0.096868 0.461934 0.049048
H5    H     H_    0.349653 0.891680 0.596489 0.163529
H6    H     H_    0.351693 0.103119 0.597143 0.149869
H7    H     H_    0.731994 0.896802 0.508911 0.158733
H8    H     H_    0.685511 0.895575 0.409742 0.165919
H9    H     H_    0.685023 0.108496 0.409300 0.181463
H10   H     H_    0.730807 0.106135 0.508522 0.154574
H11   H     H_    0.532553 0.891522 0.619626 0.160863
H12   H     H_    0.535288 0.104470 0.618765 0.178603
H13   H     H_    0.881827 0.301819 0.497010 0.086630
H14   H     H_    0.853012 0.366469 0.590605 0.188078
H15   H     H_    0.120688 0.300208 0.508288 0.031246
H16   H     H_    0.888955 0.430235 0.382598 0.185718
H17   H     H_    0.132022 0.420501 0.385232 0.153895
H18   H     H_    0.879085 0.694604 0.514400 0.043839
H19   H     H_    0.666786 0.321199 0.276281 0.173871
H20   H     H_    0.120416 0.614619 0.598200 0.199478
H21   H     H_    0.119468 0.694483 0.508163 0.086651
H22   H     H_    0.895204 0.595792 0.389963 0.163205
H23   H     H_    0.140097 0.585424 0.388161 0.194551
H24   H     H_    0.645414 0.362516 0.998441 0.173138
H25   H     H_    0.227445 0.458927 0.887856 0.123053
H26   H     H_    0.426627 0.600710 0.098118 0.156037
H27   H     H_    0.241981 0.492167 0.747440 0.178253
H28   H     H_    0.341942 0.466740 0.009690 0.149568
H29   H     H_    0.687100 0.441992 0.882088 0.122720
N1    N     N_3   0.856560 0.499750 0.498270 -0.165959
N2    N     N_3   0.143860 0.496700 0.498910 -0.164007
O1    O     O_R   0.379740 0.682430 0.499960 -0.597587
O2    O     O_R   0.620260 0.682190 0.500020 -0.596224
O3    O     O_R   0.365800 0.500150 0.613560 -0.550888
O4    O     O_R   0.606310 0.499910 0.613620 -0.539249
O5    O     O_R   0.379740 0.317810 0.499980 -0.609812
O6    O     O_R   0.620260 0.317570 0.500040 -0.602943
O7    O     O_R   0.393690 0.500090 0.386380 -0.589691
O8    O     O_R   0.634200 0.499850 0.386440 -0.599629
O9    O     O_3   0.687547 0.248361 0.130833 -0.620793
C33   C     C_3   0.605727 0.138274 0.145875 0.060299
H30   H     H_    0.598286 0.089289 0.089836 0.158351
H31   H     H_    0.493868 0.154473 0.169396 0.127850
C34   C     C_3   0.680693 0.053048 0.201662 -0.352664
H32   H     H_    0.790517 0.033957 0.177247 0.219456
H33   H     H_    0.687724 0.100038 0.258330 0.226726
C35   C     C_3   0.601004 0.929521 0.215022 -0.834364
H34   H     H_    0.490403 0.946124 0.238822 0.272141
H35   H     H_    0.655963 0.871316 0.257158 0.250710
H36   H     H_    0.598015 0.877888 0.159663 0.252341
O10   O     O_3   0.424619 0.117971 0.361230 -0.631743
C36   C     C_3   0.313806 0.192161 0.334468 0.036418
H37   H     H_    0.360503 0.256631 0.289024 0.159796
H38   H     H_    0.264632 0.251791 0.380704 0.150031
C37   C     C_3   0.201265 0.111993 0.298262 -0.384756
H39   H     H_    0.248571 0.072546 0.243272 0.213410
H40   H     H_    0.166638 0.034398 0.338339 0.215359
C38   C     C_3   0.071138 0.188606 0.280623 -0.927118
H41   H     H_    0.017194 0.223302 0.335362 0.235682
H42   H     H_    0.994808 0.129249 0.251045 0.262328
H43   H     H_    0.102777 0.268966 0.242081 0.258320
O11   O     O_3   0.386884 0.662003 0.246808 -0.619036
C39   C     C_3   0.242887 0.661488 0.228129 0.061271
H44   H     H_    0.187233 0.576027 0.251790 0.134655
H45   H     H_    0.233259 0.666207 0.164346 0.136291
C40   C     C_3   0.170338 0.776742 0.263068 -0.341927
H46   H     H_    0.179349 0.777690 0.326888 0.205564
H47   H     H_    0.225892 0.860414 0.237743 0.217087
C41   C     C_3   0.013703 0.782439 0.245626 -0.947630
H48   H     H_    0.003527 0.790609 0.182038 0.263639
H49   H     H_    0.963710 0.865116 0.274141 0.254356
H50   H     H_    0.956230 0.697451 0.267848 0.254105
O12   O     O_3   0.108478 0.382449 0.617894 -0.586599
C42   C     C_3   0.092592 0.262076 0.651948 0.019259
H51   H     H_    0.199807 0.228711 0.664520 0.164033
H52   H     H_    0.042951 0.191899 0.614566 0.089273
C43   C     C_3   0.002550 0.270525 0.728844 -0.321715
H53   H     H_    0.052948 0.336879 0.767877 0.220223
H54   H     H_    0.894961 0.305686 0.718127 0.209838
C44   C     C_3   0.987312 0.143656 0.769295 -0.936115
H55   H     H_    0.934038 0.076244 0.732071 0.248353
H56   H     H_    0.921805 0.153008 0.824839 0.258622
H57   H     H_    0.093545 0.107403 0.782085 0.257630
O13   O     O_3   0.859785 0.599273 0.621456 -0.554097
C45   C     C_3   0.845637 0.719114 0.653988 -0.385210
H58   H     H_    0.756876 0.769976 0.629021 0.169927
H59   H     H_    0.946088 0.774262 0.645796 0.129047
H60   H     H_    0.819308 0.708711 0.717331 0.195301

loop_
_geom_bond_atom_site_label_1
_geom_bond_atom_site_label_2
_ccdc_geom_bond_type
C10   C27   S    
C24   H18   S    
C12   O4    A    
C14   C18   S    
C43   H53   S    
C26   H21   S    
C39   C40   S    
C21   H15   S    
C44   H55   S    
Cu1   N2    S    
O10   C36   S    
C15   C19   S    
C12   O3    A    
C17   C23   S    
C12   C28   S    
C5    H19   S    
C11   H2    S    
C24   C26   S    
C3    C7    A    
C5    C6    A    
C26   H20   S    
C34   H33   S    
C15   C16   S    
C39   H44   S    
C42   H51   S    
C2    C32   A    
C9    H24   S    
C11   H3    S    
C18   H6    S    
O13   C45   S    
C38   H41   S    
Cu1   O7    S    
C35   H35   S    
C14   H5    S    
C4    O11   S    
C8    C9    D    
C22   C25   S    
O12   C42   S    
C37   H40   S    
C2    H27   S    
C22   H16   S    
C3    H26   S    
C24   N1    S    
C30   H29   S    
C8    C31   S    
C23   O5    A    
C43   C44   S    
C25   H23   S    
C18   H12   S    
Cu2   N1    S    
C39   H45   S    
C19   H9    S    
Cu1   O1    S    
C6    O9    S    
C14   H11   S    
C45   H59   S    
Cu1   Cu2   S    
O9    C33   S    
C20   H13   S    
C23   O6    A    
C25   N2    S    
C15   H7    S    
C43   H54   S    
C36   H37   S    
C17   C19   S    
C22   H22   S    
C38   H43   S    
C35   H34   S    
C1    O1    A    
C20   N1    S    
C33   H30   S    
C25   H17   S    
C29   C30   A    
C11   C16   S    
C31   C32   A    
O11   C39   S    
C40   H47   S    
C17   C18   S    
C41   H49   S    
C1    C16   S    
C20   H14   S    
C37   C38   S    
C33   H31   S    
Cu2   O4    S    
C13   H4    S    
C21   O12   S    
Cu1   O5    S    
C14   C16   S    
C4    C10   A    
C3    C4    A    
C35   H36   S    
C19   H10   S    
C45   H60   S    
C7    C9    S    
C28   C29   A    
C21   N2    S    
C34   H32   S    
C26   N2    S    
C15   H8    S    
C36   C37   S    
Cu2   O2    S    
C44   H56   S    
C45   H58   S    
C6    C7    A    
C29   H1    S    
C24   O13   S    
C42   C43   S    
C13   C17   S    
C5    C10   A    
C11   C13   S    
C34   C35   S    
C38   H42   S    
C30   C31   A    
C40   H46   S    
C1    O2    A    
C42   H52   S    
C41   H50   S    
C36   H38   S    
C40   C41   S    
C33   C34   S    
C44   H57   S    
Cu2   O8    S    
C22   N1    S    
C20   C21   S    
C13   O10   S    
C41   H48   S    
C2    C28   A    
C32   H25   S    
C37   H39   S    
C27   O8    A    
Cu2   O6    S    
C27   O7    A    
Cu1   O3    S    
C8    H28   S    
