data_mof_unit_27363.cif
_audit_creation_date              2012-12-11T17:05:33-0500
_audit_creation_method            fapswitch 2.2
_symmetry_space_group_name_H-M    P1
_symmetry_Int_Tables_number       1
_space_group_crystal_system       triclinic
_cell_length_a                    7.009924
_cell_length_b                    14.509736
_cell_length_c                    16.033843
_cell_angle_alpha                 90.114337
_cell_angle_beta                  89.904637
_cell_angle_gamma                 89.458632
_cell_volume                      1630.75823497

loop_
_atom_site_label
_atom_site_type_symbol
_atom_type_description
_atom_site_fract_x
_atom_site_fract_y
_atom_site_fract_z
_atom_type_partial_charge
O1    O     O_R   0.494380 0.415640 0.412830 -0.534137
O2    O     O_R   0.823960 0.405540 0.586560 -0.542519
O3    O     O_R   0.994270 0.584360 0.587170 -0.540300
C1    C     C_R   0.655537 0.383556 0.615087 0.694357
O4    O     O_R   0.824090 0.404620 0.413450 -0.543057
O5    O     O_R   0.994400 0.583430 0.412820 -0.537377
C2    C     C_R   0.655680 0.382286 0.385078 0.698935
O6    O     O_R   0.494250 0.416570 0.587180 -0.535674
O7    O     O_3   0.660800 0.558670 0.500000 -0.375117
V1    V     V_3+5 0.935650 0.489120 0.500000 1.376920
O8    O     O_R   0.324110 0.594460 0.413440 -0.545221
C3    C     C_R   0.154566 0.616527 0.385014 0.697223
O9    O     O_R   0.323980 0.595380 0.586550 -0.545407
C4    C     C_R   0.154406 0.616880 0.615683 0.655023
V2    V     V_3+5 0.435660 0.510880 0.500000 1.373130
O10   O     O_3   0.160640 0.441330 0.500000 -0.367280
C5    C     C_3   0.033017 0.648682 0.762631 -0.332510
H1    H     H_    0.885439 0.630017 0.744004 0.143622
H2    H     H_    0.104126 0.584734 0.785608 0.123385
C6    C     C_3   0.023876 0.721437 0.833993 -0.365824
H3    H     H_    0.087421 0.691593 0.891601 0.122185
H4    H     H_    0.871626 0.737225 0.848380 0.147557
H5    H     H_    0.893654 0.761640 0.637133 0.141876
H6    H     H_    0.887539 0.866237 0.745646 0.147566
C7    C     C_3   0.041508 0.776937 0.657784 -0.327079
C8    C     C_3   0.346332 0.711335 0.715822 -0.322216
C9    C     C_3   0.143140 0.686834 0.686369 0.101751
H7    H     H_    0.426910 0.738244 0.661251 0.147537
H8    H     H_    0.423162 0.647848 0.736564 0.113468
C10   C     C_3   0.130712 0.811528 0.809683 0.108347
C11   C     C_3   0.034048 0.848773 0.729804 -0.332614
C12   C     C_3   0.343118 0.782159 0.788543 -0.006452
H9    H     H_    0.396622 0.744592 0.844561 0.092408
H10   H     H_    0.117814 0.806545 0.603345 0.117852
H11   H     H_    0.088761 0.915728 0.709124 0.117827
C13   C     C_R   0.283959 0.759449 0.195737 0.068588
C14   C     C_R   0.121769 0.812687 0.180657 -0.109476
C15   C     C_R   0.969277 0.801127 0.235470 -0.207403
H12   H     H_    0.849294 0.845257 0.226933 0.131842
C16   C     C_R   0.980895 0.740424 0.304106 -0.213652
H13   H     H_    0.865151 0.738954 0.348734 0.131676
C17   C     C_R   0.141357 0.682449 0.314744 -0.131169
C18   C     C_R   0.287471 0.689830 0.255867 0.068733
C19   C     C_3   0.494676 0.700851 0.271287 -0.125085
C20   C     C_3   0.483903 0.787166 0.216281 -0.104578
H14   H     H_    0.527872 0.715527 0.337761 0.137901
H15   H     H_    0.579232 0.784187 0.160947 0.132652
C21   C     C_R   0.490645 0.254141 0.689368 0.102112
C22   C     C_R   0.647545 0.312511 0.681122 -0.110521
C23   C     C_R   0.800069 0.299543 0.737010 -0.183787
H16   H     H_    0.923695 0.343166 0.733242 0.133150
C24   C     C_R   0.788262 0.234831 0.802186 -0.182513
H17   H     H_    0.904555 0.229522 0.846164 0.137538
C25   C     C_R   0.622756 0.181924 0.813817 -0.104556
C26   C     C_R   0.478319 0.190760 0.754199 0.109285
C27   C     C_3   0.270563 0.208598 0.765816 -0.419862
C28   C     C_3   0.283732 0.277529 0.694860 -0.397106
H18   H     H_    0.238651 0.241218 0.827118 0.178090
H19   H     H_    0.183434 0.147339 0.750188 0.167132
H20   H     H_    0.258637 0.350054 0.714908 0.164691
H21   H     H_    0.204533 0.255965 0.638185 0.175888
C29   C     C_R   0.486126 0.304090 0.266652 0.058666
C30   C     C_R   0.645849 0.312526 0.317756 -0.101689
C31   C     C_R   0.796629 0.249257 0.301564 -0.190735
H22   H     H_    0.922959 0.249290 0.340220 0.127023
C32   C     C_R   0.784089 0.183785 0.235695 -0.191952
H23   H     H_    0.901452 0.135876 0.226227 0.124957
C33   C     C_R   0.620866 0.179668 0.183594 -0.123072
C34   C     C_R   0.474247 0.241347 0.203374 0.105721
C35   C     C_3   0.282386 0.275268 0.176760 0.037935
C36   C     C_3   0.297040 0.346988 0.247980 -0.462467
H24   H     H_    0.169401 0.223100 0.184958 0.139440
H25   H     H_    0.193330 0.336233 0.299291 0.168401
H26   H     H_    0.310008 0.419566 0.226981 0.171337
O11   O     O_R   0.771490 0.080820 0.910070 -0.541147
O12   O     O_R   0.441590 0.092730 0.083780 -0.530599
O13   O     O_R   0.271350 0.913900 0.084390 -0.538385
C37   C     C_R   0.609856 0.113891 0.113095 0.713182
O14   O     O_R   0.441780 0.091820 0.910670 -0.534288
O15   O     O_R   0.271540 0.912980 0.910040 -0.544570
C38   C     C_R   0.610460 0.114575 0.882808 0.706497
O16   O     O_R   0.771300 0.081740 0.084420 -0.539979
O17   O     O_3   0.604960 0.938700 0.997240 -0.384477
V3    V     V_3+5 0.330090 0.008230 0.997220 1.403950
O18   O     O_R   0.941820 0.901930 0.910640 -0.546778
C39   C     C_R   0.112747 0.880921 0.881014 0.647846
O19   O     O_R   0.941630 0.902840 0.083750 -0.544622
C40   C     C_R   0.111180 0.881373 0.112582 0.686015
V4    V     V_3+5 0.830090 0.986410 0.997190 1.365280
O20   O     O_3   0.105080 0.055990 0.997200 -0.359710
C41   C     C_3   0.497274 0.856705 0.772184 -0.349233
C42   C     C_3   0.448748 0.932856 0.708824 -0.299830
C43   C     C_3   0.625540 0.982425 0.677137 -0.810586
H27   H     H_    0.712286 0.008137 0.729984 0.226687
H28   H     H_    0.712886 0.935355 0.637595 0.225095
H29   H     H_    0.581378 0.042006 0.638093 0.225320
H30   H     H_    0.377509 0.903173 0.653379 0.200738
H31   H     H_    0.355178 0.985042 0.739439 0.189288
H32   H     H_    0.549502 0.888155 0.830793 0.198443
H33   H     H_    0.619399 0.816778 0.747892 0.159529
C44   C     C_3   0.608989 0.616779 0.236200 -0.335139
C45   C     C_3   0.552755 0.583297 0.148333 -0.315062
C46   C     C_3   0.685176 0.505464 0.119126 -0.798564
H34   H     H_    0.834769 0.529813 0.115844 0.229388
H35   H     H_    0.677769 0.446143 0.162602 0.237239
H36   H     H_    0.641861 0.482192 0.056002 0.215674
H37   H     H_    0.403961 0.557697 0.148659 0.186969
H38   H     H_    0.562257 0.640402 0.102652 0.191111
H39   H     H_    0.761711 0.632929 0.234385 0.201296
H40   H     H_    0.592083 0.558647 0.280559 0.179306
C47   C     C_3   0.503725 0.879496 0.266997 -0.347084
C48   C     C_3   0.337904 0.910441 0.324075 -0.278620
C49   C     C_3   0.397509 0.989864 0.380817 -0.816759
H41   H     H_    0.514385 0.967522 0.423146 0.230090
H42   H     H_    0.446164 0.049299 0.342933 0.236688
H43   H     H_    0.273952 0.012458 0.419464 0.219633
H44   H     H_    0.216625 0.936163 0.286311 0.196458
H45   H     H_    0.291216 0.852474 0.363963 0.203245
H46   H     H_    0.627927 0.872491 0.309175 0.169421
H47   H     H_    0.534119 0.935968 0.222295 0.170374
N1    N     N_3   0.285043 0.315653 0.093221 -0.652494
H48   H     H_    0.393827 0.364203 0.088770 0.238896
H49   H     H_    0.155931 0.351069 0.084889 0.232953

loop_
_geom_bond_atom_site_label_1
_geom_bond_atom_site_label_2
_ccdc_geom_bond_type
C7    C11   S    
C21   C26   A    
C32   C33   A    
O19   C40   A    
C8    C12   S    
C43   H27   S    
C14   C40   S    
C47   C48   S    
O15   V3    S    
O12   V3    S    
C42   H31   S    
C21   C28   S    
C6    C10   S    
O18   C39   A    
C24   H17   S    
C8    C9    S    
C44   C45   S    
O16   V4    S    
C13   C14   A    
O12   C37   A    
O5    C3    A    
O14   V3    S    
C12   C41   S    
C44   H39   S    
V2    O10   S    
C5    C6    S    
C27   C28   S    
C47   H46   S    
C3    C17   S    
O8    V2    S    
C29   C30   A    
O13   C40   A    
C19   H14   S    
C33   C34   A    
C23   C24   A    
C45   H38   S    
C35   C36   S    
O1    V2    S    
C41   H33   S    
C10   C39   S    
O7    V1    S    
C1    O6    A    
C7    H10   S    
C49   H43   S    
C16   C17   A    
C32   H23   S    
C43   H28   S    
O9    C4    A    
C45   C46   S    
V3    O20   S    
C48   C49   S    
C24   C25   A    
C42   H30   S    
C23   H16   S    
C20   H15   S    
C33   C37   S    
C15   H12   S    
O17   V4    S    
C5    C9    S    
C45   H37   S    
C41   C42   S    
C36   H25   S    
O18   V4    S    
O11   C38   A    
C28   H20   S    
O13   V3    S    
C44   H40   S    
C29   C34   A    
C47   H47   S    
C31   C32   A    
O2    C1    A    
C18   C19   S    
C14   C15   A    
C10   C12   S    
C48   H45   S    
C37   O16   A    
O17   V3    S    
C19   C44   S    
C26   C27   S    
C5    H1    S    
C13   C20   S    
C46   H35   S    
C2    C30   S    
N1    H48   S    
O3    C4    A    
C21   C22   A    
C6    H4    S    
C43   H29   S    
O6    V2    S    
O19   V4    S    
C4    C9    S    
C11   H11   S    
C17   C18   A    
O2    V1    S    
C19   C20   S    
O4    C2    A    
C49   H41   S    
C25   C26   A    
C16   H13   S    
O1    C2    A    
O5    V1    S    
C36   H26   S    
O8    C3    A    
C20   C47   S    
C28   H21   S    
C7    C9    S    
C1    C22   S    
C8    H7    S    
C27   H19   S    
C48   H44   S    
C31   H22   S    
O9    V2    S    
O7    V2    S    
H6    C11   S    
O4    V1    S    
O3    V1    S    
V1    O10   S    
C12   H9    S    
C15   C16   A    
C35   N1    S    
C10   C11   S    
C42   C43   S    
C5    H2    S    
C27   H18   S    
C29   C36   S    
C46   H36   S    
H5    C7    S    
O14   C38   A    
C34   C35   S    
N1    H49   S    
O11   V4    S    
C30   C31   A    
O15   C39   A    
C6    H3    S    
C8    H8    S    
C22   C23   A    
C46   H34   S    
C13   C18   A    
C35   H24   S    
C41   H32   S    
V4    O20   S    
C25   C38   S    
C49   H42   S    
