data_mof_unit_58850.cif
_audit_creation_date              2012-12-10T18:04:40-0500
_audit_creation_method            fapswitch 2.2
_symmetry_space_group_name_H-M    P1
_symmetry_Int_Tables_number       1
_space_group_crystal_system       triclinic
_cell_length_a                    19.622183
_cell_length_b                    17.496747
_cell_length_c                    12.602612
_cell_angle_alpha                 89.910783
_cell_angle_beta                  99.052879
_cell_angle_gamma                 90.11713
_cell_volume                      4272.87518238

loop_
_atom_site_label
_atom_site_type_symbol
_atom_type_description
_atom_site_fract_x
_atom_site_fract_y
_atom_site_fract_z
_atom_type_partial_charge
C1    C     C_R   0.411214 0.102894 0.443608 0.991233
C2    C     C_R   0.779052 0.785668 0.644396 0.068266
C3    C     C_R   0.194728 0.811368 0.582437 0.074470
C4    C     C_R   0.279043 0.285647 0.644419 0.068275
C5    C     C_R   0.219922 0.885866 0.574031 0.294646
C6    C     C_R   0.347230 0.259706 0.667242 0.289944
C7    C     C_R   0.719938 0.385857 0.574055 0.294706
C8    C     C_R   0.847243 0.759739 0.667202 0.289969
C9    C     C_R   0.268589 0.899929 0.504188 0.296743
C10   C     C_R   0.378269 0.227826 0.583807 0.311933
C11   C     C_R   0.768595 0.399921 0.504195 0.296662
C12   C     C_R   0.408279 0.900527 0.441591 0.932376
C13   C     C_R   0.878271 0.727844 0.583766 0.311910
C14   C     C_R   0.686112 0.179641 0.523320 -0.202583
C15   C     C_R   0.674445 0.806963 0.518312 -0.198445
C16   C     C_R   0.186107 0.679646 0.523316 -0.202590
C17   C     C_R   0.174455 0.306975 0.518306 -0.198441
C18   C     C_R   0.619666 0.222452 0.657227 -0.206306
C19   C     C_R   0.682704 0.852846 0.700410 -0.247071
C20   C     C_R   0.119651 0.722461 0.657208 -0.206307
C21   C     C_R   0.182686 0.352817 0.700421 -0.247069
C22   C     C_R   0.355153 0.844513 0.402999 -0.054062
C23   C     C_R   0.911211 0.602890 0.443606 0.991266
C24   C     C_R   0.360942 0.162364 0.407887 -0.054387
C25   C     C_R   0.855155 0.344511 0.402999 -0.054066
C26   C     C_R   0.860926 0.662346 0.407876 -0.054358
C27   C     C_R   0.642410 0.999691 0.132729 -0.307504
C28   C     C_R   0.142410 0.499691 0.132729 -0.307512
C29   C     C_R   0.379162 0.001841 0.762263 0.023991
C30   C     C_R   0.879161 0.501837 0.762263 0.024039
C31   C     C_R   0.353397 0.002668 0.858499 -0.237815
C32   C     C_R   0.853397 0.502664 0.858500 -0.237775
C33   C     C_R   0.590319 0.898965 0.557365 0.841038
C34   C     C_R   0.908279 0.400526 0.441592 0.932373
C35   C     C_R   0.590130 0.101520 0.557053 0.886581
C36   C     C_R   0.090318 0.398964 0.557365 0.841040
C37   C     C_R   0.090130 0.601520 0.557053 0.886591
C38   C     C_R   0.399272 0.001901 0.954535 -0.188465
C39   C     C_R   0.899273 0.501899 0.954535 -0.188503
C40   C     C_R   0.471403 0.000609 0.953974 0.015630
C41   C     C_R   0.971403 0.500608 0.953974 0.015643
C42   C     C_R   0.494727 0.999982 0.853675 0.232815
C43   C     C_R   0.994728 0.499982 0.853674 0.232812
C44   C     C_R   0.521094 0.000248 0.048162 -0.010836
C45   C     C_R   0.713604 0.252491 0.515218 -0.002494
C46   C     C_R   0.021094 0.500248 0.048162 -0.010831
C47   C     C_R   0.592714 0.999846 0.040337 0.198109
C48   C     C_R   0.092714 0.499846 0.040337 0.198111
C49   C     C_R   0.614001 0.999695 0.940474 -0.291990
C50   C     C_R   0.114001 0.499695 0.940474 -0.291996
C51   C     C_R   0.565485 0.999797 0.848432 -0.215473
C52   C     C_R   0.065486 0.499797 0.848432 -0.215476
C53   C     C_R   0.502777 0.000219 0.150701 -0.049837
C54   C     C_R   0.002778 0.500219 0.150700 -0.049827
C55   C     C_R   0.620719 0.999815 0.231836 0.010710
C56   C     C_R   0.741885 0.779714 0.538309 -0.010352
C57   C     C_R   0.120719 0.499814 0.231836 0.010702
C58   C     C_R   0.649565 0.294609 0.655996 -0.109584
C59   C     C_R   0.747720 0.819967 0.725520 -0.103598
C60   C     C_R   0.149543 0.794621 0.655967 -0.109600
C61   C     C_R   0.247698 0.319930 0.725542 -0.103598
C62   C     C_R   0.635142 0.166641 0.585665 -0.048861
C63   C     C_R   0.647543 0.848673 0.595221 -0.037618
C64   C     C_R   0.135137 0.666646 0.585659 -0.048850
C65   C     C_R   0.147541 0.348669 0.595219 -0.037628
C66   C     C_R   0.369209 0.790381 0.327328 -0.218599
C67   C     C_R   0.213595 0.752498 0.515206 -0.002484
C68   C     C_R   0.328357 0.161824 0.300590 -0.193366
C69   C     C_R   0.869211 0.290381 0.327325 -0.218597
C70   C     C_R   0.828322 0.661773 0.300590 -0.193385
C71   C     C_R   0.326975 0.727037 0.305260 -0.141455
C72   C     C_R   0.270120 0.205932 0.269369 -0.139101
C73   C     C_R   0.826977 0.227036 0.305258 -0.141451
C74   C     C_R   0.770072 0.705859 0.269375 -0.139116
C75   C     C_R   0.274078 0.714129 0.364506 -0.130931
C76   C     C_R   0.241200 0.246281 0.346058 -0.139545
C77   C     C_R   0.774082 0.214126 0.364509 -0.130933
C78   C     C_R   0.241892 0.279721 0.538317 -0.010358
C79   C     C_R   0.741160 0.746221 0.346060 -0.139551
C80   C     C_R   0.260427 0.767255 0.443622 0.012902
C81   C     C_R   0.272540 0.246033 0.455699 0.012145
C82   C     C_R   0.760432 0.267250 0.443628 0.012900
C83   C     C_R   0.772520 0.746008 0.455691 0.012141
C84   C     C_R   0.295281 0.837837 0.451314 -0.002122
C85   C     C_R   0.337664 0.211553 0.483154 -0.014584
C86   C     C_R   0.795285 0.337832 0.451317 -0.002114
C87   C     C_R   0.837653 0.711545 0.483134 -0.014580
C88   C     C_R   0.694746 0.311358 0.582461 0.074461
H1    H     H_    0.581955 0.211708 0.709546 0.170690
H2    H     H_    0.950217 0.500240 0.165335 0.126112
H3    H     H_    0.344503 0.003141 0.686948 0.160605
H4    H     H_    0.844500 0.503134 0.686949 0.160677
H5    H     H_    0.376713 0.002770 0.027096 0.138698
H6    H     H_    0.876713 0.502767 0.027096 0.138696
H7    H     H_    0.298262 0.004084 0.858708 0.168050
H8    H     H_    0.798262 0.504078 0.858708 0.168090
H9    H     H_    0.584909 0.999965 0.774138 0.209636
H10   H     H_    0.084909 0.499965 0.774138 0.209640
H11   H     H_    0.635106 0.337779 0.709743 0.193490
H12   H     H_    0.661877 0.884877 0.761332 0.154738
H13   H     H_    0.774681 0.825251 0.807040 0.191777
H14   H     H_    0.135079 0.837794 0.709704 0.193487
H15   H     H_    0.274646 0.325193 0.807073 0.191770
H16   H     H_    0.701394 0.131911 0.478503 0.138129
H17   H     H_    0.642163 0.799667 0.441535 0.143266
H18   H     H_    0.201395 0.631914 0.478509 0.138123
H19   H     H_    0.142184 0.299694 0.441515 0.143288
H20   H     H_    0.414114 0.795774 0.287630 0.159254
H21   H     H_    0.346483 0.125272 0.241587 0.153268
H22   H     H_    0.914114 0.295776 0.287625 0.159260
H23   H     H_    0.081939 0.711717 0.709525 0.170696
H24   H     H_    0.846444 0.625209 0.241596 0.153255
H25   H     H_    0.743858 0.163119 0.344720 0.126121
H26   H     H_    0.695328 0.778348 0.316304 0.128752
H27   H     H_    0.243853 0.663123 0.344717 0.126123
H28   H     H_    0.195380 0.278427 0.316298 0.128748
H29   H     H_    0.337287 0.685857 0.245763 0.143052
H30   H     H_    0.245437 0.206147 0.186244 0.145333
H31   H     H_    0.837289 0.185857 0.245759 0.143057
H32   H     H_    0.745372 0.706046 0.186259 0.145335
H33   H     H_    0.658045 0.999727 0.304828 0.132241
H34   H     H_    0.161850 0.384834 0.761348 0.154754
H35   H     H_    0.158045 0.499727 0.304828 0.132237
H36   H     H_    0.228401 0.986765 0.641300 0.331714
H37   H     H_    0.419491 0.227125 0.782066 0.348894
H38   H     H_    0.728369 0.486802 0.641208 0.331781
H39   H     H_    0.919529 0.727197 0.782012 0.348898
H40   H     H_    0.247041 0.007810 0.482314 0.338023
H41   H     H_    0.471078 0.257016 0.646909 0.337084
H42   H     H_    0.747012 0.507778 0.482217 0.337971
H43   H     H_    0.971083 0.757061 0.646807 0.337095
H44   H     H_    0.668366 0.999490 0.933378 0.154813
H45   H     H_    0.168366 0.499489 0.933378 0.154815
H46   H     H_    0.697125 0.999484 0.128260 0.145261
H47   H     H_    0.197125 0.499483 0.128260 0.145258
H48   H     H_    0.450217 0.000240 0.165335 0.126117
N1    N     N_R   0.552340 0.000000 0.237260 -0.103441
N2    N     N_R   0.052340 0.500000 0.237260 -0.103439
N3    N     N_R   0.448170 0.000000 0.762060 -0.133209
N4    N     N_R   0.948170 0.500000 0.762060 -0.133229
O1    O     O_R   0.448200 0.076800 0.373930 -0.632892
O2    O     O_R   0.585240 0.076800 0.457600 -0.614568
O3    O     O_R   0.085240 0.423200 0.457600 -0.621085
O4    O     O_R   0.085240 0.576800 0.457600 -0.614559
O5    O     O_R   0.551780 0.923190 0.626070 -0.638641
O6    O     O_R   0.551780 0.076810 0.626070 -0.619660
O7    O     O_R   0.051780 0.423190 0.626070 -0.638643
O8    O     O_R   0.051780 0.576810 0.626070 -0.619672
O9    O     O_3   0.196341 0.942845 0.635039 -0.788153
O10   O     O_3   0.382331 0.265948 0.770995 -0.784512
O11   O     O_3   0.696369 0.442833 0.635086 -0.788191
O12   O     O_R   0.448200 0.923200 0.373930 -0.635326
O13   O     O_3   0.882361 0.766011 0.770941 -0.784507
O14   O     O_3   0.286649 0.973395 0.478995 -0.795244
O15   O     O_3   0.448897 0.218426 0.595204 -0.777041
O16   O     O_3   0.786648 0.473388 0.478999 -0.795285
O17   O     O_3   0.948898 0.718449 0.595141 -0.777070
O18   O     O_R   0.948200 0.576800 0.373930 -0.632891
O19   O     O_R   0.948200 0.423200 0.373930 -0.635337
O20   O     O_R   0.414750 0.076790 0.542400 -0.559985
O21   O     O_R   0.414750 0.923210 0.542400 -0.583445
O22   O     O_R   0.914750 0.576790 0.542400 -0.559995
O23   O     O_R   0.914750 0.423210 0.542400 -0.583426
O24   O     O_R   0.585240 0.923200 0.457600 -0.621076
Zn1   Zn    Zn3+2 0.522330 0.000000 0.387520 0.942780
Zn2   Zn    Zn3+2 0.022330 0.500000 0.387520 0.942780
Zn3   Zn    Zn3+2 0.477660 0.000000 0.612480 0.968813
Zn4   Zn    Zn3+2 0.977660 0.500000 0.612480 0.968822

loop_
_geom_bond_atom_site_label_1
_geom_bond_atom_site_label_2
_ccdc_geom_bond_type
C51   H9    S    
C83   C87   A    
O6    Zn3   S    
C55   H33   S    
C10   C85   A    
N4    Zn4   S    
C8    C13   A    
C73   H31   S    
C37   O4    A    
C28   H47   S    
C9    C84   A    
C12   O12   A    
C45   C82   A    
C80   C84   A    
H39   O13   S    
N1    Zn1   S    
O12   Zn1   S    
C39   C41   A    
C28   C57   A    
C7    C11   A    
C53   N1    A    
O24   Zn1   S    
C38   C40   A    
C36   O3    A    
C54   H2    S    
C76   C81   A    
C17   H19   S    
C60   H14   S    
C43   C52   A    
C32   C39   A    
C11   C86   A    
C14   C62   A    
C23   O18   A    
C12   C22   S    
C5    O9    S    
H43   O17   S    
C4    C78   A    
H38   O11   S    
O20   Zn3   S    
C52   H10   S    
C21   H34   S    
C23   C26   S    
C22   C66   A    
C12   O21   A    
C44   C53   A    
C18   C58   A    
C66   C71   A    
C19   C63   A    
C26   C87   A    
C49   C51   A    
C70   C74   A    
C50   C52   A    
C41   C46   A    
C69   C73   A    
C20   C60   A    
C75   C80   A    
C21   C61   A    
C44   C47   A    
H40   O14   S    
C42   C51   A    
C23   O22   A    
C21   C65   A    
C34   O19   A    
C48   C50   A    
C41   C43   A    
C13   C87   A    
C53   H48   S    
C77   H25   S    
C13   O17   S    
C14   C45   A    
C29   N3    A    
C49   H44   S    
C46   C48   A    
C30   N4    A    
C71   H29   S    
C59   H13   S    
C33   O24   A    
C47   C49   A    
C34   O23   A    
H37   O10   S    
H41   O15   S    
C2    C59   A    
C18   C62   A    
C24   C85   A    
C18   H1    S    
C19   C59   A    
C82   C86   A    
C4    C61   A    
O4    Zn2   S    
C68   C72   A    
C35   O6    A    
C22   C84   A    
C20   C64   A    
O3    Zn2   S    
C5    C9    A    
C30   C32   A    
C57   H35   S    
C20   H23   S    
C25   C86   A    
C69   H22   S    
C36   O7    A    
C14   H16   S    
C7    C88   A    
C33   C63   S    
C46   C54   A    
C43   N4    A    
C16   C67   A    
C6    O10   S    
N3    Zn3   S    
C8    O13   S    
O21   Zn3   S    
C33   O5    A    
C11   O16   S    
O22   Zn4   S    
C45   C88   A    
C4    C6    A    
C32   H8    S    
C9    O14   S    
C39   H6    S    
C74   C79   A    
C26   C70   A    
C7    O11   S    
C25   C69   A    
C3    C5    A    
C29   H3    S    
C37   C64   S    
O18   Zn2   S    
C56   C83   A    
O5    Zn3   S    
C27   C47   A    
C28   C48   A    
C73   C77   A    
C61   H15   S    
C42   N3    A    
C36   C65   S    
C27   H46   S    
C17   C65   A    
C1    O20   A    
C2    C8    A    
C67   C80   A    
C66   H20   S    
C58   H11   S    
C50   H45   S    
C58   C88   A    
C10   O15   S    
C6    C10   A    
C19   H12   S    
C31   C38   A    
C16   H18   S    
C74   H32   S    
C25   C34   S    
O1    Zn1   S    
C55   N1    A    
O19   Zn2   S    
N2    Zn2   S    
C15   C56   A    
C15   H17   S    
O23   Zn4   S    
C29   C31   A    
C2    C56   A    
C3    C60   A    
O2    Zn1   S    
C71   C75   A    
C78   C81   A    
C54   N2    A    
C3    C67   A    
C77   C82   A    
C72   C76   A    
O8    Zn4   S    
C38   H5    S    
C40   C42   A    
C17   C78   A    
C76   H28   S    
C57   N2    A    
C35   C62   S    
C27   C55   A    
C68   H21   S    
C37   O8    A    
C70   H24   S    
C1    O1    A    
O7    Zn4   S    
C24   C68   A    
C35   O2    A    
C79   C83   A    
C40   C44   A    
C75   H27   S    
C1    C24   S    
C79   H26   S    
C72   H30   S    
C15   C63   A    
H42   O16   S    
C16   C64   A    
C31   H7    S    
C81   C85   A    
H36   O9    S    
C30   H4    S    
