data_mof_unit_23468.cif
_audit_creation_date              2012-12-10T18:21:13-0500
_audit_creation_method            fapswitch 2.2
_symmetry_space_group_name_H-M    P1
_symmetry_Int_Tables_number       1
_space_group_crystal_system       triclinic
_cell_length_a                    9.535322
_cell_length_b                    10.677264
_cell_length_c                    16.879682
_cell_angle_alpha                 93.072778
_cell_angle_beta                  83.881829
_cell_angle_gamma                 89.363152
_cell_volume                      1706.04952221

loop_
_atom_site_label
_atom_site_type_symbol
_atom_type_description
_atom_site_fract_x
_atom_site_fract_y
_atom_site_fract_z
_atom_type_partial_charge
C1    C     C_R   0.499535 0.739959 0.499939 0.878235
C2    C     C_R   0.500367 0.259883 0.500030 0.886564
C3    C     C_3   0.396720 0.956053 0.458670 0.096481
C4    C     C_3   0.602468 0.043339 0.541849 0.119922
C5    C     C_3   0.521866 0.034667 0.424895 0.122263
C6    C     C_3   0.477323 0.964460 0.575402 0.096377
C7    C     C_3   0.499979 0.123023 0.500351 -0.257340
C8    C     C_3   0.499355 0.876537 0.499905 -0.252937
C9    C     C_3   0.374610 0.045479 0.534116 0.130074
C10   C     C_3   0.624644 0.953938 0.466323 0.123219
C11   C     C_3   0.949277 0.388307 0.507881 -0.174423
C12   C     C_3   0.050853 0.611363 0.491794 -0.160403
C13   C     C_3   0.039276 0.460356 0.566019 -0.109211
C14   C     C_3   0.960727 0.539781 0.433990 -0.115992
C15   C     C_3   0.060104 0.428806 0.442503 0.536049
C16   C     C_3   0.939879 0.571530 0.557488 0.537440
C17   C     C_R   0.479146 0.505573 0.651873 0.858949
C18   C     C_R   0.521290 0.496138 0.348655 0.857843
C19   C     C_R   0.471197 0.522056 0.741249 -0.206634
C20   C     C_R   0.535936 0.503146 0.260665 -0.163244
C21   C     C_R   0.598345 0.499658 0.773982 -0.143457
C22   C     C_R   0.446656 0.589944 0.230630 -0.158738
C23   C     C_R   0.617058 0.542535 0.850895 -0.110681
C24   C     C_R   0.467473 0.620121 0.151473 -0.090061
C25   C     C_R   0.503016 0.589994 0.902668 -0.098281
C26   C     C_R   0.567541 0.554304 0.097936 -0.076986
C27   C     C_R   0.367173 0.586996 0.877482 0.286413
C28   C     C_R   0.639085 0.449896 0.123398 0.261970
C29   C     C_R   0.352471 0.569067 0.794251 0.297371
C30   C     C_R   0.636922 0.432577 0.206678 0.251980
C31   C     C_2   0.530266 0.661194 0.977075 0.149027
C32   C     C_2   0.621487 0.614188 0.023846 0.133942
Cu1   Cu    Cu3+1 0.356850 0.500010 0.499980 1.079664
Cu2   Cu    Cu3+1 0.643150 0.499990 0.500020 1.078843
H1    H     H_    0.689292 0.458109 0.737799 0.231820
H2    H     H_    0.369503 0.644440 0.270427 0.194439
H3    H     H_    0.905126 0.293243 0.511631 0.214391
H4    H     H_    0.095575 0.706032 0.487317 0.216015
H5    H     H_    0.410069 0.699697 0.132975 0.209395
H6    H     H_    0.722305 0.540610 0.869512 0.236857
H7    H     H_    0.075435 0.420107 0.619324 0.228141
H8    H     H_    0.924618 0.577560 0.379686 0.222008
N1    N     N_3   0.141720 0.500030 0.499940 -0.240680
N2    N     N_3   0.858280 0.499970 0.500060 -0.242722
O1    O     O_R   0.379130 0.683150 0.499960 -0.568881
O2    O     O_R   0.620870 0.316850 0.500040 -0.563393
O3    O     O_R   0.620910 0.683140 0.500000 -0.531688
O4    O     O_R   0.379090 0.316860 0.500000 -0.535303
O5    O     O_R   0.365090 0.500030 0.613580 -0.515870
O6    O     O_R   0.634910 0.499970 0.386420 -0.534331
O7    O     O_R   0.606870 0.500020 0.613610 -0.560739
O8    O     O_R   0.393130 0.499980 0.386390 -0.544382
S1    S     S_3+6 0.133327 0.326509 0.360109 0.098984
O9    O     O_2   0.178347 0.402624 0.289775 -0.244626
O10   O     O_2   0.257152 0.252027 0.380325 -0.273016
O11   O     O_3   0.010393 0.224200 0.336077 -0.429116
H9    H     H_    0.057841 0.169393 0.291782 0.408111
S2    S     S_3+6 0.871423 0.685413 0.635248 0.077331
O12   O     O_2   0.960881 0.800217 0.630512 -0.253820
O13   O     O_2   0.722595 0.725001 0.628596 -0.265364
O14   O     O_3   0.876768 0.626170 0.724724 -0.484349
H10   H     H_    0.843126 0.695525 0.763696 0.398158
S3    S     S_3+6 0.782149 0.353082 0.242202 0.101441
O15   O     O_2   0.743463 0.302409 0.322597 -0.221857
O16   O     O_2   0.843788 0.246022 0.187944 -0.157803
O17   O     O_3   0.907921 0.460394 0.249591 -0.494990
H11   H     H_    0.935959 0.483478 0.194136 0.381575
S4    S     S_3+6 0.190164 0.611483 0.759532 0.091514
O18   O     O_2   0.106303 0.493978 0.753216 -0.223681
O19   O     O_2   0.108303 0.704457 0.817229 -0.199567
O20   O     O_3   0.211269 0.676945 0.670776 -0.496570
H12   H     H_    0.193935 0.767766 0.682677 0.396290
I1    I     I_    0.816549 0.704787 0.034797 -0.027369
I2    I     I_    0.511559 0.858946 0.968516 -0.079033
S5    S     S_3+6 0.220768 0.591872 0.952821 0.100831
O21   O     O_2   0.176913 0.726050 0.974217 -0.177008
O22   O     O_2   0.097906 0.520922 0.925361 -0.166237
O23   O     O_3   0.266189 0.526897 0.035106 -0.513952
H13   H     H_    0.295851 0.439786 0.017342 0.352669
S6    S     S_3+6 0.718499 0.337704 0.049849 0.104748
O24   O     O_2   0.875447 0.354981 0.039431 -0.160461
O25   O     O_2   0.686495 0.206981 0.074603 -0.192011
O26   O     O_3   0.655791 0.352691 0.961673 -0.511296
H14   H     H_    0.554611 0.331805 0.971032 0.347851
I3    I     I_    0.547662 0.074610 0.301144 -0.053081
I4    I     I_    0.448580 0.913538 0.697211 -0.147067
I5    I     I_    0.237257 0.891491 0.386963 -0.221808
I6    I     I_    0.759598 0.108985 0.614763 -0.136010
I7    I     I_    0.174962 0.113287 0.590723 -0.149311
I8    I     I_    0.824583 0.886377 0.410036 -0.159416

loop_
_geom_bond_atom_site_label_1
_geom_bond_atom_site_label_2
_ccdc_geom_bond_type
C25   C31   S    
S3    O16   D    
C26   C32   S    
C27   C29   A    
C1    C8    S    
Cu1   O1    S    
C2    C7    S    
C17   O7    A    
C6    C9    S    
C13   H7    S    
C18   O8    A    
C20   C30   A    
S1    O9    D    
C2    O2    A    
Cu1   O8    S    
Cu2   O7    S    
O26   H14   S    
C15   S1    S    
C19   C21   A    
C24   C26   A    
C12   N1    S    
S6    O26   S    
Cu1   O5    S    
C23   H6    S    
C24   H5    S    
O11   H9    S    
C11   H3    S    
C11   C15   S    
C12   C16   S    
S4    O18   D    
Cu2   O2    S    
C16   N2    S    
C14   H8    S    
C5    I3    S    
S2    O14   S    
O17   H11   S    
S3    O17   S    
C30   S3    S    
C4    C7    S    
C27   S5    S    
S1    O10   D    
Cu2   O6    S    
C3    I5    S    
Cu1   N1    S    
Cu2   N2    S    
C4    C6    S    
C3    C8    S    
C9    I7    S    
C32   I1    S    
C5    C7    S    
O23   H13   S    
C1    O3    A    
C31   I2    S    
C6    C8    S    
C2    O4    A    
S2    O12   D    
S5    O21   D    
C3    C9    S    
C29   S4    S    
C31   C32   D    
Cu1   Cu2   S    
C11   N2    S    
C16   S2    S    
S5    O22   D    
C4    I6    S    
S6    O25   D    
C12   C14   S    
C21   C23   A    
C22   C24   A    
C17   O5    A    
C19   C29   A    
C13   N1    S    
C18   O6    A    
C14   N2    S    
S1    O11   S    
C7    C9    S    
C8    C10   S    
C4    C10   S    
C20   C22   A    
S6    O24   D    
C3    C5    S    
C21   H1    S    
C25   C27   A    
C22   H2    S    
C26   C28   A    
C6    I4    S    
C28   C30   A    
C15   N1    S    
C5    C10   S    
C11   C13   S    
C1    O1    A    
S4    O20   S    
C17   C19   S    
C18   C20   S    
C23   C25   A    
C12   H4    S    
O14   H10   S    
C28   S6    S    
S5    O23   S    
S3    O15   D    
O20   H12   S    
C10   I8    S    
S4    O19   D    
C13   C16   S    
Cu1   O4    S    
C14   C15   S    
Cu2   O3    S    
S2    O13   D    
