data_mof_unit_57248.cif
_audit_creation_date              2012-12-11T15:19:32-0500
_audit_creation_method            fapswitch 2.2
_symmetry_space_group_name_H-M    P1
_symmetry_Int_Tables_number       1
_space_group_crystal_system       monoclinic
_cell_length_a                    19.971264
_cell_length_b                    6.882493
_cell_length_c                    18.162801
_cell_angle_alpha                 90.0
_cell_angle_beta                  104.029742
_cell_angle_gamma                 90.0
_cell_volume                      2422.04386001

loop_
_atom_site_label
_atom_site_type_symbol
_atom_type_description
_atom_site_fract_x
_atom_site_fract_y
_atom_site_fract_z
_atom_type_partial_charge
O1    O     O_R   0.312200 0.620210 0.189560 -0.539761
O2    O     O_R   0.687800 0.379790 0.810440 -0.539761
O3    O     O_R   0.187800 0.120210 0.310440 -0.539761
O4    O     O_R   0.812200 0.879790 0.689560 -0.539761
O5    O     O_R   0.171590 0.286140 0.165000 -0.533308
O6    O     O_R   0.828410 0.713860 0.835000 -0.533308
O7    O     O_R   0.328410 0.786140 0.335000 -0.533308
O8    O     O_R   0.671590 0.213860 0.665000 -0.533308
C1    C     C_R   0.145667 0.459529 0.143817 0.712908
C2    C     C_R   0.854333 0.540470 0.856183 0.712908
C3    C     C_R   0.354333 0.959530 0.356183 0.712908
C4    C     C_R   0.645667 0.040470 0.643817 0.712908
O9    O     O_R   0.310670 0.290220 0.180540 -0.543116
O10   O     O_R   0.689330 0.709780 0.819460 -0.543116
O11   O     O_R   0.189330 0.790220 0.319460 -0.543116
O12   O     O_R   0.810670 0.209780 0.680540 -0.543116
O13   O     O_R   0.327870 0.124170 0.326080 -0.532885
O14   O     O_R   0.672130 0.875830 0.673920 -0.532886
O15   O     O_R   0.172130 0.624170 0.173920 -0.532885
O16   O     O_R   0.827870 0.375830 0.826080 -0.532885
C5    C     C_R   0.331971 0.459337 0.164914 0.708660
C6    C     C_R   0.668029 0.540663 0.835086 0.708659
C7    C     C_R   0.168029 0.959337 0.335086 0.708659
C8    C     C_R   0.831971 0.040663 0.664914 0.708660
O17   O     O_3   0.255480 0.455050 0.297740 -0.365324
O18   O     O_3   0.744520 0.544950 0.702260 -0.365324
O19   O     O_3   0.244520 0.955050 0.202260 -0.365324
O20   O     O_3   0.755480 0.044950 0.797740 -0.365324
V1    V     V_3+5 0.248980 0.178550 0.241140 1.417782
V2    V     V_3+5 0.751020 0.821450 0.758860 1.417782
V3    V     V_3+5 0.251020 0.678550 0.258860 1.417782
V4    V     V_3+5 0.748980 0.321450 0.741140 1.417782
C9    C     C_R   0.929288 0.179817 0.616774 -0.221372
C10   C     C_R   0.070712 0.820183 0.383226 -0.221372
C11   C     C_R   0.570712 0.679817 0.883226 -0.221372
C12   C     C_R   0.429287 0.320183 0.116774 -0.221372
C13   C     C_R   0.881076 0.030520 0.615410 -0.084645
C14   C     C_R   0.118924 0.969480 0.384589 -0.084645
C15   C     C_R   0.618924 0.530520 0.884589 -0.084645
C16   C     C_R   0.381076 0.469480 0.115411 -0.084645
C17   C     C_R   0.880595 0.870285 0.567643 -0.211367
C18   C     C_R   0.119405 0.129715 0.432356 -0.211367
C19   C     C_R   0.619405 0.370285 0.932356 -0.211367
C20   C     C_R   0.380595 0.629715 0.067643 -0.211367
C21   C     C_R   0.927074 0.859047 0.520940 0.067661
C22   C     C_R   0.072926 0.140953 0.479060 0.067662
C23   C     C_R   0.572926 0.359046 0.979060 0.067661
C24   C     C_R   0.427074 0.640953 0.020940 0.067662
C25   C     C_R   0.976286 0.007406 0.523198 0.010525
C26   C     C_R   0.023713 0.992594 0.476802 0.010525
C27   C     C_R   0.523713 0.507406 0.976802 0.010525
C28   C     C_R   0.476287 0.492594 0.023198 0.010525
C29   C     C_R   0.978108 0.169766 0.571987 0.076555
C30   C     C_R   0.021892 0.830234 0.428013 0.076555
C31   C     C_R   0.521892 0.669765 0.928013 0.076555
C32   C     C_R   0.478108 0.330234 0.071987 0.076555
C33   C     C_R   0.924865 0.700181 0.472275 -0.230532
C34   C     C_R   0.075135 0.299819 0.527725 -0.230532
C35   C     C_R   0.575135 0.200181 0.027725 -0.230532
C36   C     C_R   0.424865 0.799819 0.972275 -0.230532
C37   C     C_R   0.971203 0.683572 0.425466 0.136137
C38   C     C_R   0.028797 0.316428 0.574534 0.136137
C39   C     C_R   0.528797 0.183572 0.074534 0.136137
C40   C     C_R   0.471203 0.816428 0.925466 0.136137
H1    H     H_    0.928929 0.300852 0.654530 0.131882
H2    H     H_    0.071070 0.699148 0.345470 0.131882
H3    H     H_    0.571071 0.800852 0.845470 0.131882
H4    H     H_    0.428929 0.199148 0.154530 0.131882
H5    H     H_    0.843322 0.754877 0.566192 0.124958
H6    H     H_    0.156678 0.245123 0.433808 0.124958
H7    H     H_    0.656678 0.254877 0.933808 0.124958
H8    H     H_    0.343322 0.745123 0.066192 0.124958
H9    H     H_    0.886446 0.587846 0.470666 0.128464
H10   H     H_    0.113554 0.412154 0.529334 0.128464
H11   H     H_    0.613554 0.087846 0.029334 0.128464
H12   H     H_    0.386446 0.912154 0.970666 0.128464
C41   C     C_1   0.583161 0.027457 0.581601 -0.196100
C42   C     C_1   0.416839 0.972543 0.418399 -0.196100
C43   C     C_1   0.916839 0.527457 0.918399 -0.196100
C44   C     C_1   0.083161 0.472543 0.081601 -0.196100
C45   C     C_1   0.530848 0.010882 0.530192 0.005442
C46   C     C_1   0.469151 0.989118 0.469808 0.005443
C47   C     C_1   0.969151 0.510881 0.969808 0.005443
C48   C     C_1   0.030848 0.489118 0.030192 0.005443
C49   C     C_3   0.963854 0.508974 0.373164 -0.348589
C50   C     C_3   0.925958 0.562682 0.292260 -0.752587
H13   H     H_    0.873289 0.616405 0.291253 0.231132
H14   H     H_    0.954249 0.676864 0.268973 0.224387
H15   H     H_    0.921376 0.432229 0.255403 0.218325
H16   H     H_    0.014925 0.445019 0.373825 0.180093
H17   H     H_    0.934246 0.391487 0.393046 0.184675
C51   C     C_3   0.036146 0.491026 0.626836 -0.348589
C52   C     C_3   0.074042 0.437318 0.707740 -0.752585
H18   H     H_    0.045751 0.323136 0.731027 0.224386
H19   H     H_    0.126711 0.383596 0.708746 0.231132
H20   H     H_    0.078624 0.567771 0.744597 0.218325
H21   H     H_    0.065753 0.608513 0.606954 0.184675
H22   H     H_    0.985075 0.554981 0.626175 0.180093
C53   C     C_3   0.536146 0.008974 0.126836 -0.348589
C54   C     C_3   0.574042 0.062682 0.207740 -0.752586
H23   H     H_    0.626711 0.116405 0.208746 0.231132
H24   H     H_    0.545750 0.176863 0.231027 0.224386
H25   H     H_    0.578625 0.932229 0.244597 0.218325
H26   H     H_    0.485075 0.945019 0.126175 0.180093
H27   H     H_    0.565754 0.891487 0.106954 0.184675
C55   C     C_3   0.463854 0.991026 0.873164 -0.348589
C56   C     C_3   0.425958 0.937318 0.792260 -0.752587
H28   H     H_    0.454249 0.823136 0.768973 0.224387
H29   H     H_    0.373289 0.883595 0.791254 0.231132
H30   H     H_    0.421376 0.067771 0.755403 0.218325
H31   H     H_    0.434246 0.108513 0.893046 0.184675
H32   H     H_    0.514925 0.054981 0.873825 0.180093

loop_
_geom_bond_atom_site_label_1
_geom_bond_atom_site_label_2
_ccdc_geom_bond_type
C34   C38   A    
O1    C5    A    
C52   H18   S    
O19   V1    S    
O13   V1    S    
O3    C7    A    
C18   H6    S    
C44   C48   T    
O15   V3    S    
C10   H2    S    
C45   C46   S    
C49   H17   S    
C51   H22   S    
C55   H32   S    
C49   C50   S    
O7    C3    A    
C21   C33   A    
C26   C30   A    
O9    V1    S    
C14   C18   A    
O4    C8    A    
C50   H14   S    
C55   C56   S    
O1    V3    S    
O2    V4    S    
C18   C22   A    
C33   H9    S    
C33   C37   A    
O3    V1    S    
C51   C52   S    
C12   C16   A    
C39   C53   S    
C1    O15   A    
C47   C48   S    
C2    O16   A    
C38   C51   S    
O2    C6    A    
C56   H28   S    
O14   V2    S    
C11   H3    S    
C16   C20   A    
O11   C7    A    
C53   H26   S    
O12   C8    A    
C4    C41   S    
O17   V1    S    
C56   H29   S    
O10   V2    S    
C51   H21   S    
C24   C36   A    
O5    V1    S    
C55   H31   S    
C9    C29   A    
C53   H27   S    
C49   H16   S    
O7    V3    S    
C9    H1    S    
C27   C28   A    
O8    V4    S    
O20   V4    S    
C50   H13   S    
C15   C19   A    
O19   V3    S    
C36   H12   S    
C54   H25   S    
C9    C13   A    
C1    C44   S    
C11   C15   A    
O5    C1    A    
C12   C32   A    
C3    C42   S    
C29   C38   A    
C42   C46   T    
C53   C54   S    
C21   C25   A    
O8    C4    A    
C31   C40   A    
C54   H24   S    
C8    C13   S    
C32   C39   A    
O9    C5    A    
C40   C55   S    
C11   C31   A    
C37   C49   S    
O6    V2    S    
C10   C30   A    
C52   H20   S    
C56   H30   S    
C35   H11   S    
C34   H10   S    
C17   H5    S    
O16   V4    S    
C3    O13   A    
C19   H7    S    
C10   C14   A    
O17   V3    S    
C50   H15   S    
O6    C2    A    
C23   C27   A    
C2    C43   S    
C12   H4    S    
O11   V3    S    
O18   V4    S    
C30   C37   A    
O12   V4    S    
C7    C14   S    
C22   C26   A    
C35   C39   A    
C36   C40   A    
O10   C6    A    
O20   V2    S    
C43   C47   T    
C5    C16   S    
C25   C29   A    
C6    C15   S    
C54   H23   S    
C20   H8    S    
C27   C31   A    
C13   C17   A    
C41   C45   T    
O4    V2    S    
C23   C35   A    
C28   C32   A    
C24   C28   A    
C52   H19   S    
C25   C26   A    
C4    O14   A    
C17   C21   A    
C19   C23   A    
C22   C34   A    
C20   C24   A    
O18   V2    S    
