data_mof_unit_43369.cif
_audit_creation_date              2012-12-10T17:48:22-0500
_audit_creation_method            fapswitch 2.2
_symmetry_space_group_name_H-M    P1
_symmetry_Int_Tables_number       1
_space_group_crystal_system       triclinic
_cell_length_a                    13.850951
_cell_length_b                    14.740402
_cell_length_c                    14.795997
_cell_angle_alpha                 115.409781
_cell_angle_beta                  107.313262
_cell_angle_gamma                 72.860309
_cell_volume                      2555.69424336

loop_
_atom_site_label
_atom_site_type_symbol
_atom_type_description
_atom_site_fract_x
_atom_site_fract_y
_atom_site_fract_z
_atom_type_partial_charge
C1    C     C_R   0.516644 0.118447 0.688176 0.808839
C2    C     C_R   0.482320 0.881522 0.311926 0.807914
C3    C     C_R   0.528997 0.357504 0.925065 0.075574
C4    C     C_R   0.498438 0.639476 0.078589 0.069503
C5    C     C_R   0.565571 0.316471 0.002917 0.114038
C6    C     C_R   0.483737 0.678862 0.001911 0.116045
C7    C     C_R   0.514723 0.464618 0.950469 0.078360
C8    C     C_R   0.520889 0.531803 0.054058 0.080643
C9    C     C_R   0.552894 0.489071 0.130010 -0.215808
C10   C     C_R   0.499167 0.506002 0.875736 -0.236283
C11   C     C_R   0.575673 0.384081 0.104926 -0.215814
C12   C     C_R   0.485185 0.610484 0.901166 -0.237737
C13   C     C_R   0.347947 0.279365 0.309806 -0.324190
C14   C     C_R   0.692708 0.694653 0.653068 -0.323208
C15   C     C_R   0.362113 0.207263 0.352125 0.055893
C16   C     C_R   0.652808 0.783811 0.633278 0.042854
C17   C     C_R   0.493234 0.283737 0.486356 0.117169
C18   C     C_R   0.515176 0.710267 0.507338 0.113381
C19   C     C_R   0.485028 0.358052 0.444286 -0.064870
C20   C     C_R   0.557534 0.613158 0.517860 -0.066419
C21   C     C_R   0.410459 0.353684 0.353269 0.109698
C22   C     C_R   0.646953 0.607996 0.595095 0.117256
C23   C     C_R   0.686875 0.987056 0.504171 0.827257
C24   C     C_R   0.313109 0.013003 0.495858 0.819021
C25   C     C_R   0.545086 0.437869 0.489419 0.050172
C26   C     C_R   0.513626 0.522396 0.457829 0.053352
C27   C     C_R   0.449817 0.507362 0.360832 -0.258927
C28   C     C_R   0.640205 0.432459 0.557815 -0.262282
C29   C     C_R   0.400756 0.423191 0.306876 0.011662
C30   C     C_R   0.689904 0.515661 0.611689 -0.000400
C31   C     C_1   0.207502 0.020114 0.492693 -0.158954
C32   C     C_1   0.792369 0.979930 0.506952 -0.170835
C33   C     C_2   0.012494 0.032449 0.486490 -0.165045
C34   C     C_2   0.987128 0.967660 0.512344 -0.155236
C35   C     C_1   0.881337 0.973818 0.509522 -0.000058
C36   C     C_1   0.118394 0.026314 0.489690 0.005321
C37   C     C_R   0.530327 0.184754 0.796921 -0.072400
C38   C     C_R   0.476310 0.814164 0.204059 -0.066918
C39   C     C_R   0.589008 0.208690 0.976398 0.003360
C40   C     C_R   0.467052 0.786088 0.027985 0.004817
C41   C     C_R   0.571811 0.144093 0.873278 -0.252953
C42   C     C_R   0.463392 0.852568 0.128930 -0.253389
C43   C     C_R   0.505871 0.290394 0.823683 -0.227597
C44   C     C_R   0.489598 0.709126 0.177753 -0.243269
Cu1   Cu    Cu3+1 0.526370 0.916390 0.524860 0.939716
Cu2   Cu    Cu3+1 0.473630 0.083610 0.475140 0.944986
H1    H     H_    0.045568 0.909935 0.535898 0.159803
H2    H     H_    0.954088 0.090192 0.462914 0.152279
H3    H     H_    0.288383 0.275701 0.242307 0.152579
H4    H     H_    0.760384 0.694035 0.712866 0.154341
H5    H     H_    0.445668 0.555432 0.321122 0.142883
H6    H     H_    0.682806 0.360798 0.564222 0.165030
H7    H     H_    0.599464 0.356780 0.166906 0.161347
H8    H     H_    0.474343 0.637124 0.840432 0.165867
H9    H     H_    0.491211 0.683420 0.236231 0.153992
H10   H     H_    0.466468 0.319266 0.763905 0.159439
H11   H     H_    0.452325 0.934305 0.149040 0.153033
H12   H     H_    0.592334 0.061876 0.852765 0.157258
H13   H     H_    0.566245 0.534478 0.210541 0.138578
H14   H     H_    0.502140 0.458990 0.796867 0.159586
H15   H     H_    0.691487 0.848252 0.674971 0.132251
H16   H     H_    0.317550 0.147163 0.314423 0.131124
N1    N     N_R   0.433980 0.209250 0.437830 -0.196890
N2    N     N_R   0.566020 0.790750 0.562170 -0.196484
O1    O     O_R   0.534760 0.019630 0.662610 -0.605705
O2    O     O_R   0.465240 0.980370 0.337390 -0.593904
O3    O     O_R   0.490220 0.160840 0.620610 -0.572519
O4    O     O_R   0.509780 0.839160 0.379390 -0.582025
O5    O     O_R   0.663260 0.919400 0.523940 -0.578509
O6    O     O_R   0.336740 0.080600 0.476060 -0.583913
O7    O     O_R   0.618720 0.060610 0.481950 -0.570332
O8    O     O_R   0.381280 0.939390 0.518050 -0.566192
C45   C     C_R   0.634899 0.160682 0.053540 0.095146
C46   C     C_R   0.584395 0.094834 0.060595 -0.169952
C47   C     C_R   0.627637 0.049414 0.133074 -0.120374
C48   C     C_R   0.721929 0.068584 0.198408 -0.103523
C49   C     C_R   0.773542 0.132681 0.190846 -0.136152
C50   C     C_R   0.730645 0.178130 0.118321 -0.158385
H17   H     H_    0.510849 0.080038 0.011096 0.142287
H18   H     H_    0.588092 0.999390 0.138656 0.134374
H19   H     H_    0.755156 0.033511 0.254629 0.128954
H20   H     H_    0.846889 0.147019 0.241081 0.127995
H21   H     H_    0.771729 0.227154 0.112814 0.130768
C51   C     C_R   0.457946 0.831327 0.953175 0.086860
C52   C     C_R   0.363224 0.887732 0.920547 -0.150109
C53   C     C_R   0.355544 0.932323 0.851504 -0.155142
C54   C     C_R   0.442510 0.921887 0.815785 -0.126452
C55   C     C_R   0.537370 0.867322 0.849530 -0.122686
C56   C     C_R   0.545150 0.821640 0.917553 -0.160722
H22   H     H_    0.295569 0.896809 0.948322 0.129853
H23   H     H_    0.282332 0.975425 0.826118 0.132641
H24   H     H_    0.436611 0.957015 0.762931 0.151743
H25   H     H_    0.605245 0.861597 0.824261 0.131227
H26   H     H_    0.619154 0.779882 0.943468 0.134372
C57   C     C_R   0.346972 0.406428 0.199141 0.106944
C58   C     C_R   0.278301 0.487290 0.173233 -0.142096
C59   C     C_R   0.234929 0.473252 0.070967 -0.134354
C60   C     C_R   0.259651 0.378626 0.993702 -0.106266
C61   C     C_R   0.327393 0.297715 0.018554 -0.121307
C62   C     C_R   0.371235 0.311612 0.120620 -0.160761
H27   H     H_    0.258907 0.561328 0.232080 0.147046
H28   H     H_    0.182590 0.535986 0.051602 0.126878
H29   H     H_    0.226656 0.368061 0.914565 0.117624
H30   H     H_    0.347127 0.224617 0.958668 0.128400
H31   H     H_    0.425568 0.249090 0.138557 0.138762
C63   C     C_R   0.786554 0.502907 0.686218 0.100971
C64   C     C_R   0.784214 0.488131 0.773165 -0.134768
C65   C     C_R   0.875324 0.474930 0.843213 -0.127094
C66   C     C_R   0.969191 0.475839 0.826622 -0.112961
C67   C     C_R   0.972160 0.489683 0.739806 -0.137327
C68   C     C_R   0.881194 0.502945 0.669539 -0.159802
H32   H     H_    0.711856 0.487406 0.786830 0.145522
H33   H     H_    0.873159 0.463993 0.910346 0.133776
H34   H     H_    0.039582 0.465708 0.880963 0.117657
H35   H     H_    0.044966 0.490027 0.726926 0.129863
H36   H     H_    0.884320 0.513236 0.602316 0.132704
C69   C     C_1   0.414191 0.729401 0.446623 0.280034
N3    N     N_1   0.332972 0.743982 0.397744 -0.321746
C70   C     C_1   0.561091 0.286941 0.582286 0.269565
N4    N     N_1   0.616667 0.290160 0.659160 -0.327141

loop_
_geom_bond_atom_site_label_1
_geom_bond_atom_site_label_2
_ccdc_geom_bond_type
C7    C10   A    
C54   C55   A    
C27   C29   A    
C45   C46   A    
C23   O5    A    
C57   C58   A    
C4    C8    A    
C59   C60   A    
C24   O6    A    
C7    C8    A    
C39   C41   A    
C52   C53   A    
C25   C28   A    
C3    C43   A    
C26   C27   A    
C19   C21   A    
C41   H12   S    
C5    C11   A    
C3    C7    A    
C53   H23   S    
C6    C12   A    
C63   C64   A    
C60   H29   S    
C33   C36   S    
C65   C66   A    
C34   C35   S    
C64   H32   S    
C56   H26   S    
C40   C51   S    
C67   C68   A    
C1    O3    A    
C50   H21   S    
C8    C9    A    
C1    O1    A    
C64   C65   A    
C68   H36   S    
C47   H18   S    
C18   C20   A    
C59   H28   S    
C11   H7    S    
C49   C50   A    
C40   C42   A    
C61   H30   S    
C58   H27   S    
C30   C63   S    
Cu1   O8    S    
C42   H11   S    
C27   H5    S    
C63   C68   A    
C52   H22   S    
C46   C47   A    
Cu1   O5    S    
C32   C35   T    
C23   O7    A    
C48   C49   A    
C4    C6    A    
C29   C57   S    
C57   C62   A    
C4    C44   A    
C3    C5    A    
C25   C26   A    
Cu1   Cu2   S    
C21   C29   A    
C9    H13   S    
C65   H33   S    
C37   C43   A    
C10   H14   S    
C47   C48   A    
C38   C44   A    
C2    C38   S    
C61   C62   A    
C45   C50   A    
C58   C59   A    
Cu1   O4    S    
C33   C34   D    
C62   H31   S    
C13   C21   A    
C51   C52   A    
C9    C11   A    
C18   C69   S    
Cu2   O7    S    
C10   C12   A    
C66   H34   S    
C13   H3    S    
C20   C22   A    
C46   H17   S    
C13   C15   A    
Cu1   O1    S    
C14   C16   A    
C51   C56   A    
C24   O8    A    
C55   H25   S    
C22   C30   A    
C53   C54   A    
C2    O2    A    
C48   H19   S    
C70   N4    T    
Cu2   O2    S    
C1    C37   S    
Cu1   N2    S    
C2    O4    A    
Cu2   N1    S    
C23   C32   S    
C14   C22   A    
C5    C39   A    
C24   C31   S    
Cu2   O3    S    
C69   N3    T    
C17   N1    A    
C28   H6    S    
C44   H9    S    
C18   N2    A    
C14   H4    S    
C20   C26   A    
C49   H20   S    
C28   C30   A    
C17   C19   A    
C15   H16   S    
C6    C40   A    
C39   C45   S    
C37   C41   A    
C19   C25   A    
Cu2   O6    S    
C17   C70   S    
C38   C42   A    
C43   H10   S    
C55   C56   A    
C60   C61   A    
C16   H15   S    
C66   C67   A    
C33   H2    S    
C15   N1    A    
C31   C36   T    
C34   H1    S    
C16   N2    A    
C54   H24   S    
C67   H35   S    
C12   H8    S    
