data_mof_unit_67728.cif
_audit_creation_date              2012-10-26T19:56:20-0400
_audit_creation_method            fapswitch 2.2
_symmetry_space_group_name_H-M    P1
_symmetry_Int_Tables_number       1
_space_group_crystal_system       triclinic
_cell_length_a                    10.996985
_cell_length_b                    10.646801
_cell_length_c                    9.510647
_cell_angle_alpha                 85.79019
_cell_angle_beta                  90.966511
_cell_angle_gamma                 88.829348
_cell_volume                      1110.10774473

loop_
_atom_site_label
_atom_site_type_symbol
_atom_type_description
_atom_site_fract_x
_atom_site_fract_y
_atom_site_fract_z
_atom_type_partial_charge
C1    C     C_R   0.500926 0.259537 0.504061 0.557838
C2    C     C_3   0.409591 0.054617 0.418018 -0.096572
C3    C     C_3   0.499265 0.877564 0.490628 0.008285
C4    C     C_3   0.501132 0.122272 0.509026 0.006815
C5    C     C_3   0.392074 0.955518 0.544189 -0.123988
C6    C     C_3   0.608312 0.044318 0.455290 -0.126586
C7    C     C_3   0.501149 0.611885 0.039467 0.283475
C8    C     C_3   0.498599 0.388264 0.960643 0.265012
C9    C     C_3   0.404653 0.561105 0.941010 -0.021747
C10   C     C_3   0.595163 0.438811 0.058963 0.040129
C11   C     C_3   0.594675 0.552486 0.948772 0.325252
C12   C     C_R   0.499223 0.740406 0.495891 0.562409
C13   C     C_3   0.405250 0.447683 0.051449 0.306918
C14   C     C_R   0.262447 0.503788 0.497914 0.539838
C15   C     C_R   0.737531 0.495771 0.502105 0.541994
C16   C     C_R   0.137448 0.827652 0.105606 0.286177
C17   C     C_R   0.865438 0.167313 0.891171 0.248336
C18   C     C_R   0.113039 0.770092 0.242728 0.221223
C19   C     C_R   0.888858 0.226575 0.754594 0.219498
C20   C     C_R   0.103578 0.636648 0.259711 -0.066891
C21   C     C_R   0.896367 0.360279 0.739039 -0.063820
C22   C     C_R   0.111085 0.565834 0.142335 0.019556
C23   C     C_R   0.871682 0.495670 0.505241 0.027207
C24   C     C_R   0.887684 0.429813 0.857362 0.018140
C25   C     C_R   0.125947 0.622641 0.008136 0.214180
C26   C     C_R   0.873487 0.371505 0.991046 0.214823
C27   C     C_R   0.142823 0.752529 0.990877 -0.106779
C28   C     C_R   0.858296 0.241260 0.006794 -0.108821
C29   C     C_R   0.928703 0.564265 0.395156 -0.119751
C30   C     C_R   0.071285 0.434276 0.604456 -0.121137
C31   C     C_R   0.128284 0.503308 0.494670 0.028666
C32   C     C_R   0.944635 0.429200 0.611763 0.021944
C33   C     C_R   0.055312 0.569307 0.387876 0.020398
C34   C     C_3   0.483915 0.024529 0.631693 0.244181
C35   C     C_3   0.516550 0.975133 0.367865 0.254857
C36   C     C_3   0.590864 0.945203 0.581452 -0.092419
Cu1   Cu    Cu3+1 0.500030 0.499990 0.643150 1.021850
Cu2   Cu    Cu3+1 0.499970 0.500010 0.356850 1.064284
H1    H     H_    0.160254 0.794862 0.886397 0.176522
H2    H     H_    0.338133 0.107553 0.353547 0.195961
H3    H     H_    0.306049 0.916326 0.585699 0.207192
H4    H     H_    0.694150 0.083734 0.413511 0.205727
H5    H     H_    0.494518 0.790642 0.998675 0.320444
H6    H     H_    0.411044 0.257202 0.881128 0.375063
H7    H     H_    0.659519 0.692508 0.837830 0.348849
H8    H     H_    0.341139 0.310259 0.166940 0.334428
H9    H     H_    0.330075 0.098187 0.073053 0.362100
H10   H     H_    0.647306 0.009419 0.946887 0.373933
H11   H     H_    0.883368 0.833069 0.407664 0.342054
H12   H     H_    0.841661 0.197507 0.110855 0.175955
H13   H     H_    0.119431 0.165014 0.591529 0.337631
H14   H     H_    0.130279 0.603194 0.807204 0.333978
H15   H     H_    0.870117 0.388872 0.192549 0.334018
H16   H     H_    0.439957 0.972340 0.820658 0.333346
H17   H     H_    0.554371 0.028052 0.177443 0.328736
H18   H     H_    0.336393 0.623012 0.883067 0.128316
H19   H     H_    0.663075 0.376272 0.116645 0.133220
H20   H     H_    0.097810 0.465154 0.154557 0.231207
H21   H     H_    0.900263 0.530635 0.846427 0.232610
H22   H     H_    0.873806 0.614996 0.312818 0.177928
H23   H     H_    0.126254 0.383135 0.686427 0.166362
H24   H     H_    0.662529 0.892119 0.645354 0.212227
N1    N     N_3   0.500090 0.499970 0.858290 -0.283748
N2    N     N_3   0.499910 0.500030 0.141710 -0.261064
O1    O     O_R   0.500060 0.316850 0.620870 -0.430717
O2    O     O_3   0.495514 0.266511 0.916277 -0.660220
O3    O     O_3   0.693931 0.616076 0.890991 -0.641327
O4    O     O_3   0.306170 0.383944 0.109354 -0.671507
O5    O     O_2   0.159136 0.024106 0.911620 -0.260847
O6    O     O_2   0.078442 0.073828 0.138788 -0.178503
O7    O     O_3   0.308177 0.017231 0.123141 -0.516834
O8    O     O_2   0.930001 0.923626 0.852343 -0.151991
O9    O     O_2   0.853991 0.966990 0.082957 -0.237420
O10   O     O_3   0.699759 0.971110 0.877336 -0.515066
O11   O     O_2   0.097086 0.788303 0.526252 -0.318041
O12   O     O_R   0.499940 0.683150 0.379130 -0.396025
O13   O     O_2   0.151924 0.977033 0.385252 -0.196213
O14   O     O_3   0.929505 0.906407 0.369411 -0.388846
O15   O     O_2   0.850041 0.021785 0.609076 -0.197558
O16   O     O_2   0.906364 0.211388 0.470566 -0.319251
O17   O     O_3   0.072783 0.091179 0.627339 -0.391119
O18   O     O_3   0.126092 0.548174 0.895702 -0.697751
O19   O     O_3   0.873444 0.444740 0.104581 -0.695649
O20   O     O_3   0.464467 0.052506 0.770536 -0.632834
O21   O     O_3   0.536546 0.946504 0.229258 -0.575129
O22   O     O_R   0.500000 0.316860 0.379090 -0.552665
O23   O     O_R   0.500000 0.683140 0.620910 -0.555183
O24   O     O_R   0.319670 0.500010 0.620890 -0.510977
O25   O     O_R   0.680330 0.499990 0.379110 -0.499706
O26   O     O_R   0.319620 0.500010 0.379110 -0.481829
O27   O     O_R   0.680380 0.499990 0.620890 -0.479177
O28   O     O_3   0.504130 0.733294 0.085207 -0.578345
S1    S     S_3+6 0.166437 0.990486 0.067840 0.085254
S2    S     S_3+6 0.841634 0.003170 0.927616 0.104149
S3    S     S_3+6 0.076724 0.861513 0.386288 0.103995
S4    S     S_3+6 0.925788 0.136847 0.609875 0.099562

loop_
_geom_bond_atom_site_label_1
_geom_bond_atom_site_label_2
_ccdc_geom_bond_type
C2    C35   S    
C8    O2    S    
C26   O19   S    
O10   S2    S    
Cu1   O24   S    
H6    O2    S    
C14   C31   S    
H16   O20   S    
O11   S3    D    
Cu2   O12   S    
C6    C35   S    
C7    C11   S    
Cu2   O25   S    
C16   S1    S    
C8    C13   S    
Cu2   O22   S    
C23   C29   A    
C19   C21   A    
C24   C26   A    
C11   N1    S    
C30   C31   A    
C29   C33   A    
H11   O14   S    
C9    C13   S    
C14   O26   A    
C3    C12   S    
C28   H12   S    
C27   H1    S    
C22   C25   A    
Cu1   O1    S    
H7    O3    S    
C1    O1    A    
C31   C33   A    
O16   S4    D    
H13   O17   S    
C34   C36   S    
O8    S2    D    
C16   C27   A    
C15   C23   S    
C18   S3    S    
C34   O20   S    
O9    S2    D    
C36   H24   S    
Cu1   N1    S    
C11   O3    S    
Cu2   N2    S    
C21   C32   S    
C4    C34   S    
Cu1   O27   S    
H10   O10   S    
O6    S1    D    
C4    C6    S    
O17   S4    S    
O13   S3    D    
H17   O21   S    
C2    C4    S    
H8    O4    S    
Cu1   Cu2   S    
C15   O25   A    
C29   H22   S    
C3    C35   S    
O14   S3    S    
C5    C34   S    
C10   H19   S    
C9    H18   S    
H14   O18   S    
H9    O7    S    
C20   C33   S    
C16   C18   A    
C20   C22   A    
C12   O12   A    
C25   O18   S    
C21   C24   A    
C2    C5    S    
O5    S1    D    
C1    O22   A    
C7    C9    S    
C5    H3    S    
C12   O23   A    
C9    N1    S    
C17   C28   A    
Cu1   O23   S    
C10   N2    S    
C3    C5    S    
C22   H20   S    
O7    S1    S    
C25   C27   A    
Cu2   O26   S    
C26   C28   A    
H5    O28   S    
H15   O19   S    
C1    C4    S    
C23   C32   A    
C14   O24   A    
O15   S4    D    
C30   C32   A    
C35   O21   S    
C13   N2    S    
C3    C36   S    
C24   H21   S    
C7    O28   S    
C17   C19   A    
C6    C36   S    
C18   C20   A    
C7    N2    S    
C10   C11   S    
C8    N1    S    
C15   O27   A    
C2    H2    S    
C8    C10   S    
C6    H4    S    
C30   H23   S    
C17   S2    S    
C19   S4    S    
C13   O4    S    
