data_mof_unit_32030.cif
_audit_creation_date              2012-12-10T17:37:19-0500
_audit_creation_method            fapswitch 2.2
_symmetry_space_group_name_H-M    P1
_symmetry_Int_Tables_number       1
_space_group_crystal_system       triclinic
_cell_length_a                    12.338106
_cell_length_b                    13.10938
_cell_length_c                    15.839836
_cell_angle_alpha                 77.872372
_cell_angle_beta                  100.954639
_cell_angle_gamma                 116.596354
_cell_volume                      2226.24156709

loop_
_atom_site_label
_atom_site_type_symbol
_atom_type_description
_atom_site_fract_x
_atom_site_fract_y
_atom_site_fract_z
_atom_type_partial_charge
C1    C     C_R   0.854885 0.286137 0.508795 0.759850
C2    C     C_3   0.998928 0.500045 0.917151 0.167967
C3    C     C_3   0.111371 0.571266 0.031748 -0.143881
C4    C     C_3   0.000578 0.499921 0.082798 0.170198
C5    C     C_3   0.028243 0.607348 0.957600 -0.145722
C6    C     C_3   0.917451 0.536003 0.010196 -0.143003
C7    C     C_1   0.998383 0.500084 0.825265 -0.051555
C8    C     C_1   0.001281 0.499911 0.174696 -0.040056
C9    C     C_R   0.288143 0.009227 0.356222 -0.149118
C10   C     C_R   0.228027 0.835307 0.461076 -0.192591
C11   C     C_R   0.811190 0.083292 0.570310 -0.178279
C12   C     C_R   0.999430 0.499906 0.659935 0.833660
C13   C     C_R   0.730905 0.967522 0.584987 -0.144823
C14   C     C_R   0.609213 0.930910 0.550289 -0.087260
C15   C     C_R   0.565606 0.009906 0.499276 0.113727
C16   C     C_R   0.652088 0.122819 0.472708 0.007132
C17   C     C_R   0.440431 0.977615 0.467962 -0.052743
C18   C     C_R   0.408697 0.047836 0.395523 -0.050575
C19   C     C_R   0.498555 0.154228 0.362717 0.382274
C20   C     C_R   0.617679 0.191302 0.401908 -0.223766
C21   C     C_R   0.345248 0.878847 0.506473 0.266499
C22   C     C_R   0.200046 0.901664 0.385414 0.299295
C23   C     C_R   0.145089 0.713768 0.484922 0.910162
C24   C     C_R   0.772598 0.162385 0.515173 -0.076021
C25   C     C_R   0.346180 0.328749 0.638679 -0.280695
C26   C     C_R   0.757190 0.641854 0.380809 0.129893
C27   C     C_R   0.660910 0.673423 0.354991 -0.222360
C28   C     C_R   0.558925 0.620822 0.400494 -0.183775
C29   C     C_R   0.551639 0.534689 0.472379 0.005509
C30   C     C_R   0.653401 0.505902 0.496873 0.291553
C31   C     C_R   0.447296 0.475555 0.520309 -0.029586
C32   C     C_R   0.446747 0.388716 0.590961 0.169586
C33   C     C_R   0.546445 0.361999 0.613726 -0.263650
C34   C     C_R   0.000596 0.500169 0.340056 0.827993
C35   C     C_R   0.647448 0.419444 0.567972 -0.171290
C36   C     C_R   0.342442 0.498112 0.501413 0.056409
C37   C     C_R   0.246248 0.354965 0.616714 0.091362
C38   C     C_3   0.971257 0.392617 0.042351 -0.148835
C39   C     C_3   0.888127 0.428698 0.968199 -0.159200
C40   C     C_1   0.998512 0.500053 0.749616 -0.148156
C41   C     C_1   0.001353 0.499975 0.250366 -0.133466
C42   C     C_3   0.082049 0.463963 0.989760 -0.143064
Cu1   Cu    Cu3+1 0.098270 0.475420 0.519690 0.973710
Cu2   Cu    Cu3+1 0.901730 0.524580 0.480310 0.972062
H1    H     H_    0.796483 0.370222 0.940732 0.144903
H2    H     H_    0.903475 0.111017 0.602353 0.153224
H3    H     H_    0.551610 0.839546 0.560488 0.179859
H4    H     H_    0.762475 0.906132 0.624861 0.152779
H5    H     H_    0.684237 0.271844 0.372543 0.196767
H6    H     H_    0.168278 0.309044 0.653296 0.121714
H7    H     H_    0.546549 0.295665 0.667748 0.160324
H8    H     H_    0.344948 0.262070 0.692680 0.146506
H9    H     H_    0.335019 0.562816 0.449143 0.119615
H10   H     H_    0.834212 0.681020 0.343842 0.194344
H11   H     H_    0.947907 0.304495 0.078519 0.151400
H12   H     H_    0.486948 0.648403 0.377444 0.138325
H13   H     H_    0.665021 0.738342 0.299119 0.163355
H14   H     H_    0.718673 0.392386 0.590634 0.202377
H15   H     H_    0.849897 0.565561 0.019978 0.152504
H16   H     H_    0.051594 0.695472 0.921439 0.148805
H17   H     H_    0.203014 0.629750 0.059209 0.148079
H18   H     H_    0.149608 0.434399 0.979997 0.151854
H19   H     H_    0.262457 0.059282 0.299406 0.231587
N1    N     N_R   0.246280 0.438200 0.549540 -0.181000
N2    N     N_R   0.754330 0.561180 0.450980 -0.217109
O1    O     O_R   0.972510 0.318130 0.524770 -0.583831
O2    O     O_R   0.806530 0.359650 0.491510 -0.603913
O3    O     O_R   0.082970 0.479240 0.637550 -0.561847
O4    O     O_R   0.916990 0.520750 0.604290 -0.601783
O5    O     O_R   0.193470 0.640350 0.508490 -0.561445
O6    O     O_R   0.027490 0.681870 0.475230 -0.543336
O7    O     O_R   0.083010 0.479250 0.395710 -0.586265
O8    O     O_R   0.917030 0.520760 0.362450 -0.570198
Cl1   Cl    Cl    0.361593 0.821995 0.617890 -0.630014
Cl2   Cl    Cl    0.058670 0.852751 0.321117 -0.655545
Cl3   Cl    Cl    0.466735 0.246390 0.273203 -0.627405

loop_
_geom_bond_atom_site_label_1
_geom_bond_atom_site_label_2
_ccdc_geom_bond_type
C12   O4    A    
C3    C42   S    
Cu1   O7    S    
C19   C20   A    
C4    C8    S    
C11   H2    S    
C28   H12   S    
C10   C22   A    
C12   O3    A    
C26   C27   A    
C29   C30   A    
C30   C35   A    
C35   H14   S    
C28   C29   A    
C38   C42   S    
C5    C6    S    
C9    C22   A    
C15   C16   A    
C11   C24   A    
Cu2   O6    S    
C18   C19   A    
C36   H9    S    
C33   C35   A    
C2    C39   S    
C38   H11   S    
C2    C7    S    
Cu1   O3    S    
C7    C40   T    
C42   H18   S    
C39   H1    S    
C25   C37   A    
C25   C32   A    
C16   C24   A    
C9    H19   S    
C13   C14   A    
C23   O5    A    
Cu2   N2    S    
C34   C41   S    
C22   Cl2   S    
C26   H10   S    
Cu1   N1    S    
C1    O1    A    
C3    H17   S    
C10   C21   A    
C23   O6    A    
C8    C41   T    
C4    C6    S    
C27   H13   S    
C21   Cl1   S    
C17   C21   A    
C12   C40   S    
Cu1   Cu2   S    
C20   H5    S    
C31   C32   A    
C14   C15   A    
C16   C20   A    
C17   C18   A    
Cu2   O4    S    
C4    C38   S    
Cu1   O5    S    
C2    C5    S    
C3    C4    S    
C34   O7    A    
C37   N1    A    
C15   C17   A    
C19   Cl3   S    
C5    H16   S    
C6    C39   S    
C26   N2    A    
C6    H15   S    
C3    C5    S    
C13   H4    S    
C14   H3    S    
C10   C23   S    
C33   H7    S    
C32   C33   A    
C25   H8    S    
C29   C31   A    
C37   H6    S    
C11   C13   A    
C38   C39   S    
C2    C42   S    
Cu1   O1    S    
C1    O2    A    
Cu2   O8    S    
C30   N2    A    
C34   O8    A    
C9    C18   A    
C1    C24   S    
C27   C28   A    
C31   C36   A    
Cu2   O2    S    
C36   N1    A    
