data_mof_unit_48917.cif
_audit_creation_date              2012-12-10T18:46:21-0500
_audit_creation_method            fapswitch 2.2
_symmetry_space_group_name_H-M    P1
_symmetry_Int_Tables_number       1
_space_group_crystal_system       triclinic
_cell_length_a                    9.914099
_cell_length_b                    10.608031
_cell_length_c                    13.355931
_cell_angle_alpha                 91.612971
_cell_angle_beta                  71.559781
_cell_angle_gamma                 90.81158
_cell_volume                      1331.96047282

loop_
_atom_site_label
_atom_site_type_symbol
_atom_type_description
_atom_site_fract_x
_atom_site_fract_y
_atom_site_fract_z
_atom_type_partial_charge
C1    C     C_R   0.499749 0.739467 0.502070 0.939022
C2    C     C_R   0.461315 0.477320 0.968162 0.142569
C3    C     C_R   0.469220 0.530667 0.871882 -0.075358
C4    C     C_R   0.552162 0.524549 0.023645 -0.142375
C5    C     C_R   0.668237 0.604813 0.974710 -0.217474
C6    C     C_R   0.669265 0.663544 0.881200 0.487407
C7    C     C_R   0.568331 0.628659 0.832975 -0.213292
C8    C     C_R   0.516337 0.508998 0.132032 0.417649
C9    C     C_R   0.749695 0.587974 0.128445 0.239763
C10   C     C_R   0.378299 0.484893 0.816006 -0.186155
C11   C     C_R   0.507661 0.939365 0.591811 0.454869
C12   C     C_R   0.422173 0.501129 0.702634 0.888768
C13   C     C_R   0.516309 0.069006 0.587859 0.192386
C14   C     C_R   0.499816 0.127798 0.499737 -0.283630
C15   C     C_R   0.486937 0.061024 0.410948 0.550096
C16   C     C_R   0.488933 0.929715 0.413434 -0.375359
C17   C     C_R   0.499592 0.871796 0.502727 -0.221310
C18   C     C_R   0.952512 0.414211 0.439452 0.311735
C19   C     C_R   0.095968 0.414428 0.439315 0.314703
C20   C     C_R   0.047293 0.585400 0.560547 0.260496
C21   C     C_R   0.906106 0.590867 0.555047 0.412160
C22   C     C_R   0.499878 0.260460 0.499188 1.027463
C23   C     C_R   0.577368 0.506294 0.297108 0.999154
C24   C     C_R   0.772226 0.629433 0.025372 0.466194
C25   C     C_R   0.619172 0.529814 0.183484 -0.325036
C26   C     C_R   0.269663 0.396809 0.861512 0.491730
C27   C     C_R   0.263440 0.344027 0.957374 -0.231999
C28   C     C_R   0.364158 0.377013 0.005876 -0.118825
H1    H     H_    0.484457 0.870871 0.346968 0.149472
H2    H     H_    0.363953 0.323397 0.073564 0.217309
H3    H     H_    0.182521 0.274882 0.993343 0.182878
H4    H     H_    0.568393 0.679323 0.764104 0.240590
N1    N     N_R   0.142790 0.500030 0.500030 -0.191327
N2    N     N_R   0.857180 0.499940 0.500010 -0.189535
O1    O     O_R   0.385370 0.683250 0.500010 -0.602944
O2    O     O_R   0.614700 0.683220 0.500010 -0.591290
O3    O     O_R   0.328400 0.499990 0.653620 -0.555381
O4    O     O_R   0.557730 0.499960 0.653620 -0.580594
O5    O     O_R   0.385300 0.316780 0.499990 -0.579333
O6    O     O_R   0.614630 0.316750 0.499990 -0.546373
O7    O     O_R   0.442270 0.500040 0.346380 -0.547641
O8    O     O_R   0.671600 0.500010 0.346380 -0.545415
Zn1   Zn    Zn3+2 0.346870 0.500020 0.500000 1.060175
Zn2   Zn    Zn3+2 0.653130 0.499980 0.500000 1.090421
Cl1   Cl    Cl    0.879840 0.627170 0.189540 -0.585925
Cl2   Cl    Cl    0.548576 0.155166 0.693665 -0.588015
O9    O     O_3   0.484622 0.129880 0.323557 -0.571936
C29   C     C_3   0.445280 0.058504 0.246362 -0.147432
H5    H     H_    0.428774 0.124155 0.188132 0.207323
H6    H     H_    0.343170 0.007239 0.281445 0.157736
H7    H     H_    0.532066 0.993406 0.202521 0.150437
Cl3   Cl    Cl    0.899655 0.307808 0.355286 -0.468943
Cl4   Cl    Cl    0.213326 0.301919 0.360655 -0.466585
Cl5   Cl    Cl    0.097552 0.686596 0.648842 -0.580264
O10   O     O_3   0.817781 0.688867 0.604127 -0.537111
C30   C     C_3   0.862206 0.798203 0.543727 -0.061598
H8    H     H_    0.787470 0.875629 0.579690 0.228862
H9    H     H_    0.862283 0.782936 0.460875 0.135707
H10   H     H_    0.968931 0.831431 0.543466 0.169709
Cl6   Cl    Cl    0.777264 0.795195 0.829988 -0.455516
O11   O     O_3   0.893732 0.698254 0.977113 -0.543228
C31   C     C_3   0.000444 0.613826 0.919724 -0.038036
H11   H     H_    0.027246 0.546446 0.972791 0.163979
H12   H     H_    0.098185 0.668539 0.880454 0.183423
H13   H     H_    0.968479 0.561634 0.857264 0.201247
O12   O     O_3   0.374967 0.487022 0.189429 -0.559779
C32   C     C_3   0.299044 0.601534 0.202833 -0.146206
H14   H     H_    0.189217 0.585274 0.255793 0.202571
H15   H     H_    0.291009 0.634292 0.126601 0.155403
H16   H     H_    0.347673 0.676694 0.240479 0.117595
O13   O     O_3   0.164794 0.369764 0.815651 -0.629787
C33   C     C_3   0.177715 0.244426 0.776100 -0.181921
H17   H     H_    0.172551 0.174748 0.837839 0.154516
H18   H     H_    0.276771 0.232897 0.708819 0.176674
H19   H     H_    0.087758 0.223556 0.745559 0.202877
O14   O     O_3   0.513553 0.878766 0.680644 -0.580173
C34   C     C_3   0.374042 0.868310 0.751350 -0.232963
H20   H     H_    0.313382 0.795270 0.722303 0.187042
H21   H     H_    0.316146 0.959678 0.765589 0.179174
H22   H     H_    0.379666 0.838099 0.828721 0.184781

loop_
_geom_bond_atom_site_label_1
_geom_bond_atom_site_label_2
_ccdc_geom_bond_type
O10   C30   S    
C8    O12   S    
C24   O11   S    
C26   O13   S    
C15   O9    S    
C4    C8    A    
C9    C25   A    
C34   H20   S    
C9    Cl1   S    
C26   C27   A    
C23   O8    A    
C3    C7    A    
C11   O14   S    
C5    C6    A    
C15   C16   A    
C30   H8    S    
C18   C19   A    
C12   O3    A    
C31   H12   S    
C29   H7    S    
C16   C17   A    
O1    Zn1   S    
C19   Cl4   S    
C29   H6    S    
O12   C32   S    
C13   C14   A    
C8    C25   A    
O7    Zn1   S    
O8    Zn2   S    
C33   H19   S    
C34   H21   S    
C18   Cl3   S    
C32   H14   S    
N1    Zn1   S    
C6    Cl6   S    
N2    Zn2   S    
O14   C34   S    
C33   H18   S    
C19   N1    A    
C21   O10   S    
C4    C5    A    
O5    Zn1   S    
C21   N2    A    
C16   H1    S    
C27   H3    S    
C32   H15   S    
O3    Zn1   S    
C2    C4    A    
O4    Zn2   S    
C31   H11   S    
O9    C29   S    
C22   O6    A    
C18   N2    A    
C10   C12   S    
C20   N1    A    
C20   Cl5   S    
C29   H5    S    
O2    Zn2   S    
C1    O1    A    
C34   H22   S    
C11   C17   A    
C7    H4    S    
C31   H13   S    
C33   H17   S    
C9    C24   A    
C6    C7    A    
C1    C17   S    
C23   O7    A    
C30   H10   S    
C32   H16   S    
C14   C22   S    
C28   H2    S    
C2    C3    A    
O13   C33   S    
C3    C10   A    
C11   C13   A    
C10   C26   A    
C13   Cl2   S    
C5    C24   A    
C22   O5    A    
C30   H9    S    
C23   C25   S    
C12   O4    A    
O11   C31   S    
O6    Zn2   S    
C20   C21   A    
C27   C28   A    
C14   C15   A    
C2    C28   A    
C1    O2    A    
