data_mof_unit_50668.cif
_audit_creation_date              2012-12-11T16:57:10-0500
_audit_creation_method            fapswitch 2.2
_symmetry_space_group_name_H-M    P1
_symmetry_Int_Tables_number       1
_space_group_crystal_system       triclinic
_cell_length_a                    14.611813
_cell_length_b                    16.143801
_cell_length_c                    6.948594
_cell_angle_alpha                 90.058235
_cell_angle_beta                  98.414513
_cell_angle_gamma                 90.23213
_cell_volume                      1621.44530597

loop_
_atom_site_label
_atom_site_type_symbol
_atom_type_description
_atom_site_fract_x
_atom_site_fract_y
_atom_site_fract_z
_atom_type_partial_charge
O1    O     O_R   0.584990 0.413650 0.534420 -0.541405
O2    O     O_R   0.584990 0.586350 0.534420 -0.544393
O3    O     O_R   0.596190 0.585230 0.208380 -0.550688
O4    O     O_R   0.596190 0.414770 0.208380 -0.547905
O5    O     O_R   0.415010 0.586420 0.976930 -0.514925
O6    O     O_R   0.415010 0.413580 0.976930 -0.514669
C1    C     C_R   0.618746 0.614390 0.384292 0.702786
C2    C     C_R   0.620315 0.387418 0.384793 0.733493
O7    O     O_3   0.440560 0.500000 0.319140 -0.349765
V1    V     V_3+5 0.511030 0.500000 0.068070 1.462544
O8    O     O_R   0.403810 0.414840 0.643540 -0.537171
O9    O     O_R   0.403810 0.585160 0.643540 -0.544910
C3    C     C_R   0.381983 0.385747 0.806459 0.799983
C4    C     C_R   0.381464 0.613776 0.806489 0.773610
V2    V     V_3+5 0.488970 0.500000 0.560620 1.473501
O10   O     O_3   0.559440 0.500000 0.859420 -0.393042
H1    H     H_    0.184918 0.803035 0.803957 0.138250
H2    H     H_    0.179878 0.200988 0.806756 0.137347
C5    C     C_2   0.310521 0.679902 0.798828 -0.392460
C6    C     C_2   0.308734 0.321535 0.799748 -0.358979
C7    C     C_2   0.291119 0.719838 0.960319 0.469596
C8    C     C_2   0.303826 0.268415 0.949105 0.466028
H3    H     H_    0.223853 0.798167 0.252267 0.167198
H4    H     H_    0.239023 0.191809 0.250324 0.162668
C9    C     C_2   0.193304 0.819090 0.109039 -0.326918
C10   C     C_2   0.199914 0.176813 0.109285 -0.342526
C11   C     C_2   0.217684 0.783740 0.947352 -0.221851
C12   C     C_2   0.222046 0.212860 0.946402 -0.256925
H5    H     H_    0.273104 0.696403 0.657317 0.109063
H6    H     H_    0.255764 0.319698 0.672524 0.084991
C13   C     C_R   0.675699 0.751252 0.535898 -0.025179
C14   C     C_R   0.700087 0.271079 0.581527 -0.000575
C15   C     C_R   0.687679 0.683415 0.415127 -0.162102
C16   C     C_R   0.692143 0.321953 0.418662 -0.152553
C17   C     C_R   0.770388 0.680164 0.333086 -0.241574
C18   C     C_R   0.754562 0.304879 0.286309 -0.281619
H7    H     H_    0.785063 0.624443 0.256761 0.140291
H8    H     H_    0.752920 0.342595 0.157222 0.136476
C19   C     C_R   0.839906 0.742395 0.370892 0.411473
C20   C     C_R   0.820479 0.238920 0.319163 0.411460
C21   C     C_R   0.823959 0.812956 0.483710 -0.257242
C22   C     C_R   0.821137 0.184510 0.481928 -0.209344
C23   C     C_R   0.742737 0.814440 0.568064 0.021563
C24   C     C_R   0.756757 0.203478 0.606060 -0.072101
C25   C     C_3   0.739764 0.815378 0.781204 0.269517
C26   C     C_3   0.709703 0.171436 0.771672 0.235271
C27   C     C_3   0.665286 0.748817 0.747639 -0.249788
C28   C     C_3   0.649470 0.250507 0.745550 -0.242235
H9    H     H_    0.806379 0.793368 0.860967 0.048254
H10   H     H_    0.756765 0.170230 0.911743 0.141374
H11   H     H_    0.686221 0.688893 0.819256 0.097186
H12   H     H_    0.663469 0.295813 0.866376 0.092232
O11   O     O_R   0.921430 0.915960 0.371040 -0.550100
O12   O     O_R   0.921430 0.084040 0.371040 -0.508440
O13   O     O_R   0.910450 0.087500 0.697310 -0.543413
O14   O     O_R   0.910450 0.912500 0.697310 -0.539818
O15   O     O_R   0.091710 0.087460 0.928430 -0.540282
O16   O     O_R   0.091710 0.912540 0.928430 -0.539516
C29   C     C_R   0.887598 0.114029 0.519216 0.709109
C30   C     C_R   0.892041 0.882582 0.521191 0.733404
O17   O     O_3   0.065970 1.000000 0.586140 -0.375633
V3    V     V_3+5 0.995640 0.000000 0.837400 1.437903
O18   O     O_R   0.103020 0.915700 0.261710 -0.545417
O19   O     O_R   0.103020 0.084300 0.261710 -0.540274
C31   C     C_R   0.124887 0.886286 0.099439 0.715831
C32   C     C_R   0.125803 0.113522 0.099845 0.763253
V4    V     V_3+5 0.017940 1.000000 0.344880 1.420127
O20   O     O_3   0.947330 0.000000 0.046180 -0.369071
O21   O     O_3   0.340340 0.703033 0.141724 -0.537350
C33   C     C_3   0.414051 0.760472 0.179390 0.103727
H13   H     H_    0.400515 0.821338 0.104200 0.135843
H14   H     H_    0.477432 0.732656 0.136518 0.149551
C34   C     C_3   0.432607 0.778290 0.394436 -0.704915
H15   H     H_    0.451734 0.719971 0.473852 0.238626
H16   H     H_    0.490368 0.823479 0.422679 0.188639
H17   H     H_    0.370638 0.805078 0.445629 0.217372
O22   O     O_3   0.377363 0.263001 0.099848 -0.536302
C35   C     C_3   0.421143 0.185049 0.091218 0.127417
H18   H     H_    0.409136 0.155650 0.943962 0.128533
H19   H     H_    0.395653 0.141656 0.195696 0.128718
C36   C     C_3   0.525054 0.195586 0.146558 -0.685544
H20   H     H_    0.549556 0.250001 0.071435 0.218867
H21   H     H_    0.542458 0.205543 0.304399 0.216470
H22   H     H_    0.561414 0.139325 0.106476 0.185371
O23   O     O_3   0.930219 0.721297 0.354012 -0.563253
C37   C     C_3   0.951497 0.739123 0.166890 0.119473
H23   H     H_    0.027486 0.747014 0.182181 0.145747
H24   H     H_    0.921856 0.798411 0.107437 0.094692
C38   C     C_3   0.926620 0.667290 0.025445 -0.779540
H25   H     H_    0.955629 0.608568 0.090941 0.236203
H26   H     H_    0.850667 0.660851 0.987014 0.194955
H27   H     H_    0.956007 0.679115 0.889337 0.204413
O24   O     O_3   0.877274 0.222922 0.180909 -0.557653
C39   C     C_3   0.945517 0.285406 0.183871 0.091805
H28   H     H_    0.008479 0.265978 0.282915 0.123084
H29   H     H_    0.923964 0.347247 0.232883 0.104155
C40   C     C_3   0.969752 0.295524 0.979486 -0.722989
H30   H     H_    0.027225 0.340847 0.981014 0.179611
H31   H     H_    0.991413 0.235294 0.924135 0.228138
H32   H     H_    0.908487 0.318202 0.880134 0.212386
O25   O     O_3   0.710096 0.893367 0.840035 -0.546284
C41   C     C_3   0.725921 0.898387 0.044559 0.110331
H33   H     H_    0.798149 0.882293 0.101852 0.118909
H34   H     H_    0.677924 0.856712 0.109551 0.112503
C42   C     C_3   0.711636 0.986606 0.107301 -0.607679
H35   H     H_    0.638070 0.004497 0.067283 0.220400
H36   H     H_    0.731619 0.991225 0.266452 0.121567
H37   H     H_    0.756923 0.029094 0.038286 0.245763
O26   O     O_3   0.652634 0.099023 0.745265 -0.553242
C43   C     C_3   0.657062 0.054522 0.572185 0.163832
H38   H     H_    0.721705 0.017637 0.589291 0.145997
H39   H     H_    0.653028 0.095279 0.442693 0.102122
C44   C     C_3   0.573721 0.996828 0.533423 -0.660210
H40   H     H_    0.509802 0.033678 0.492603 0.203458
H41   H     H_    0.582034 0.954034 0.412117 0.161717
H42   H     H_    0.565935 0.960145 0.664796 0.274383
C45   C     C_1   0.574535 0.777587 0.786020 0.347236
N1    N     N_1   0.503900 0.801979 0.817199 -0.439665
C46   C     C_1   0.550119 0.236191 0.679699 0.396883
N2    N     N_1   0.472248 0.224553 0.627661 -0.385246

loop_
_geom_bond_atom_site_label_1
_geom_bond_atom_site_label_2
_ccdc_geom_bond_type
O16   V3    S    
O18   C31   A    
O24   C39   S    
O13   C29   A    
O1    C2    A    
C1    C15   S    
C34   H15   S    
O2    C1    A    
O15   C32   A    
O4    C2    A    
C36   H22   S    
C36   H20   S    
O15   V3    S    
C19   C21   A    
C6    H6    S    
O23   C37   S    
C42   H36   S    
O25   C41   S    
C13   C23   A    
C5    C7    D    
H4    C10   S    
C28   H12   S    
O3    C1    A    
C37   H24   S    
V2    O10   S    
O13   V3    S    
C41   C42   S    
C43   H38   S    
C36   H21   S    
O8    V2    S    
C13   C15   A    
C33   H13   S    
O1    V2    S    
C38   H26   S    
O7    V1    S    
C20   O24   S    
H1    C11   S    
C16   C18   A    
O17   V3    S    
C39   H29   S    
C44   H42   S    
C20   C22   A    
C7    C11   S    
C13   C27   S    
C14   C28   S    
O21   C33   S    
C22   C24   A    
C8    C12   S    
C40   H31   S    
O11   C30   A    
C24   C26   S    
C40   H30   S    
C28   C46   S    
C26   C28   S    
O12   C29   A    
C25   C27   S    
C42   H37   S    
O18   V4    S    
V4    O20   S    
C10   C32   S    
O19   V4    S    
C18   C20   A    
C9    C31   S    
C21   C30   S    
C37   H23   S    
C27   H11   S    
O12   V4    S    
C39   C40   S    
O22   C35   S    
O14   C30   A    
C7    O21   S    
O19   C32   A    
C17   C19   A    
O17   V4    S    
O16   C31   A    
O9    V2    S    
C25   H9    S    
C33   C34   S    
C14   C24   A    
H2    C12   S    
C39   H28   S    
C2    C16   S    
C38   H27   S    
C41   H34   S    
O2    V2    S    
C23   C25   S    
C43   C44   S    
O5    C4    A    
C25   O25   S    
O9    C4    A    
C34   H17   S    
O14   V3    S    
C34   H16   S    
O4    V1    S    
C5    H5    S    
C40   H32   S    
C44   H40   S    
C3    C6    S    
C17   H7    S    
C35   H18   S    
C4    C5    S    
C21   C23   A    
C8    O22   S    
C6    C8    D    
C37   C38   S    
C22   C29   S    
O6    V1    S    
C46   N2    T    
C9    C11   D    
C42   H35   S    
C26   H10   S    
C10   C12   D    
V3    O20   S    
C18   H8    S    
O7    V2    S    
O5    V1    S    
O3    V1    S    
V1    O10   S    
C45   N1    T    
O6    C3    A    
O8    C3    A    
C35   C36   S    
C15   C17   A    
C35   H19   S    
H3    C9    S    
C41   H33   S    
O11   V4    S    
C43   H39   S    
C27   C45   S    
C26   O26   S    
C19   O23   S    
C33   H14   S    
C38   H25   S    
O26   C43   S    
C14   C16   A    
C44   H41   S    
