data_mof_unit_24644.cif
_audit_creation_date              2012-12-10T19:24:56-0500
_audit_creation_method            fapswitch 2.2
_symmetry_space_group_name_H-M    P1
_symmetry_Int_Tables_number       1
_space_group_crystal_system       triclinic
_cell_length_a                    15.711041
_cell_length_b                    10.481402
_cell_length_c                    9.755861
_cell_angle_alpha                 90.815873
_cell_angle_beta                  89.888984
_cell_angle_gamma                 89.98409
_cell_volume                      1606.36811972

loop_
_atom_site_label
_atom_site_type_symbol
_atom_type_description
_atom_site_fract_x
_atom_site_fract_y
_atom_site_fract_z
_atom_type_partial_charge
C1    C     C_R   0.502072 0.257681 0.498875 0.863350
C2    C     C_R   0.497928 0.742319 0.501125 0.863350
C3    C     C_3   0.579831 0.954018 0.486089 -0.227359
C4    C     C_3   0.420169 0.045982 0.513911 -0.227361
C5    C     C_3   0.497718 0.877203 0.503442 -0.030103
C6    C     C_3   0.502282 0.122797 0.496558 -0.030102
C7    C     C_3   0.467415 0.964959 0.619853 0.166494
C8    C     C_3   0.532585 0.035041 0.380147 0.166494
C9    C     C_3   0.457259 0.404320 0.047332 -0.077876
C10   C     C_3   0.542741 0.595680 0.952668 -0.077877
C11   C     C_3   0.533852 0.396609 0.949645 -0.075184
C12   C     C_3   0.466148 0.603391 0.050355 -0.075184
C13   C     C_3   0.423334 0.507743 0.951860 -0.070506
C14   C     C_3   0.576666 0.492257 0.048139 -0.070505
C15   C     C_R   0.338059 0.499870 0.500094 0.899981
C16   C     C_R   0.661941 0.500130 0.499906 0.899981
C17   C     C_3   0.971244 0.404183 0.578777 -0.213660
C18   C     C_3   0.028756 0.595816 0.421223 -0.213661
C19   C     C_3   0.027431 0.388890 0.449756 0.162850
C20   C     C_3   0.972569 0.611109 0.550244 0.162851
C21   C     C_1   0.249129 0.499684 0.500367 -0.200288
C22   C     C_1   0.750871 0.500315 0.499633 -0.200288
C23   C     C_3   0.028072 0.516141 0.629909 -0.211995
C24   C     C_3   0.971928 0.483859 0.370091 -0.211995
C25   C     C_3   0.082915 0.499579 0.500312 0.147635
C26   C     C_3   0.917085 0.500421 0.499688 0.147634
C27   C     C_1   0.173812 0.499580 0.500478 -0.090581
C28   C     C_1   0.826187 0.500420 0.499522 -0.090581
C29   C     C_3   0.549282 0.043794 0.603628 -0.213068
C30   C     C_3   0.450718 0.956206 0.396372 -0.213068
H1    H     H_    0.945927 0.325563 0.642123 0.135941
H2    H     H_    0.054073 0.674436 0.357878 0.135942
H3    H     H_    0.947120 0.470010 0.264449 0.133002
H4    H     H_    0.052880 0.529990 0.735551 0.133001
H5    H     H_    0.644457 0.912122 0.475232 0.128022
H6    H     H_    0.355543 0.087878 0.524767 0.128022
H7    H     H_    0.589213 0.083492 0.687781 0.139392
H8    H     H_    0.410787 0.916507 0.312219 0.139391
H9    H     H_    0.562326 0.309485 0.902447 0.114494
H10   H     H_    0.437674 0.690514 0.097553 0.114494
H11   H     H_    0.421366 0.323674 0.092075 0.116136
H12   H     H_    0.578634 0.676326 0.907925 0.116137
H13   H     H_    0.358735 0.514367 0.906623 0.123411
H14   H     H_    0.641264 0.485633 0.093377 0.123411
N1    N     N_3   0.499940 0.500030 0.863290 -0.071948
N2    N     N_3   0.500060 0.499970 0.136710 -0.071948
O1    O     O_R   0.500000 0.313960 0.616610 -0.625046
O2    O     O_R   0.500000 0.686040 0.383390 -0.625046
O3    O     O_R   0.500040 0.313950 0.383350 -0.631410
O4    O     O_R   0.499960 0.686050 0.616650 -0.631409
O5    O     O_R   0.376760 0.499990 0.616610 -0.620517
O6    O     O_R   0.623240 0.500010 0.383390 -0.620517
O7    O     O_R   0.376790 0.499980 0.383350 -0.611908
O8    O     O_R   0.623210 0.500020 0.616650 -0.611908
Zn1   Zn    Zn3+2 0.499980 0.500010 0.655740 0.928221
Zn2   Zn    Zn3+2 0.500020 0.499990 0.344260 0.928221
C31   C     C_3   0.061847 0.262348 0.393176 -0.430114
C32   C     C_3   0.989324 0.173247 0.349017 -0.332707
C33   C     C_3   0.023676 0.045591 0.296025 -0.893587
H15   H     H_    0.063766 0.059950 0.203609 0.260416
H16   H     H_    0.062286 0.998885 0.376216 0.260418
H17   H     H_    0.969802 0.981785 0.268253 0.247405
H18   H     H_    0.946409 0.155917 0.437433 0.217219
H19   H     H_    0.951546 0.218337 0.266539 0.217636
H20   H     H_    0.103688 0.281928 0.303943 0.201427
H21   H     H_    0.100511 0.216446 0.474049 0.201227
C34   C     C_3   0.938153 0.737652 0.606824 -0.430111
C35   C     C_3   0.010675 0.826750 0.650991 -0.332703
C36   C     C_3   0.976323 0.954406 0.703982 -0.893558
H22   H     H_    0.937717 0.001115 0.623785 0.260413
H23   H     H_    0.936227 0.940043 0.796394 0.260412
H24   H     H_    0.030198 0.018210 0.731766 0.247399
H25   H     H_    0.048450 0.781658 0.733472 0.217631
H26   H     H_    0.053594 0.844080 0.562579 0.217218
H27   H     H_    0.899491 0.783556 0.525949 0.201225
H28   H     H_    0.896309 0.718070 0.696054 0.201425
C37   C     C_3   0.430310 0.923455 0.757267 -0.405095
C38   C     C_3   0.398508 0.038651 0.841486 -0.335143
C39   C     C_3   0.365486 0.998087 0.981403 -0.920186
H29   H     H_    0.310696 0.931992 0.969055 0.262372
H30   H     H_    0.416472 0.949811 0.039602 0.260422
H31   H     H_    0.344311 0.083495 0.040884 0.247661
H32   H     H_    0.450912 0.108587 0.856459 0.220500
H33   H     H_    0.346159 0.086758 0.785800 0.220908
H34   H     H_    0.376625 0.856678 0.737651 0.199544
H35   H     H_    0.480453 0.872521 0.815215 0.212193
C40   C     C_3   0.569690 0.076546 0.242732 -0.405094
C41   C     C_3   0.601492 0.961350 0.158514 -0.335143
C42   C     C_3   0.634512 0.001915 0.018596 -0.920192
H36   H     H_    0.583524 0.050186 0.960397 0.260423
H37   H     H_    0.689300 0.068014 0.030941 0.262373
H38   H     H_    0.655691 0.916508 0.959116 0.247663
H39   H     H_    0.653843 0.913245 0.214198 0.220908
H40   H     H_    0.549089 0.891413 0.143542 0.220502
H41   H     H_    0.519546 0.127478 0.184785 0.212193
H42   H     H_    0.623374 0.143324 0.262349 0.199544

loop_
_geom_bond_atom_site_label_1
_geom_bond_atom_site_label_2
_ccdc_geom_bond_type
C40   C41   S    
C4    H6    S    
C7    C29   S    
C10   H12   S    
C20   C34   S    
C31   H21   S    
C14   N2    S    
C37   C38   S    
C19   C31   S    
C17   C23   S    
C18   C24   S    
C17   C26   S    
C15   O7    A    
O1    Zn1   S    
C24   C26   S    
C11   C14   S    
C35   H26   S    
C30   H8    S    
C36   H23   S    
C3    C29   S    
C9    C13   S    
C2    O4    A    
O8    Zn1   S    
C38   H32   S    
C35   C36   S    
C40   H41   S    
O4    Zn1   S    
C15   O5    A    
C42   H37   S    
C18   C20   S    
C7    C37   S    
C21   C27   T    
C37   H34   S    
C33   H15   S    
C22   C28   T    
C18   C25   S    
C4    C7    S    
C32   H19   S    
C41   H40   S    
C33   H16   S    
C34   C35   S    
C4    C6    S    
C3    C8    S    
C10   C14   S    
C5    C7    S    
C38   C39   S    
C1    O1    A    
C6    C8    S    
C2    O2    A    
C32   C33   S    
C1    C6    S    
C12   H10   S    
C36   H24   S    
C20   C23   S    
C3    H5    S    
C23   H4    S    
C40   H42   S    
C10   N1    S    
C41   C42   S    
C42   H38   S    
C11   H9    S    
C9    C11   S    
C10   C12   S    
C12   N2    S    
C37   H35   S    
C17   H1    S    
C11   N1    S    
C2    C5    S    
C18   H2    S    
N2    Zn2   S    
C13   H13   S    
C39   H30   S    
C5    C30   S    
O7    Zn2   S    
C32   H18   S    
O2    Zn2   S    
C41   H39   S    
C33   H17   S    
C16   C22   S    
C9    H11   S    
C16   O6    A    
C31   H20   S    
C3    C5    S    
C39   H31   S    
C25   C27   S    
O3    Zn2   S    
C26   C28   S    
C24   H3    S    
C8    C40   S    
C8    C30   S    
C19   C24   S    
C35   H25   S    
C13   N1    S    
C31   C32   S    
C15   C21   S    
C20   C26   S    
C17   C19   S    
C14   H14   S    
O5    Zn1   S    
C23   C25   S    
C36   H22   S    
C19   C25   S    
C16   O8    A    
C39   H29   S    
C38   H33   S    
C9    N2    S    
C6    C29   S    
C34   H27   S    
C12   C13   S    
N1    Zn1   S    
C29   H7    S    
C34   H28   S    
C42   H36   S    
C1    O3    A    
C4    C30   S    
O6    Zn2   S    
