data_mof_unit_10770.cif
_audit_creation_date              2012-12-10T18:46:17-0500
_audit_creation_method            fapswitch 2.2
_symmetry_space_group_name_H-M    P1
_symmetry_Int_Tables_number       1
_space_group_crystal_system       triclinic
_cell_length_a                    9.856056
_cell_length_b                    10.705099
_cell_length_c                    13.085261
_cell_angle_alpha                 90.719802
_cell_angle_beta                  69.968434
_cell_angle_gamma                 89.762548
_cell_volume                      1296.94949546

loop_
_atom_site_label
_atom_site_type_symbol
_atom_type_description
_atom_site_fract_x
_atom_site_fract_y
_atom_site_fract_z
_atom_type_partial_charge
C1    C     C_R   0.502094 0.739964 0.495642 0.873372
C2    C     C_R   0.431172 0.446011 0.983100 -0.114048
C3    C     C_R   0.463066 0.426124 0.871844 -0.066438
C4    C     C_R   0.544158 0.433574 0.025876 -0.087030
C5    C     C_R   0.670126 0.362559 0.968108 -0.103789
C6    C     C_R   0.684977 0.316220 0.862795 0.525445
C7    C     C_R   0.585390 0.353217 0.814494 -0.232880
C8    C     C_R   0.537998 0.498018 0.121417 0.530899
C9    C     C_R   0.743551 0.377516 0.128263 -0.105665
C10   C     C_R   0.369406 0.476817 0.822119 -0.142312
C11   C     C_R   0.637068 0.937025 0.444465 -0.009895
C12   C     C_R   0.420156 0.493735 0.704353 0.916365
C13   C     C_R   0.634427 0.065510 0.449106 -0.237609
C14   C     C_R   0.502653 0.128114 0.494689 -0.028826
C15   C     C_R   0.372350 0.064727 0.533566 -0.196880
C16   C     C_R   0.373873 0.937048 0.530412 -0.195779
C17   C     C_R   0.505490 0.872769 0.488905 -0.072711
C18   C     C_R   0.953142 0.408163 0.447101 -0.024744
C19   C     C_R   0.097347 0.409149 0.445821 -0.011244
C20   C     C_R   0.043226 0.586175 0.560647 0.069135
C21   C     C_R   0.900555 0.587882 0.558219 -0.076710
C22   C     C_R   0.500597 0.260148 0.499040 0.848325
C23   C     C_R   0.580062 0.493385 0.295163 0.910789
C24   C     C_R   0.772758 0.337867 0.019655 -0.069082
C25   C     C_R   0.628248 0.461509 0.178260 -0.278917
C26   C     C_R   0.231589 0.519969 0.886375 -0.420988
C27   C     C_R   0.186167 0.513332 0.000819 0.486019
C28   C     C_R   0.284931 0.470052 0.048428 0.557534
H1    H     H_    0.734447 0.116685 0.416061 0.162351
H2    H     H_    0.269888 0.113645 0.568118 0.168451
H3    H     H_    0.272189 0.889048 0.562493 0.181194
H4    H     H_    0.917600 0.332236 0.408386 0.138024
H5    H     H_    0.171588 0.335269 0.404729 0.124069
H6    H     H_    0.823152 0.656968 0.605558 0.131870
H7    H     H_    0.159509 0.554452 0.846563 0.199474
H8    H     H_    0.602388 0.318988 0.732924 0.180910
N1    N     N_R   0.142790 0.500030 0.500030 -0.097474
N2    N     N_R   0.857180 0.499940 0.500010 -0.084260
O1    O     O_R   0.385370 0.683250 0.500010 -0.608347
O2    O     O_R   0.614700 0.683220 0.500010 -0.615639
O3    O     O_R   0.328400 0.499990 0.653620 -0.605796
O4    O     O_R   0.557730 0.499960 0.653620 -0.621312
O5    O     O_R   0.385300 0.316780 0.499990 -0.636769
O6    O     O_R   0.614630 0.316750 0.499990 -0.636773
O7    O     O_R   0.442270 0.500040 0.346380 -0.549932
O8    O     O_R   0.671600 0.500010 0.346380 -0.597478
Zn1   Zn    Zn3+2 0.346870 0.500020 0.500000 0.993203
Zn2   Zn    Zn3+2 0.653130 0.499980 0.500000 0.970048
C29   C     C_1   0.823767 0.320466 0.189584 0.290840
N3    N     N_1   0.888067 0.271537 0.236845 -0.257460
C30   C     C_1   0.078012 0.668616 0.635423 0.175347
N4    N     N_1   0.104093 0.734074 0.697151 -0.255061
O9    O     O_3   0.803030 0.244949 0.801914 -0.606307
C31   C     C_3   0.758867 0.120194 0.798678 -0.334063
H9    H     H_    0.685187 0.110925 0.750947 0.162766
H10   H     H_    0.706910 0.082930 0.882047 0.152833
H11   H     H_    0.855871 0.061675 0.757459 0.203402
C32   C     C_1   0.905722 0.268816 0.965213 0.305167
N5    N     N_1   0.012134 0.214195 0.922344 -0.208146
O10   O     O_3   0.438957 0.594302 0.162061 -0.547087
C33   C     C_3   0.508368 0.708156 0.124580 -0.329604
H12   H     H_    0.549327 0.711096 0.034055 0.150573
H13   H     H_    0.597792 0.725168 0.156674 0.139281
H14   H     H_    0.428602 0.785312 0.154864 0.203359
O11   O     O_3   0.232286 0.437855 0.157097 -0.533178
C34   C     C_3   0.235686 0.306045 0.163657 -0.275260
H15   H     H_    0.344510 0.273018 0.159315 0.148872
H16   H     H_    0.202376 0.257660 0.100079 0.148184
H17   H     H_    0.158130 0.277104 0.242708 0.177959
O12   O     O_3   0.045215 0.537765 0.069638 -0.567252
C35   C     C_3   0.976424 0.632456 0.030668 -0.284611
H18   H     H_    0.934272 0.593955 0.968275 0.162429
H19   H     H_    0.048453 0.713469 0.998973 0.160264
H20   H     H_    0.882087 0.667576 0.099417 0.190147
C36   C     C_1   0.774545 0.875176 0.391022 0.165027
N6    N     N_1   0.884520 0.825811 0.348190 -0.176571

loop_
_geom_bond_atom_site_label_1
_geom_bond_atom_site_label_2
_ccdc_geom_bond_type
C34   H16   S    
C23   O7    A    
C7    H8    S    
C4    C8    A    
C9    C25   A    
O9    C31   S    
C16   H3    S    
C26   C27   A    
C13   H1    S    
C20   C30   S    
C3    C7    A    
C5    C6    A    
C34   H17   S    
C15   C16   A    
C18   C19   A    
C33   H13   S    
C12   O4    A    
C19   N1    A    
C1    O2    A    
C22   O6    A    
C21   N2    A    
C16   C17   A    
O12   C35   S    
N1    Zn1   S    
N2    Zn2   S    
C10   C26   A    
C34   H15   S    
C23   O8    A    
C13   C14   A    
C8    C25   A    
O8    Zn2   S    
O7    Zn1   S    
C31   H10   S    
C30   N4    T    
C9    C29   S    
C19   H5    S    
C35   H19   S    
C21   H6    S    
C32   N5    T    
O10   C33   S    
C33   H14   S    
C2    C4    A    
C36   N6    T    
C12   O3    A    
C22   O5    A    
O3    Zn1   S    
O4    Zn2   S    
C27   O12   S    
C10   C12   S    
C29   N3    T    
C18   H4    S    
C6    O9    S    
C15   H2    S    
O1    Zn1   S    
O2    Zn2   S    
C31   H9    S    
C11   C17   A    
C4    C5    A    
C35   H20   S    
C9    C24   A    
C6    C7    A    
C1    C17   S    
C14   C22   S    
C2    C3    A    
C18   N2    A    
C35   H18   S    
C3    C10   A    
C11   C36   S    
C8    O10   S    
C20   N1    A    
C11   C13   A    
C5    C24   A    
C28   O11   S    
C23   C25   S    
C33   H12   S    
C1    O1    A    
C26   H7    S    
C20   C21   A    
C24   C32   S    
O11   C34   S    
C27   C28   A    
C14   C15   A    
C2    C28   A    
O5    Zn1   S    
O6    Zn2   S    
C31   H11   S    
