data_mof_unit_62190.cif
_audit_creation_date              2012-12-10T18:26:49-0500
_audit_creation_method            fapswitch 2.2
_symmetry_space_group_name_H-M    P1
_symmetry_Int_Tables_number       1
_space_group_crystal_system       triclinic
_cell_length_a                    25.900597
_cell_length_b                    25.842732
_cell_length_c                    22.160258
_cell_angle_alpha                 89.961728
_cell_angle_beta                  54.312735
_cell_angle_gamma                 89.980267
_cell_volume                      12047.3897702

loop_
_atom_site_label
_atom_site_type_symbol
_atom_type_description
_atom_site_fract_x
_atom_site_fract_y
_atom_site_fract_z
_atom_type_partial_charge
Br1   Br    Br    0.349268 0.764708 0.665115 -0.458228
Br2   Br    Br    0.370351 0.326134 0.085568 -0.518965
Br3   Br    Br    0.887884 0.157258 0.085848 -0.523896
Br4   Br    Br    0.881584 0.837560 0.085591 -0.520302
Br5   Br    Br    0.569393 0.745700 0.090714 -0.535910
Br6   Br    Br    0.566049 0.278076 0.090772 -0.545819
Br7   Br    Br    0.069389 0.245616 0.090717 -0.532539
Br8   Br    Br    0.068782 0.762505 0.090765 -0.541488
Br9   Br    Br    0.640329 0.941001 0.657017 -0.448382
Br10  Br    Br    0.653617 0.063999 0.663959 -0.430164
Br11  Br    Br    0.141687 0.440844 0.657840 -0.446539
Br12  Br    Br    0.348238 0.241112 0.666896 -0.455890
Br13  Br    Br    0.154594 0.563886 0.664217 -0.428949
Br14  Br    Br    0.765564 0.566941 0.357292 -0.477462
Br15  Br    Br    0.802172 0.448111 0.341970 -0.458700
Br16  Br    Br    0.265536 0.066944 0.357305 -0.478402
Br17  Br    Br    0.302158 0.948115 0.341972 -0.459794
Br18  Br    Br    0.737957 0.555925 0.637338 -0.440433
Br19  Br    Br    0.703363 0.434509 0.655974 -0.421443
Br20  Br    Br    0.237982 0.055924 0.637320 -0.440070
Br21  Br    Br    0.203380 0.934510 0.655966 -0.420077
Br22  Br    Br    0.849260 0.264593 0.665143 -0.457218
Br23  Br    Br    0.848241 0.741074 0.666884 -0.456658
Br24  Br    Br    0.408927 0.647863 0.583110 -0.458361
Br25  Br    Br    0.413221 0.354616 0.574884 -0.468111
Br26  Br    Br    0.909000 0.147796 0.582920 -0.459036
Br27  Br    Br    0.913201 0.854600 0.574933 -0.469108
Br28  Br    Br    0.387958 0.657192 0.085849 -0.524751
C1    C     C_R   0.849372 0.750040 0.301173 0.828189
C2    C     C_3   0.549973 0.249911 0.502178 0.066646
C3    C     C_3   0.232096 0.968820 0.444578 0.356376
C4    C     C_3   0.817162 0.529471 0.460978 -0.392957
C5    C     C_3   0.815429 0.470794 0.472441 -0.406185
C6    C     C_3   0.317163 0.029471 0.460963 -0.393431
C7    C     C_3   0.315432 0.970795 0.472428 -0.406228
C8    C     C_3   0.706532 0.530398 0.580452 0.061759
C9    C     C_3   0.700157 0.470520 0.579779 0.054926
C10   C     C_3   0.206541 0.030398 0.580450 0.061696
C11   C     C_3   0.200164 0.970521 0.579778 0.054901
C12   C     C_3   0.748508 0.551026 0.498566 -0.076269
C13   C     C_3   0.050281 0.249648 0.501645 0.063669
C14   C     C_3   0.749129 0.448956 0.499146 -0.067780
C15   C     C_3   0.248508 0.051026 0.498564 -0.076081
C16   C     C_3   0.249129 0.948956 0.499143 -0.067754
C17   C     C_R   0.749418 0.891309 0.500609 0.823365
C18   C     C_R   0.748053 0.108738 0.501760 0.836909
C19   C     C_R   0.249337 0.391307 0.500678 0.823323
C20   C     C_R   0.248030 0.608738 0.501786 0.836230
C21   C     C_R   0.891167 0.750072 0.500298 0.843201
C22   C     C_R   0.891372 0.249629 0.499929 0.841635
C23   C     C_R   0.391165 0.250070 0.500302 0.843108
C24   C     C_3   0.049975 0.749912 0.502172 0.066254
C25   C     C_R   0.391374 0.749624 0.499924 0.841703
C26   C     C_R   0.608430 0.750395 0.500686 0.816682
C27   C     C_R   0.608207 0.249305 0.501136 0.811850
C28   C     C_R   0.108428 0.250399 0.500692 0.816892
C29   C     C_R   0.108208 0.749306 0.501133 0.811908
C30   C     C_3   0.563110 0.779368 0.432742 -0.421961
C31   C     C_3   0.561207 0.216842 0.436526 -0.422379
C32   C     C_3   0.063092 0.279411 0.432782 -0.421021
C33   C     C_3   0.061216 0.716856 0.436506 -0.422275
C34   C     C_3   0.503837 0.778988 0.432814 -0.511750
C35   C     C_3   0.448561 0.748159 0.500992 -0.030846
C36   C     C_3   0.502188 0.217653 0.436119 -0.513316
C37   C     C_3   0.003812 0.279048 0.432865 -0.511393
C38   C     C_3   0.002199 0.717671 0.436095 -0.512479
C39   C     C_3   0.533905 0.691974 0.495198 -0.062258
C40   C     C_3   0.536460 0.307070 0.489771 -0.050832
C41   C     C_3   0.033935 0.191984 0.495145 -0.062715
C42   C     C_3   0.036452 0.807074 0.489784 -0.050577
C43   C     C_3   0.372719 0.758939 0.059950 -0.802797
C44   C     C_3   0.376891 0.220735 0.059914 -0.798603
C45   C     C_3   0.872733 0.259027 0.059946 -0.802894
C46   C     C_3   0.448322 0.251373 0.501382 -0.029746
C47   C     C_3   0.873676 0.734047 0.059903 -0.800235
C48   C     C_3   0.642240 0.739697 0.922508 -0.740275
C49   C     C_3   0.637985 0.281483 0.922545 -0.740243
C50   C     C_3   0.142230 0.239617 0.922509 -0.738536
C51   C     C_3   0.141287 0.767625 0.922538 -0.739267
C52   C     C_3   0.519118 0.658887 0.068790 -0.817892
C53   C     C_3   0.499144 0.350141 0.068536 -0.812417
C54   C     C_3   0.019041 0.158854 0.068793 -0.816794
C55   C     C_3   0.012522 0.844682 0.068591 -0.815088
C56   C     C_3   0.868399 0.949525 0.454058 -0.843899
C57   C     C_3   0.948562 0.248167 0.500993 -0.031191
C58   C     C_3   0.872219 0.059503 0.430395 -0.863815
C59   C     C_3   0.368899 0.449265 0.451809 -0.844934
C60   C     C_3   0.372291 0.559371 0.429280 -0.864727
C61   C     C_3   0.651127 0.546458 0.492631 -0.896868
C62   C     C_3   0.674361 0.439554 0.456430 -0.859753
C63   C     C_3   0.151112 0.046455 0.492657 -0.896794
C64   C     C_3   0.174350 0.939554 0.456443 -0.859855
C65   C     C_3   0.591556 0.661251 0.430257 -0.873148
C66   C     C_3   0.595428 0.333863 0.420869 -0.891850
C67   C     C_3   0.091610 0.161280 0.430204 -0.872300
C68   C     C_3   0.948324 0.751376 0.501376 -0.030258
C69   C     C_3   0.095415 0.833876 0.420885 -0.892217
C70   C     C_3   0.481534 0.660903 0.429748 -0.840771
C71   C     C_3   0.484241 0.335659 0.423032 -0.837578
C72   C     C_3   0.981653 0.160988 0.429570 -0.840818
C73   C     C_3   0.984216 0.835684 0.423069 -0.839999
C74   C     C_3   0.474143 0.747031 0.647811 -0.735095
C75   C     C_3   0.473745 0.259505 0.647893 -0.727356
C76   C     C_3   0.974141 0.246960 0.647821 -0.734987
C77   C     C_3   0.973744 0.759481 0.647890 -0.728211
C78   C     C_3   0.508282 0.832319 0.584697 -0.865897
C79   C     C_3   0.472127 0.690345 0.496810 0.422137
C80   C     C_3   0.504220 0.171453 0.593460 -0.871391
C81   C     C_3   0.008230 0.332280 0.584791 -0.867063
C82   C     C_3   0.004237 0.671437 0.593425 -0.872204
C83   C     C_3   0.474353 0.308846 0.492060 0.418256
C84   C     C_3   0.972179 0.190358 0.496714 0.422215
C85   C     C_R   0.849385 0.249971 0.301182 0.821620
C86   C     C_3   0.974340 0.808852 0.492081 0.419415
C87   C     C_3   0.433490 0.777915 0.571373 0.094764
C88   C     C_3   0.432025 0.224637 0.574335 0.096893
C89   C     C_3   0.933468 0.277873 0.571419 0.094672
C90   C     C_3   0.932033 0.724623 0.574316 0.096893
C91   C     C_3   0.477231 0.718744 0.955648 -0.461361
C92   C     C_3   0.471928 0.270983 0.955543 -0.462474
C93   C     C_3   0.977209 0.218788 0.955647 -0.461236
C94   C     C_3   0.975211 0.777882 0.955545 -0.461145
C95   C     C_3   0.524450 0.803848 0.957336 -0.384859
C96   C     C_R   0.349371 0.250042 0.301174 0.829415
C97   C     C_3   0.535734 0.197802 0.957469 -0.381977
C98   C     C_3   0.024497 0.303852 0.957335 -0.384571
C99   C     C_3   0.028336 0.696449 0.957450 -0.383463
C100  C     C_3   0.486170 0.803414 0.043119 -0.454145
C101  C     C_3   0.497237 0.199216 0.043255 -0.456546
C102  C     C_3   0.986217 0.303415 0.043118 -0.453796
C103  C     C_3   0.989990 0.697234 0.043235 -0.454877
C104  C     C_1   0.389621 0.749322 0.221911 -0.066392
C105  C     C_1   0.389524 0.250715 0.221901 -0.067684
C106  C     C_1   0.889620 0.249325 0.221911 -0.066207
C107  C     C_R   0.349385 0.749970 0.301182 0.821602
C108  C     C_1   0.889566 0.750716 0.221901 -0.067531
C109  C     C_3   0.540408 0.747788 0.926493 0.177608
C110  C     C_3   0.540060 0.252732 0.926484 0.175967
C111  C     C_3   0.040408 0.247792 0.926492 0.177381
C112  C     C_3   0.040319 0.752396 0.926483 0.175806
C113  C     C_R   0.650633 0.750017 0.698815 0.852372
C114  C     C_R   0.650642 0.249973 0.698821 0.854955
C115  C     C_R   0.150633 0.250018 0.698815 0.852195
C116  C     C_R   0.150645 0.749973 0.698821 0.855011
C117  C     C_3   0.429035 0.724123 0.041672 0.395757
C118  C     C_3   0.491795 0.776001 0.576250 0.231384
C119  C     C_3   0.424928 0.264649 0.041573 0.393629
C120  C     C_3   0.929017 0.224172 0.041669 0.395563
C121  C     C_3   0.927383 0.772160 0.041576 0.394081
C122  C     C_3   0.465764 0.746928 0.073371 0.169790
C123  C     C_3   0.465207 0.253358 0.073356 0.170944
C124  C     C_3   0.965764 0.246934 0.073371 0.169470
C125  C     C_3   0.965573 0.753201 0.073356 0.170283
C126  C     C_3   0.529838 0.716153 0.043974 0.381253
C127  C     C_3   0.521800 0.293777 0.043898 0.378921
C128  C     C_3   0.029811 0.216120 0.043975 0.380543
C129  C     C_3   0.490286 0.227110 0.579262 0.230696
C130  C     C_3   0.027326 0.787437 0.043915 0.379757
C131  C     C_3   0.574826 0.718542 0.955664 -0.061412
C132  C     C_3   0.567312 0.291579 0.955597 -0.059601
C133  C     C_3   0.074800 0.218505 0.955665 -0.062372
C134  C     C_3   0.072511 0.785090 0.955611 -0.060709
C135  C     C_1   0.423753 0.748416 0.155171 0.018027
C136  C     C_1   0.423494 0.251705 0.155159 0.017770
C137  C     C_1   0.923753 0.248422 0.155171 0.017937
C138  C     C_1   0.923646 0.751657 0.155159 0.018040
C139  C     C_1   0.579490 0.748768 0.844832 -0.045201
C140  C     C_3   0.991776 0.275964 0.576288 0.231891
C141  C     C_1   0.579398 0.251414 0.844827 -0.042807
C142  C     C_1   0.079490 0.248771 0.844831 -0.045053
C143  C     C_1   0.079493 0.751284 0.844826 -0.043009
C144  C     C_1   0.611745 0.749425 0.778093 -0.094556
C145  C     C_1   0.611763 0.250592 0.778092 -0.088539
C146  C     C_1   0.111745 0.249427 0.778092 -0.094199
C147  C     C_1   0.111781 0.750565 0.778092 -0.088685
C148  C     C_3   0.818597 0.969954 0.442227 -0.073180
C149  C     C_3   0.816475 0.030552 0.437605 -0.037744
C150  C     C_3   0.318323 0.469934 0.441427 -0.071973
C151  C     C_3   0.990293 0.727097 0.579246 0.231480
C152  C     C_3   0.316210 0.530554 0.437087 -0.037600
C153  C     C_3   0.705063 0.970278 0.481534 -0.428156
C154  C     C_3   0.700173 0.029636 0.488616 -0.454315
C155  C     C_3   0.204196 0.470270 0.482800 -0.429135
C156  C     C_3   0.199556 0.529651 0.489623 -0.454377
C157  C     C_3   0.724926 0.969554 0.580493 0.108866
C158  C     C_3   0.729632 0.029688 0.578881 0.102177
C159  C     C_3   0.225857 0.469562 0.580227 0.109178
C160  C     C_3   0.230378 0.529703 0.578622 0.102693
C161  C     C_R   0.749772 0.608757 0.499540 0.913292
C162  C     C_3   0.550283 0.749642 0.501637 0.064314
C163  C     C_R   0.750118 0.391242 0.500517 0.900991
C164  C     C_R   0.249772 0.108757 0.499539 0.913476
C165  C     C_R   0.250117 0.891242 0.500516 0.901030
C166  C     C_3   0.749662 0.949018 0.501491 0.018028
C167  C     C_3   0.748783 0.051046 0.502068 0.023198
C168  C     C_3   0.249596 0.449017 0.501553 0.018002
C169  C     C_3   0.248750 0.551045 0.502125 0.022968
C170  C     C_3   0.721955 0.530470 0.453808 0.337429
C171  C     C_3   0.732105 0.468819 0.444572 0.356187
C172  C     C_3   0.221943 0.030470 0.453818 0.337547
H1    H     H_    0.603568 0.761979 0.380220 0.211039
H2    H     H_    0.454957 0.249130 0.926890 0.198387
H3    H     H_    0.140916 0.280192 0.939612 0.270742
H4    H     H_    0.166088 0.215156 0.940682 0.269500
H5    H     H_    0.171243 0.769121 0.860923 0.249124
H6    H     H_    0.163336 0.794367 0.940662 0.269316
H7    H     H_    0.142788 0.727673 0.939753 0.270336
H8    H     H_    0.507472 0.634536 0.037166 0.250323
H9    H     H_    0.563558 0.642361 0.057563 0.259520
H10   H     H_    0.481272 0.654962 0.129207 0.269166
H11   H     H_    0.483073 0.368189 0.036822 0.250954
H12   H     H_    0.460626 0.352409 0.128937 0.269634
H13   H     H_    0.956381 0.233644 0.926973 0.198721
H14   H     H_    0.539288 0.374429 0.057278 0.259875
H15   H     H_    0.007376 0.134526 0.037168 0.250660
H16   H     H_    0.063467 0.142296 0.057568 0.259471
H17   H     H_    0.981191 0.154937 0.129210 0.269098
H18   H     H_    0.999234 0.866984 0.036892 0.251148
H19   H     H_    0.974398 0.848064 0.128994 0.268982
H20   H     H_    0.055678 0.863955 0.057347 0.259640
H21   H     H_    0.867153 0.906803 0.457863 0.243604
H22   H     H_    0.917202 0.959280 0.405646 0.247878
H23   H     H_    0.860861 0.965742 0.504946 0.267084
H24   H     H_    0.955533 0.760564 0.926884 0.198313
H25   H     H_    0.918477 0.044539 0.382356 0.251313
H26   H     H_    0.871577 0.101127 0.418616 0.220578
H27   H     H_    0.870272 0.056157 0.481572 0.273021
H28   H     H_    0.367619 0.406527 0.455398 0.242101
H29   H     H_    0.417441 0.459043 0.402850 0.248411
H30   H     H_    0.362191 0.465276 0.502344 0.267011
H31   H     H_    0.418362 0.544513 0.380779 0.251667
H32   H     H_    0.371501 0.601064 0.417934 0.220668
H33   H     H_    0.370935 0.555751 0.480044 0.272214
H34   H     H_    0.618496 0.527872 0.547529 0.219380
H35   H     H_    0.568455 0.827124 0.933108 0.208753
H36   H     H_    0.644500 0.588814 0.500110 0.268213
H37   H     H_    0.634786 0.536179 0.457725 0.269451
H38   H     H_    0.630963 0.442330 0.514091 0.229861
H39   H     H_    0.663761 0.454261 0.417675 0.269777
H40   H     H_    0.685277 0.397914 0.443279 0.240869
H41   H     H_    0.118488 0.027868 0.547555 0.219349
H42   H     H_    0.144482 0.088811 0.500139 0.268230
H43   H     H_    0.134762 0.036177 0.457760 0.269445
H44   H     H_    0.130955 0.942327 0.514106 0.229870
H45   H     H_    0.163744 0.954261 0.417693 0.269716
H46   H     H_    0.583867 0.181697 0.933306 0.209158
H47   H     H_    0.185267 0.897914 0.443288 0.240905
H48   H     H_    0.607499 0.675936 0.374958 0.254808
H49   H     H_    0.632891 0.662556 0.433050 0.246471
H50   H     H_    0.579149 0.619691 0.434196 0.261082
H51   H     H_    0.608772 0.316935 0.367687 0.255873
H52   H     H_    0.586120 0.375815 0.421053 0.261035
H53   H     H_    0.637578 0.331065 0.421833 0.233129
H54   H     H_    0.107608 0.176006 0.374905 0.255240
H55   H     H_    0.132910 0.162549 0.433066 0.246552
H56   H     H_    0.079202 0.119725 0.434078 0.260956
H57   H     H_    0.068522 0.327100 0.933108 0.209069
H58   H     H_    0.108750 0.816961 0.367700 0.255780
H59   H     H_    0.086106 0.875830 0.421087 0.260953
H60   H     H_    0.137571 0.831068 0.421834 0.233182
H61   H     H_    0.519662 0.677765 0.375514 0.227606
H62   H     H_    0.493177 0.619598 0.429993 0.260795
H63   H     H_    0.437301 0.660988 0.432752 0.221831
H64   H     H_    0.520726 0.316361 0.370136 0.228524
H65   H     H_    0.439571 0.336182 0.426988 0.216251
H66   H     H_    0.498357 0.376738 0.419294 0.260122
H67   H     H_    0.019824 0.177877 0.375379 0.227979
H68   H     H_    0.073912 0.675518 0.933289 0.209601
H69   H     H_    0.993272 0.119670 0.429775 0.260768
H70   H     H_    0.937459 0.161127 0.432498 0.221660
H71   H     H_    0.020700 0.816398 0.370161 0.228311
H72   H     H_    0.939544 0.836215 0.427028 0.216104
H73   H     H_    0.998331 0.876762 0.419350 0.259984
H74   H     H_    0.456297 0.707405 0.651950 0.263421
H75   H     H_    0.514330 0.745341 0.652528 0.236495
H76   H     H_    0.436297 0.768034 0.698509 0.266655
H77   H     H_    0.458616 0.299396 0.647479 0.262820
H78   H     H_    0.434399 0.241263 0.700472 0.265924
H79   H     H_    0.496234 0.823408 0.940748 0.193762
H80   H     H_    0.513412 0.260924 0.653526 0.238785
H81   H     H_    0.956312 0.207333 0.651921 0.263358
H82   H     H_    0.014325 0.245271 0.652541 0.236475
H83   H     H_    0.936284 0.267940 0.698539 0.266679
H84   H     H_    0.958610 0.799371 0.647490 0.262830
H85   H     H_    0.934402 0.741230 0.700463 0.265681
H86   H     H_    0.013412 0.760899 0.653522 0.238757
H87   H     H_    0.550086 0.833172 0.586790 0.239164
H88   H     H_    0.518047 0.858017 0.539097 0.225101
H89   H     H_    0.467620 0.849871 0.637062 0.267385
H90   H     H_    0.512390 0.171039 0.940924 0.195523
H91   H     H_    0.546109 0.170912 0.595400 0.235220
H92   H     H_    0.462881 0.156492 0.647591 0.268326
H93   H     H_    0.512599 0.143463 0.550756 0.226021
H94   H     H_    0.050038 0.333137 0.586876 0.238809
H95   H     H_    0.017974 0.357999 0.539219 0.225203
H96   H     H_    0.967560 0.349804 0.637176 0.267346
H97   H     H_    0.046124 0.670897 0.595368 0.235008
H98   H     H_    0.962900 0.656466 0.647549 0.268230
H99   H     H_    0.012624 0.643455 0.550709 0.226071
H100  H     H_    0.996298 0.323441 0.940744 0.193885
H101  H     H_    0.602749 0.231330 0.382327 0.212920
H102  H     H_    0.001618 0.674317 0.940888 0.194405
H103  H     H_    0.444436 0.829563 0.067788 0.199138
H104  H     H_    0.461582 0.167497 0.067990 0.200300
H105  H     H_    0.944504 0.329588 0.067786 0.199316
H106  H     H_    0.950192 0.669045 0.067951 0.199986
H107  H     H_    0.515466 0.820949 0.059380 0.241049
H108  H     H_    0.529342 0.189912 0.059567 0.239730
H109  H     H_    0.015526 0.320918 0.059380 0.241256
H110  H     H_    0.020424 0.682442 0.059552 0.240471
H111  H     H_    0.583599 0.678512 0.932939 0.169208
H112  H     H_    0.103547 0.262042 0.380241 0.212105
H113  H     H_    0.567874 0.330179 0.932746 0.170891
H114  H     H_    0.083538 0.178478 0.932940 0.169390
H115  H     H_    0.078463 0.824824 0.932786 0.171022
H116  H     H_    0.577971 0.819916 0.431055 0.206308
H117  H     H_    0.573627 0.176250 0.439324 0.203633
H118  H     H_    0.077947 0.319957 0.431129 0.206437
H119  H     H_    0.073641 0.676263 0.439291 0.203747
H120  H     H_    0.487879 0.677199 0.940035 0.200893
H121  H     H_    0.473899 0.312204 0.939830 0.201584
H122  H     H_    0.987822 0.177241 0.940034 0.201066
H123  H     H_    0.102759 0.731352 0.382313 0.213154
H124  H     H_    0.982905 0.819520 0.939842 0.202307
H125  H     H_    0.833984 0.954351 0.387176 0.164046
H126  H     H_    0.822520 0.039395 0.384553 0.172480
H127  H     H_    0.332882 0.454460 0.386630 0.164235
H128  H     H_    0.321755 0.539557 0.384363 0.172414
H129  H     H_    0.724002 0.959385 0.423466 0.197818
H130  H     H_    0.709109 0.046071 0.436871 0.202620
H131  H     H_    0.222293 0.459251 0.425038 0.197538
H132  H     H_    0.208045 0.546002 0.438065 0.202268
H133  H     H_    0.755404 0.954353 0.596638 0.156171
H134  H     H_    0.523942 0.670998 0.544577 0.201011
H135  H     H_    0.767919 0.039941 0.585199 0.145439
H136  H     H_    0.257031 0.454459 0.595424 0.156162
H137  H     H_    0.268966 0.540073 0.584358 0.145631
H138  H     H_    0.489203 0.819786 0.434424 0.210813
H139  H     H_    0.485558 0.177100 0.441108 0.209308
H140  H     H_    0.989151 0.319849 0.434550 0.210901
H141  H     H_    0.985579 0.677118 0.441061 0.209570
H142  H     H_    0.656754 0.953048 0.517894 0.226878
H143  H     H_    0.651003 0.040913 0.535087 0.233503
H144  H     H_    0.155905 0.453140 0.519972 0.226612
H145  H     H_    0.528314 0.330649 0.536367 0.199721
H146  H     H_    0.150568 0.541061 0.536422 0.233083
H147  H     H_    0.847079 0.538134 0.400474 0.246941
H148  H     H_    0.855146 0.452680 0.419979 0.237474
H149  H     H_    0.347072 0.038133 0.400459 0.246602
H150  H     H_    0.355146 0.952680 0.419965 0.237305
H151  H     H_    0.658001 0.547154 0.611009 0.151593
H152  H     H_    0.651431 0.461949 0.596706 0.127813
H153  H     H_    0.158010 0.047156 0.611016 0.151625
H154  H     H_    0.151434 0.961950 0.596714 0.127804
H155  H     H_    0.841094 0.548116 0.483769 0.222671
H156  H     H_    0.023958 0.170990 0.544519 0.201075
H157  H     H_    0.824825 0.462323 0.514455 0.234120
H158  H     H_    0.341104 0.048117 0.483743 0.222596
H159  H     H_    0.324834 0.962325 0.514437 0.234088
H160  H     H_    0.515892 0.763032 0.379541 0.220568
H161  H     H_    0.515292 0.231524 0.381441 0.220978
H162  H     H_    0.015870 0.263143 0.379566 0.221060
H163  H     H_    0.015304 0.731558 0.381424 0.221593
H164  H     H_    0.425915 0.818922 0.562736 0.138178
H165  H     H_    0.423059 0.183283 0.569088 0.139707
H166  H     H_    0.925853 0.318884 0.562848 0.138095
H167  H     H_    0.028307 0.830647 0.536385 0.199715
H168  H     H_    0.923080 0.683270 0.569048 0.139745
H169  H     H_    0.340569 0.767391 0.120355 0.246231
H170  H     H_    0.388714 0.795990 0.028935 0.218708
H171  H     H_    0.344305 0.739149 0.043904 0.270125
H172  H     H_    0.346505 0.212082 0.120342 0.248560
H173  H     H_    0.345197 0.232456 0.043783 0.269071
H174  H     H_    0.400581 0.184594 0.029010 0.219437
H175  H     H_    0.840591 0.267481 0.120351 0.246251
H176  H     H_    0.888761 0.296078 0.028931 0.219031
H177  H     H_    0.844305 0.239267 0.043898 0.269775
H178  H     H_    0.456390 0.733569 0.926976 0.198782
H179  H     H_    0.842112 0.725491 0.120326 0.247779
H180  H     H_    0.843970 0.751162 0.043785 0.269652
H181  H     H_    0.892316 0.697120 0.028975 0.218845
H182  H     H_    0.672288 0.738116 0.860898 0.249094
H183  H     H_    0.640894 0.780277 0.939611 0.270505
H184  H     H_    0.666120 0.715264 0.940679 0.269317
H185  H     H_    0.667754 0.282816 0.860929 0.247842
H186  H     H_    0.656072 0.312279 0.940636 0.269637
H187  H     H_    0.644861 0.243316 0.939807 0.270191
H188  H     H_    0.172276 0.238036 0.860899 0.248954
O1    O     O_3   0.750010 0.750010 0.500000 -0.504797
O2    O     O_R   0.740870 0.133130 0.457020 -0.657689
O3    O     O_R   0.240870 0.366870 0.457020 -0.654438
O4    O     O_R   0.240870 0.633130 0.457020 -0.657726
O5    O     O_R   0.862620 0.719400 0.336030 -0.618290
O6    O     O_R   0.862620 0.280600 0.336030 -0.616449
O7    O     O_R   0.362620 0.219400 0.336030 -0.620212
O8    O     O_R   0.362620 0.780600 0.336030 -0.616616
O9    O     O_R   0.698690 0.780630 0.663960 -0.590183
O10   O     O_R   0.698690 0.219370 0.663960 -0.587711
O11   O     O_R   0.198690 0.280630 0.663960 -0.589843
O12   O     O_3   0.750010 0.249990 0.500000 -0.507720
O13   O     O_R   0.198690 0.719370 0.663960 -0.587970
O14   O     O_R   0.801340 0.780670 0.336040 -0.630805
O15   O     O_R   0.801340 0.219330 0.336040 -0.631359
O16   O     O_R   0.301340 0.280670 0.336040 -0.630008
O17   O     O_R   0.301340 0.719330 0.336040 -0.631272
O18   O     O_R   0.637410 0.719360 0.663970 -0.638617
O19   O     O_R   0.637410 0.280640 0.663970 -0.632813
O20   O     O_R   0.137410 0.219360 0.663970 -0.638730
O21   O     O_R   0.137410 0.780640 0.663970 -0.632701
O22   O     O_R   0.802130 0.633170 0.457010 -0.621812
O23   O     O_3   0.250010 0.250010 0.500000 -0.504750
O24   O     O_R   0.802130 0.366830 0.457010 -0.624742
O25   O     O_R   0.302130 0.133170 0.457010 -0.622103
O26   O     O_R   0.302130 0.866830 0.457010 -0.624778
O27   O     O_R   0.759170 0.866860 0.542980 -0.619090
O28   O     O_R   0.759170 0.133140 0.542980 -0.607493
O29   O     O_R   0.259170 0.366860 0.542980 -0.618153
O30   O     O_R   0.259170 0.633140 0.542980 -0.607289
O31   O     O_R   0.888360 0.719380 0.456990 -0.658352
O32   O     O_R   0.888360 0.280620 0.456990 -0.657732
O33   O     O_R   0.388360 0.219380 0.456990 -0.658705
O34   O     O_3   0.250010 0.749990 0.500000 -0.507681
O35   O     O_R   0.388360 0.780620 0.456990 -0.657818
O36   O     O_R   0.654640 0.780660 0.457030 -0.641335
O37   O     O_R   0.654640 0.219340 0.457030 -0.643469
O38   O     O_R   0.154640 0.280660 0.457030 -0.641004
O39   O     O_R   0.154640 0.719340 0.457030 -0.643478
O40   O     O_R   0.845390 0.780640 0.542970 -0.564642
O41   O     O_R   0.845390 0.219360 0.542970 -0.563435
O42   O     O_R   0.345390 0.280640 0.542970 -0.564450
O43   O     O_R   0.345390 0.719360 0.542970 -0.563440
O44   O     O_R   0.611660 0.719380 0.543010 -0.663944
O45   O     O_R   0.697880 0.633160 0.542990 -0.649488
O46   O     O_R   0.611660 0.280620 0.543010 -0.662527
O47   O     O_R   0.111660 0.219380 0.543010 -0.664021
O48   O     O_R   0.111660 0.780620 0.543010 -0.662548
O49   O     O_R   0.697880 0.366840 0.542990 -0.630771
O50   O     O_R   0.197880 0.133160 0.542990 -0.649426
O51   O     O_R   0.197880 0.866840 0.542990 -0.630753
O52   O     O_R   0.740870 0.866870 0.457020 -0.653757
Zn1   Zn    Zn3+2 0.675530 0.706240 0.561430 0.988639
Zn2   Zn    Zn3+2 0.763090 0.206230 0.561410 1.067401
Zn3   Zn    Zn3+2 0.263090 0.293770 0.561410 1.062317
Zn4   Zn    Zn3+2 0.263090 0.706230 0.561410 1.067408
Zn5   Zn    Zn3+2 0.736940 0.793790 0.438590 0.979476
Zn6   Zn    Zn3+2 0.736940 0.206210 0.438590 0.971212
Zn7   Zn    Zn3+2 0.236940 0.293790 0.438590 0.979896
Zn8   Zn    Zn3+2 0.236940 0.706210 0.438590 0.971064
Zn9   Zn    Zn3+2 0.675530 0.293760 0.561430 0.991884
Zn10  Zn    Zn3+2 0.175530 0.206240 0.561430 0.988604
Zn11  Zn    Zn3+2 0.175530 0.793760 0.561430 0.991898
Zn12  Zn    Zn3+2 0.824490 0.706250 0.438570 1.012287
Zn13  Zn    Zn3+2 0.824490 0.293750 0.438570 1.008291
Zn14  Zn    Zn3+2 0.324490 0.206250 0.438570 1.011008
Zn15  Zn    Zn3+2 0.324490 0.793750 0.438570 1.008059
Zn16  Zn    Zn3+2 0.763090 0.793770 0.561410 1.061589

loop_
_geom_bond_atom_site_label_1
_geom_bond_atom_site_label_2
_ccdc_geom_bond_type
C157  H133  S    
C125  C138  S    
O28   Zn2   S    
C164  O50   A    
Br23  C90   S    
C124  C137  S    
O7    Zn14  S    
C48   C131  S    
O12   Zn2   S    
C122  C135  S    
Br28  C117  S    
C96   C105  S    
C61   H36   S    
C52   H10   S    
C56   H21   S    
C48   H184  S    
C80   H91   S    
C95   H79   S    
C6    C7    S    
C9    C14   S    
C121  C125  S    
O34   Zn15  S    
Br19  C9    S    
C19   O3    A    
C20   O4    A    
C63   H41   S    
C26   O36   A    
C21   O40   A    
O51   Zn11  S    
C123  C127  S    
O49   Zn9   S    
Br6   C127  S    
O22   Zn12  S    
C94   H24   S    
C68   C86   S    
C97   H46   S    
O37   Zn6   S    
C115  O11   A    
C3    C172  S    
C40   H145  S    
C72   H69   S    
C98   C111  S    
C73   H72   S    
C21   O31   A    
C42   H167  S    
C62   H38   S    
C45   C120  S    
O1    Zn5   S    
C78   H87   S    
C94   C121  S    
C78   H89   S    
C55   H18   S    
C75   C129  S    
C49   H185  S    
O12   Zn9   S    
C59   H29   S    
C93   H13   S    
C155  C156  S    
C13   C28   S    
C61   C170  S    
C76   H81   S    
C6    H149  S    
C103  C125  S    
C64   H45   S    
C155  H131  S    
C155  C168  S    
C106  C137  T    
Br24  C79   S    
O34   Zn11  S    
C57   C89   S    
C153  C166  S    
C96   O16   A    
O48   Zn11  S    
C132  H113  S    
C47   H179  S    
C100  C122  S    
C53   H11   S    
C103  H106  S    
C32   C37   S    
C102  C124  S    
C78   H88   S    
C92   C110  S    
C13   C41   S    
C142  C146  T    
C17   C166  S    
C87   H164  S    
C149  C167  S    
O11   Zn3   S    
C25   O35   A    
C41   C67   S    
C56   H23   S    
C66   H52   S    
C32   H112  S    
C80   H93   S    
C62   C171  S    
C97   C110  S    
C160  H137  S    
C24   C33   S    
O2    Zn6   S    
C34   H138  S    
C104  C135  T    
C10   C15   S    
C45   H176  S    
C39   H134  S    
C158  H135  S    
C51   H7    S    
C82   H98   S    
C89   H166  S    
O34   Zn8   S    
C107  O8    A    
C99   C103  S    
C54   H15   S    
C110  C132  S    
C59   H28   S    
O52   Zn5   S    
Br1   C87   S    
C43   H170  S    
C159  H136  S    
C101  H104  S    
C92   H2    S    
C57   C84   S    
O18   Zn1   S    
C60   H33   S    
C87   C118  S    
O12   Zn6   S    
O4    Zn8   S    
O21   Zn11  S    
C5    C14   S    
O31   Zn12  S    
C115  O20   A    
O8    Zn15  S    
C76   H83   S    
C10   C11   S    
C33   C38   S    
C89   C140  S    
C112  C134  S    
C48   H182  S    
C91   H178  S    
C125  C130  S    
C18   C167  S    
O43   Zn4   S    
C114  O19   A    
Br7   C128  S    
Br21  C11   S    
C163  O24   A    
O9    Zn16  S    
C1    O5    A    
C44   H172  S    
C117  C122  S    
Br16  C172  S    
C28   O38   A    
C85   O15   A    
C110  C141  S    
C58   H27   S    
C75   H80   S    
C77   C151  S    
C69   H58   S    
C114  C145  S    
O46   Zn9   S    
C31   H101  S    
O41   Zn2   S    
O13   Zn4   S    
C19   O29   A    
C124  C128  S    
C50   H3    S    
C85   O6    A    
C100  H103  S    
C80   C129  S    
C81   H95   S    
Br2   C119  S    
C51   H5    S    
C150  C168  S    
C27   O37   A    
C40   C66   S    
C119  C123  S    
C81   C140  S    
C97   C101  S    
C55   H19   S    
C70   H62   S    
C71   C83   S    
C2    C31   S    
C1    C108  S    
C36   H161  S    
C6    H158  S    
O23   Zn7   S    
C63   C172  S    
O27   Zn16  S    
C43   C117  S    
C15   C164  S    
O1    Zn16  S    
C4    H147  S    
C99   C112  S    
C30   H116  S    
C65   H50   S    
C32   H118  S    
C116  O21   A    
C33   H119  S    
O17   Zn8   S    
O35   Zn15  S    
C26   C162  S    
C52   H8    S    
C6    C15   S    
C120  C124  S    
C13   C32   S    
C44   H173  S    
C128  C133  S    
C42   C69   S    
C161  O45   A    
C11   C16   S    
C163  O49   A    
C112  C143  S    
C44   C119  S    
C95   C109  S    
C53   C127  S    
O20   Zn10  S    
C93   C111  S    
C24   C151  S    
C35   C87   S    
C126  C131  S    
C56   H22   S    
C80   H92   S    
C54   H17   S    
C12   C170  S    
C82   C151  S    
C47   C121  S    
C10   H153  S    
Br10  C158  S    
O39   Zn8   S    
C2    C40   S    
Br25  C83   S    
C22   O32   A    
C50   C133  S    
C123  C136  S    
C5    H148  S    
C39   C65   S    
C58   H25   S    
C141  C145  T    
C154  C167  S    
C75   H78   S    
C107  O17   A    
C67   H56   S    
C69   H60   S    
Br12  C88   S    
C30   C34   S    
C2    C129  S    
C71   H66   S    
C159  C168  S    
Br22  C89   S    
C23   C46   S    
C157  C166  S    
Br8   C130  S    
C99   H102  S    
C39   C162  S    
C43   H171  S    
C36   H139  S    
C72   H70   S    
C153  C154  S    
C73   H71   S    
C16   C165  S    
C62   H39   S    
O34   Zn4   S    
C14   C171  S    
C101  C123  S    
C41   C84   S    
C98   C102  S    
O15   Zn6   S    
Br5   C126  S    
C13   C140  S    
C37   H162  S    
C91   H120  S    
C22   C57   S    
C76   H82   S    
C14   C163  S    
C12   C161  S    
C133  H114  S    
O50   Zn10  S    
C74   H75   S    
C4    H155  S    
C49   H186  S    
O16   Zn7   S    
C73   C86   S    
O10   Zn2   S    
C60   C152  S    
C154  H143  S    
C99   H68   S    
C109  C131  S    
C41   H156  S    
C61   H37   S    
C19   C168  S    
C111  C133  S    
C165  O51   A    
C66   H53   S    
C46   C83   S    
C48   H183  S    
O38   Zn7   S    
C58   C149  S    
C70   C79   S    
C17   O52   A    
C29   O39   A    
C28   O47   A    
C153  H142  S    
C45   H175  S    
C92   H121  S    
C63   H42   S    
C82   H99   S    
C38   H141  S    
C93   C120  S    
C67   H54   S    
O23   Zn14  S    
C54   H16   S    
C81   H96   S    
C71   H64   S    
C72   C84   S    
C85   C106  S    
Br17  C3    S    
C20   O30   A    
C51   C134  S    
C105  C136  T    
Br26  C84   S    
C109  C139  S    
O32   Zn13  S    
C43   H169  S    
C38   C68   S    
C49   H187  S    
C26   O44   A    
C50   H188  S    
C8    C9    S    
C98   H57   S    
C150  C152  S    
C150  H127  S    
C52   C126  S    
C139  C144  T    
C102  H105  S    
C91   C117  S    
C59   H30   S    
C2    C27   S    
Br9   C157  S    
C4    C5    S    
C159  C160  S    
O23   Zn3   S    
O33   Zn14  S    
C59   C150  S    
C157  C158  S    
C55   C130  S    
C108  C138  T    
C160  C169  S    
O1    Zn12  S    
C101  H108  S    
C113  O18   A    
C149  H126  S    
C134  H115  S    
C31   H117  S    
C24   C29   S    
C49   C132  S    
C94   C112  S    
C47   H180  S    
C60   H31   S    
C92   C119  S    
C156  C169  S    
C1    O14   A    
C36   C46   S    
C11   H154  S    
C115  C146  S    
C148  C166  S    
C56   C148  S    
Br18  C8    S    
C153  H129  S    
C9    H152  S    
C94   H124  S    
C52   H9    S    
C164  O25   A    
C23   O42   A    
C113  O9    A    
C18   O2    A    
C25   C35   S    
C33   H123  S    
O24   Zn13  S    
C18   O28   A    
C66   H51   S    
O44   Zn1   S    
C42   C86   S    
Br4   C121  S    
Br14  C170  S    
C31   C36   S    
C34   C35   S    
Br11  C159  S    
C68   C90   S    
C50   H4    S    
C45   H177  S    
C27   O46   A    
C23   O33   A    
C98   H100  S    
C81   H94   S    
C82   H97   S    
C77   H84   S    
O45   Zn1   S    
C25   O43   A    
C111  C142  S    
O25   Zn14  S    
C7    H150  S    
C152  C169  S    
C131  H111  S    
C88   H165  S    
O12   Zn13  S    
C30   H1    S    
C116  O13   A    
C29   O48   A    
O14   Zn5   S    
C170  C171  S    
C156  H132  S    
C77   H85   S    
C97   H90   S    
O1    Zn1   S    
C148  H125  S    
C54   C128  S    
C90   C151  S    
O5    Zn12  S    
Br3   C120  S    
C100  H107  S    
C8    H151  S    
C73   H73   S    
C70   H63   S    
C64   H47   S    
C65   H49   S    
O26   Zn15  S    
C103  H110  S    
C3    C16   S    
C91   C109  S    
C158  C167  S    
C8    C12   S    
C15   C172  S    
C44   H174  S    
C155  H144  S    
C154  H130  S    
C143  C147  T    
C113  C144  S    
C74   H74   S    
O36   Zn5   S    
C165  O26   A    
C40   C83   S    
C61   H34   S    
O6    Zn13  S    
C30   C162  S    
C65   H48   S    
O42   Zn3   S    
C76   C140  S    
Br20  C10   S    
C96   O7    A    
C53   H14   S    
C17   O27   A    
C38   H163  S    
C46   C88   S    
C156  H146  S    
C7    C16   S    
O3    Zn7   S    
C22   O41   A    
C5    H157  S    
C148  C149  S    
C63   H43   S    
C7    H159  S    
C58   H26   S    
C95   H35   S    
C75   H77   S    
C35   C79   S    
C67   H55   S    
C69   H59   S    
C71   H65   S    
C60   H32   S    
C127  C132  S    
C53   H12   S    
C114  O10   A    
C37   C57   S    
C152  H128  S    
C72   H67   S    
C51   H6    S    
C77   H86   S    
C78   C118  S    
C62   H40   S    
C20   C169  S    
C161  O22   A    
O19   Zn9   S    
C88   C129  S    
O29   Zn3   S    
O23   Zn10  S    
C74   C118  S    
O30   Zn4   S    
C55   H20   S    
C64   H44   S    
C70   H61   S    
C39   C79   S    
C95   C100  S    
C104  C107  S    
C116  C147  S    
Br15  C171  S    
O40   Zn16  S    
C34   H160  S    
C4    C12   S    
C21   C68   S    
C24   C42   S    
C130  C134  S    
Br27  C86   S    
C93   H122  S    
C3    C64   S    
C122  C126  S    
C90   H168  S    
Br13  C160  S    
C118  C162  S    
C37   H140  S    
C74   H76   S    
C102  H109  S    
C47   H181  S    
O47   Zn10  S    
