data_mof_unit_10710.cif
_audit_creation_date              2012-12-11T14:54:43-0500
_audit_creation_method            fapswitch 2.2
_symmetry_space_group_name_H-M    P1
_symmetry_Int_Tables_number       1
_space_group_crystal_system       triclinic
_cell_length_a                    19.016698
_cell_length_b                    10.908667
_cell_length_c                    18.825481
_cell_angle_alpha                 89.844471
_cell_angle_beta                  90.351764
_cell_angle_gamma                 90.271848
_cell_volume                      3905.15464214

loop_
_atom_site_label
_atom_site_type_symbol
_atom_type_description
_atom_site_fract_x
_atom_site_fract_y
_atom_site_fract_z
_atom_type_partial_charge
C1    C     C_R   0.728373 0.374189 0.644735 0.546188
C2    C     C_R   0.269517 0.377210 0.353569 0.546774
C3    C     C_R   0.228372 0.874187 0.644734 0.546187
C4    C     C_R   0.769518 0.877209 0.353570 0.546774
C5    C     C_3   0.405220 0.278054 0.487330 -0.270653
C6    C     C_3   0.427750 0.278075 0.564597 -0.269243
C7    C     C_3   0.905234 0.778093 0.487324 -0.270651
C8    C     C_3   0.927764 0.778112 0.564592 -0.269245
C9    C     C_R   0.712569 0.847911 0.540697 -0.214249
C10   C     C_R   0.311588 0.923105 0.468292 -0.190836
C11   C     C_R   0.212564 0.347918 0.540695 -0.214249
C12   C     C_R   0.811589 0.423125 0.468294 -0.190839
C13   C     C_R   0.714108 0.830342 0.467896 -0.168891
C14   C     C_R   0.305079 0.911927 0.541267 -0.125291
C15   C     C_R   0.214103 0.330351 0.467894 -0.168891
C16   C     C_R   0.805080 0.411945 0.541270 -0.125307
C17   C     C_R   0.749378 0.914556 0.424041 -0.019941
C18   C     C_R   0.238510 0.898697 0.570260 0.019883
C19   C     C_R   0.249376 0.414562 0.424039 -0.019942
C20   C     C_R   0.738510 0.398700 0.570261 0.019899
C21   C     C_R   0.780307 0.019156 0.452563 -0.131594
C22   C     C_R   0.178498 0.896480 0.526507 -0.120255
C23   C     C_R   0.280307 0.519159 0.452562 -0.131592
C24   C     C_R   0.678500 0.396474 0.526507 -0.120245
C25   C     C_R   0.783651 0.033660 0.525722 0.261615
C26   C     C_R   0.183889 0.913600 0.453779 0.250344
C27   C     C_R   0.283654 0.533660 0.525721 0.261613
C28   C     C_R   0.683891 0.413596 0.453779 0.250342
C29   C     C_R   0.747345 0.948768 0.570040 0.028754
C30   C     C_R   0.251249 0.924998 0.424457 0.038336
C31   C     C_R   0.247344 0.448771 0.570039 0.028753
C32   C     C_R   0.751250 0.425004 0.424459 0.038339
C33   C     C_R   0.511011 0.056524 0.966806 -0.194345
C34   C     C_R   0.506212 0.057592 0.039040 -0.193102
C35   C     C_R   0.011021 0.556524 0.966809 -0.194344
C36   C     C_R   0.006222 0.557594 0.039043 -0.193101
C37   C     C_R   0.498671 0.167859 0.075622 0.019518
C38   C     C_R   0.508708 0.165724 0.927726 0.015308
C39   C     C_R   0.998675 0.667860 0.075624 0.019518
C40   C     C_R   0.008712 0.665724 0.927728 0.015307
C41   C     C_R   0.501502 0.281224 0.038694 0.268013
C42   C     C_R   0.501548 0.279848 0.963004 0.265879
C43   C     C_R   0.001503 0.781225 0.038695 0.268015
C44   C     C_R   0.001549 0.779848 0.963006 0.265878
C45   C     C_R   0.563851 0.150905 0.639132 0.557489
C46   C     C_R   0.469019 0.155353 0.352838 0.549229
C47   C     C_R   0.063850 0.650905 0.639132 0.557489
C48   C     C_R   0.969019 0.655353 0.352838 0.549227
C49   C     C_R   0.791789 0.019538 0.972803 -0.110952
C50   C     C_R   0.208095 0.018870 0.027069 -0.110089
C51   C     C_R   0.291788 0.519539 0.972803 -0.110952
C52   C     C_R   0.708095 0.518871 0.027069 -0.110091
C53   C     C_R   0.791424 0.011005 0.045654 -0.142389
C54   C     C_R   0.208555 0.010101 0.954228 -0.141645
C55   C     C_R   0.291423 0.511005 0.045654 -0.142389
C56   C     C_R   0.708556 0.510102 0.954228 -0.141646
C57   C     C_R   0.748515 0.924164 0.078603 0.036523
C58   C     C_R   0.251253 0.923466 0.921597 0.035949
C59   C     C_R   0.248514 0.424164 0.078603 0.036524
C60   C     C_R   0.751253 0.423466 0.921597 0.035949
C61   C     C_R   0.698089 0.859175 0.038683 -0.134970
C62   C     C_R   0.301249 0.858677 0.961868 -0.133401
C63   C     C_R   0.198089 0.359175 0.038683 -0.134971
C64   C     C_R   0.801248 0.358676 0.961868 -0.133400
C65   C     C_R   0.696385 0.871497 0.965163 -0.139892
C66   C     C_R   0.302876 0.871198 0.035358 -0.137458
C67   C     C_R   0.196385 0.371497 0.965163 -0.139894
C68   C     C_R   0.802876 0.371197 0.035358 -0.137457
C69   C     C_R   0.745315 0.948430 0.931738 0.048477
C70   C     C_R   0.254296 0.948188 0.068458 0.047445
C71   C     C_R   0.245315 0.448430 0.931738 0.048477
C72   C     C_R   0.754296 0.448188 0.068458 0.047445
C73   C     C_R   0.740180 0.975633 0.645110 0.557286
C74   C     C_R   0.258910 0.969271 0.352547 0.576225
C75   C     C_R   0.240179 0.475635 0.645110 0.557282
C76   C     C_R   0.758911 0.469272 0.352548 0.576228
C77   C     C_R   0.730646 0.380081 0.851652 0.548134
C78   C     C_R   0.269280 0.380508 0.148446 0.550273
C79   C     C_R   0.230646 0.880081 0.851652 0.548134
C80   C     C_R   0.769280 0.880508 0.148446 0.550274
C81   C     C_R   0.532209 0.157351 0.853883 0.580115
C82   C     C_R   0.469286 0.158054 0.147194 0.570982
C83   C     C_R   0.032210 0.657351 0.853884 0.580118
C84   C     C_R   0.969287 0.658054 0.147195 0.570980
C85   C     C_R   0.739972 0.976126 0.856479 0.556851
C86   C     C_R   0.259946 0.976416 0.143592 0.559505
C87   C     C_R   0.239972 0.476126 0.856479 0.556851
C88   C     C_R   0.759946 0.476416 0.143592 0.559506
C89   C     C_R   0.504726 0.166392 0.420768 0.049507
C90   C     C_R   0.545412 0.158741 0.564348 0.012471
C91   C     C_R   0.004728 0.666391 0.420768 0.049505
C92   C     C_R   0.045412 0.658740 0.564348 0.012471
C93   C     C_R   0.479698 0.251762 0.469179 0.022957
C94   C     C_R   0.500309 0.249793 0.539606 0.007799
C95   C     C_R   0.979709 0.751773 0.469175 0.022972
C96   C     C_R   0.000319 0.749803 0.539602 0.007797
C97   C     C_R   0.574961 0.077175 0.515412 -0.159133
C98   C     C_R   0.554933 0.080825 0.443676 -0.135527
C99   C     C_R   0.074953 0.577161 0.515415 -0.159136
C100  C     C_R   0.054927 0.580812 0.443678 -0.135537
Cr1   Cr    Cr6+3 0.771950 0.169480 0.750100 1.021505
Cr2   Cr    Cr6+3 0.228050 0.169480 0.249900 1.010629
Cr3   Cr    Cr6+3 0.271950 0.669480 0.750100 1.021514
Cr4   Cr    Cr6+3 0.728050 0.669480 0.249900 1.010628
Cr5   Cr    Cr6+3 0.614930 0.323340 0.749170 0.999197
Cr6   Cr    Cr6+3 0.385070 0.323340 0.250830 0.997340
Cr7   Cr    Cr6+3 0.114930 0.823340 0.749170 0.999196
Cr8   Cr    Cr6+3 0.885070 0.823340 0.250830 0.997340
Cr9   Cr    Cr6+3 0.616590 0.010620 0.750610 1.002366
Cr10  Cr    Cr6+3 0.383410 0.010620 0.249390 1.005008
Cr11  Cr    Cr6+3 0.116590 0.510620 0.750610 1.002363
Cr12  Cr    Cr6+3 0.883410 0.510620 0.249390 1.005008
H1    H     H_    0.610504 0.007233 0.533479 0.134166
H2    H     H_    0.575090 0.012626 0.407482 0.129417
H3    H     H_    0.110489 0.507209 0.533484 0.134169
H4    H     H_    0.075077 0.512603 0.407486 0.129420
H5    H     H_    0.828517 0.066042 0.075804 0.105587
H6    H     H_    0.171797 0.065070 0.923821 0.105838
H7    H     H_    0.328517 0.566043 0.075805 0.105586
H8    H     H_    0.671798 0.565071 0.923821 0.105838
H9    H     H_    0.389591 0.368454 0.466597 0.147814
H10   H     H_    0.403977 0.202014 0.595914 0.149031
H11   H     H_    0.889616 0.868497 0.466587 0.147808
H12   H     H_    0.903981 0.702062 0.595910 0.149032
H13   H     H_    0.684891 0.782770 0.574039 0.128187
H14   H     H_    0.363660 0.937489 0.446663 0.139136
H15   H     H_    0.184884 0.282780 0.574037 0.128187
H16   H     H_    0.863659 0.437519 0.446666 0.139136
H17   H     H_    0.807015 0.084458 0.418461 0.127131
H18   H     H_    0.127022 0.881139 0.548931 0.132578
H19   H     H_    0.307019 0.584458 0.418461 0.127133
H20   H     H_    0.627023 0.381124 0.548931 0.132575
H21   H     H_    0.517497 0.967969 0.941788 0.150675
H22   H     H_    0.505979 0.969701 0.066046 0.149104
H23   H     H_    0.017511 0.467970 0.941792 0.150676
H24   H     H_    0.005992 0.469703 0.066050 0.149102
O1    O     O_R   0.787510 0.042610 0.670410 -0.468088
O2    O     O_R   0.212490 0.042610 0.329590 -0.483877
O3    O     O_R   0.287510 0.542610 0.670410 -0.468092
O4    O     O_R   0.712490 0.542610 0.329590 -0.483880
O5    O     O_R   0.556450 0.252890 0.823790 -0.486628
O6    O     O_R   0.443550 0.252890 0.176210 -0.491752
O7    O     O_R   0.056450 0.752890 0.823790 -0.486629
O8    O     O_R   0.943550 0.752890 0.176210 -0.491752
O9    O     O_R   0.545750 0.051070 0.830560 -0.529838
O10   O     O_R   0.454250 0.051070 0.169440 -0.531472
O11   O     O_R   0.045750 0.551070 0.830560 -0.529838
O12   O     O_R   0.954250 0.551070 0.169440 -0.531470
O13   O     O_R   0.681210 0.959150 0.825320 -0.507880
O14   O     O_R   0.318790 0.959150 0.174680 -0.506697
O15   O     O_R   0.181210 0.459150 0.825320 -0.507881
O16   O     O_R   0.818790 0.459150 0.174680 -0.506696
O17   O     O_3   0.667820 0.167810 0.749960 -0.270731
O18   O     O_3   0.332180 0.167810 0.250040 -0.249422
O19   O     O_3   0.167820 0.667810 0.749960 -0.270734
O20   O     O_3   0.832180 0.667810 0.250040 -0.249423
O21   O     O_R   0.765670 0.292090 0.675090 -0.469921
O22   O     O_R   0.234330 0.292090 0.324910 -0.508671
O23   O     O_R   0.265670 0.792090 0.675090 -0.469914
O24   O     O_R   0.734330 0.792090 0.324910 -0.508672
O25   O     O_R   0.670220 0.409020 0.668560 -0.545355
O26   O     O_R   0.329780 0.409020 0.331440 -0.535213
O27   O     O_R   0.170220 0.909020 0.668560 -0.545355
O28   O     O_R   0.829780 0.909020 0.331440 -0.535214
O29   O     O_R   0.556580 0.251590 0.674980 -0.501811
O30   O     O_R   0.443420 0.251590 0.325020 -0.503653
O31   O     O_R   0.056580 0.751590 0.674980 -0.501811
O32   O     O_R   0.943420 0.751590 0.325020 -0.503652
O33   O     O_R   0.545890 0.049670 0.670030 -0.517650
O34   O     O_R   0.454110 0.049670 0.329970 -0.531205
O35   O     O_R   0.045890 0.549670 0.670030 -0.517651
O36   O     O_R   0.954110 0.549670 0.329970 -0.531208
O37   O     O_R   0.681340 0.957860 0.676500 -0.530369
O38   O     O_R   0.318660 0.957860 0.323500 -0.520034
O39   O     O_R   0.181340 0.457860 0.676500 -0.530370
O40   O     O_R   0.818660 0.457860 0.323500 -0.520033
O41   O     O_R   0.787380 0.044010 0.830940 -0.524216
O42   O     O_R   0.212620 0.044010 0.169060 -0.519131
O43   O     O_R   0.287380 0.544010 0.830940 -0.524213
O44   O     O_R   0.712620 0.544010 0.169060 -0.519131
O45   O     O_R   0.765540 0.293390 0.823910 -0.509729
O46   O     O_R   0.234460 0.293390 0.176090 -0.508488
O47   O     O_R   0.265540 0.793390 0.823910 -0.509728
O48   O     O_R   0.734460 0.793390 0.176090 -0.508488
O49   O     O_R   0.670090 0.410410 0.829090 -0.552872
O50   O     O_R   0.329910 0.410410 0.170910 -0.553585
O51   O     O_R   0.170090 0.910410 0.829090 -0.552872
O52   O     O_R   0.829910 0.910410 0.170910 -0.553584
H25   H     H_    0.828162 0.083485 0.948840 0.129972
H26   H     H_    0.171949 0.082803 0.050734 0.131995
H27   H     H_    0.328161 0.583487 0.948840 0.129972
H28   H     H_    0.671949 0.582804 0.050734 0.131995
H29   H     H_    0.662678 0.794608 0.063761 0.114494
H30   H     H_    0.336503 0.794384 0.937061 0.115521
H31   H     H_    0.162678 0.294607 0.063761 0.114494
H32   H     H_    0.836503 0.294382 0.937062 0.115522
H33   H     H_    0.657757 0.820347 0.934643 0.110887
H34   H     H_    0.341271 0.820283 0.066112 0.113541
H35   H     H_    0.157757 0.320346 0.934643 0.110886
H36   H     H_    0.841270 0.320281 0.066112 0.113541
H37   H     H_    0.868788 0.701579 0.473522 0.139474
H38   H     H_    0.924647 0.869825 0.589815 0.144085
H39   H     H_    0.368782 0.201528 0.473526 0.139470
H40   H     H_    0.424624 0.369785 0.589823 0.144092
H41   H     H_    0.691361 0.747372 0.446376 0.141394
H42   H     H_    0.351439 0.914483 0.574816 0.124605
H43   H     H_    0.191353 0.247384 0.446373 0.141391
H44   H     H_    0.851439 0.414510 0.574818 0.124592
O53   O     O_3   0.818012 0.135092 0.554217 -0.523053
C101  C     C_3   0.889777 0.139235 0.533971 -0.009613
H45   H     H_    0.897126 0.212322 0.493547 0.134305
H46   H     H_    0.909855 0.052585 0.511102 0.096357
C102  C     C_3   0.935367 0.168342 0.598553 -0.349098
H47   H     H_    0.931380 0.092918 0.638062 0.156079
H48   H     H_    0.991132 0.178093 0.582184 0.080736
H49   H     H_    0.918287 0.254874 0.623768 0.161353
O54   O     O_3   0.124408 0.915979 0.410472 -0.539635
C103  C     C_3   0.078693 0.011034 0.431954 0.001801
H50   H     H_    0.107824 0.095926 0.446838 0.115490
H51   H     H_    0.046519 0.981153 0.477913 0.119719
C104  C     C_3   0.029127 0.043280 0.371108 -0.347450
H52   H     H_    0.997036 0.962218 0.356220 0.184444
H53   H     H_    0.993330 0.117964 0.387676 0.069178
H54   H     H_    0.059667 0.074431 0.324258 0.163796
O55   O     O_3   0.318026 0.635081 0.554217 -0.523051
C105  C     C_3   0.389789 0.639206 0.533966 -0.009625
H55   H     H_    0.397141 0.712289 0.493540 0.134301
H56   H     H_    0.409859 0.552550 0.511097 0.096368
C106  C     C_3   0.435387 0.668305 0.598543 -0.349091
H57   H     H_    0.431364 0.592911 0.638072 0.156137
H58   H     H_    0.491162 0.677969 0.582171 0.080730
H59   H     H_    0.418342 0.754889 0.623734 0.161298
O56   O     O_3   0.624410 0.415973 0.410472 -0.539637
C107  C     C_3   0.578693 0.511025 0.431955 0.001799
H60   H     H_    0.607822 0.595917 0.446843 0.115488
H61   H     H_    0.546517 0.481137 0.477912 0.119722
C108  C     C_3   0.529129 0.543274 0.371109 -0.347446
H62   H     H_    0.497040 0.462211 0.356216 0.184448
H63   H     H_    0.493329 0.617954 0.387678 0.069177
H64   H     H_    0.559670 0.574433 0.324261 0.163795
O57   O     O_3   0.525987 0.383634 0.075320 -0.568790
C109  C     C_3   0.473790 0.474130 0.082356 -0.001985
H65   H     H_    0.442982 0.455434 0.130228 0.201921
H66   H     H_    0.437489 0.479361 0.036237 0.162437
C110  C     C_3   0.508386 0.598750 0.094696 -0.400210
H67   H     H_    0.467223 0.669543 0.101662 0.085074
H68   H     H_    0.541648 0.595671 0.143386 0.166919
H69   H     H_    0.541808 0.625695 0.049233 0.132910
O58   O     O_3   0.475048 0.378992 0.924846 -0.569518
C111  C     C_3   0.525522 0.473150 0.916616 -0.002172
H70   H     H_    0.556880 0.455350 0.869109 0.201754
H71   H     H_    0.561611 0.482610 0.962677 0.161193
C112  C     C_3   0.488697 0.594778 0.902563 -0.398272
H72   H     H_    0.528559 0.667863 0.893586 0.085055
H73   H     H_    0.454714 0.587305 0.854545 0.170694
H74   H     H_    0.455707 0.621674 0.948140 0.132221
O59   O     O_3   0.025988 0.883636 0.075321 -0.568790
C113  C     C_3   0.973790 0.974131 0.082356 -0.001986
H75   H     H_    0.942982 0.955434 0.130228 0.201921
H76   H     H_    0.937490 0.979361 0.036236 0.162439
C114  C     C_3   0.008385 0.098752 0.094696 -0.400211
H77   H     H_    0.967222 0.169544 0.101660 0.085075
H78   H     H_    0.041646 0.095675 0.143387 0.166917
H79   H     H_    0.041808 0.125696 0.049234 0.132910
O60   O     O_3   0.975048 0.878989 0.924847 -0.569519
C115  C     C_3   0.025521 0.973150 0.916615 -0.002174
H80   H     H_    0.056879 0.955348 0.869108 0.201754
H81   H     H_    0.061609 0.982614 0.962676 0.161191
C116  C     C_3   0.988693 0.094775 0.902560 -0.398274
H82   H     H_    0.028554 0.167859 0.893574 0.085058
H83   H     H_    0.954704 0.087293 0.854548 0.170706
H84   H     H_    0.955709 0.121678 0.948141 0.132214

loop_
_geom_bond_atom_site_label_1
_geom_bond_atom_site_label_2
_ccdc_geom_bond_type
C6    H40   S    
C58   C62   A    
Cr5   O17   S    
C49   C53   A    
C110  H68   S    
C93   C94   A    
C55   C59   A    
C34   C37   A    
C77   O49   A    
C41   C42   A    
C14   C18   A    
C11   H15   S    
C95   C96   A    
C8    C96   S    
C92   C96   A    
C82   O6    A    
Cr2   O22   S    
Cr11  O35   S    
C97   C98   A    
C51   H27   S    
C7    C8    S    
C46   C89   S    
C55   H7    S    
C102  H47   S    
C15   C19   A    
C74   O2    A    
C45   O29   A    
O58   C111  S    
C50   C54   A    
C79   O51   A    
Cr11  O39   S    
C5    C6    S    
C64   C68   A    
C56   C60   A    
C39   C84   S    
C74   O38   A    
C104  H54   S    
C67   H35   S    
C86   O14   A    
Cr2   O2    S    
C112  H72   S    
C30   C74   S    
Cr9   O37   S    
Cr7   O7    S    
C98   H2    S    
Cr3   O43   S    
C49   H25   S    
C34   H22   S    
C111  H71   S    
C5    H9    S    
C86   O42   A    
C22   H18   S    
C47   O31   A    
C3    C18   S    
Cr1   O21   S    
O57   C109  S    
C52   H28   S    
Cr5   O49   S    
C9    C13   A    
C82   O10   A    
C63   H31   S    
C48   O36   A    
C11   C15   A    
Cr5   O25   S    
C35   C36   A    
C42   O58   S    
Cr5   O29   S    
C6    C94   S    
C48   C91   S    
Cr8   O20   S    
C109  H66   S    
C4    O28   A    
Cr6   O6    S    
C33   H21   S    
C78   O50   A    
C65   H33   S    
C23   C27   A    
C91   C100  A    
Cr9   O17   S    
O60   C115  S    
Cr2   O18   S    
C90   C97   A    
C67   C71   A    
C85   O13   A    
C110  H69   S    
C68   C72   A    
C28   O56   S    
C81   O9    A    
C5    C93   S    
C49   C69   A    
C111  C112  S    
C84   O12   A    
Cr8   O32   S    
C1    O25   A    
C104  H53   S    
C87   O15   A    
C116  H82   S    
C12   C32   A    
C26   O54   S    
C89   C93   A    
C88   O16   A    
C57   C80   S    
C40   C83   S    
Cr12  O36   S    
C107  H61   S    
Cr4   O24   S    
C47   C92   S    
Cr10  O14   S    
C36   H24   S    
C59   C78   S    
C72   C88   S    
Cr9   O33   S    
C90   C94   A    
C50   H26   S    
Cr7   O31   S    
C102  H48   S    
C25   C29   A    
C63   C67   A    
C60   C77   S    
C109  C110  S    
C62   C66   A    
C27   C31   A    
Cr2   O46   S    
C12   C16   A    
C28   C32   A    
C33   C34   A    
Cr6   O50   S    
O53   C101  S    
C10   C14   A    
C35   H23   S    
C112  H73   S    
C14   H42   S    
Cr1   O1    S    
C8    H12   S    
C39   C43   A    
C76   O4    A    
C51   C55   A    
Cr6   O18   S    
O54   C103  S    
C83   O11   A    
C103  H51   S    
C75   O39   A    
C62   H30   S    
C9    H13   S    
Cr12  O12   S    
C41   O57   S    
C78   O46   A    
C107  C108  S    
Cr4   O44   S    
C15   H43   S    
C19   C23   A    
C43   C44   A    
C101  C102  S    
C5    H39   S    
C106  H57   S    
Cr10  O18   S    
C88   O44   A    
Cr11  O11   S    
C112  H74   S    
C104  H52   S    
Cr8   O28   S    
C24   H20   S    
C77   O45   A    
C99   C100  A    
C48   O32   A    
C76   O40   A    
Cr9   O13   S    
C16   C20   A    
C52   C72   A    
C83   O7    A    
C114  H79   S    
Cr12  O16   S    
O55   C105  S    
C80   O52   A    
C23   H19   S    
C3    O23   A    
Cr4   O20   S    
C25   O53   S    
C45   C90   S    
C21   H17   S    
C66   H34   S    
C115  H81   S    
C58   C79   S    
C71   C87   S    
C4    C17   S    
Cr10  O34   S    
Cr3   O19   S    
Cr12  O40   S    
Cr8   O8    S    
Cr7   O27   S    
C81   O5    A    
C105  H55   S    
C105  H56   S    
Cr4   O48   S    
C108  H63   S    
C38   C81   S    
Cr12  O20   S    
Cr3   O3    S    
Cr2   O42   S    
Cr3   O47   S    
C10   C30   A    
C108  H64   S    
C113  C114  S    
C107  H60   S    
C6    H10   S    
Cr1   O17   S    
C97   H1    S    
C70   C86   S    
C54   H6    S    
C61   H29   S    
C113  H76   S    
O59   C113  S    
C69   C85   S    
C103  C104  S    
C114  H78   S    
O56   C107  S    
C102  H49   S    
C10   H14   S    
C21   C25   A    
C1    C20   S    
C53   C57   A    
C46   O30   A    
C109  H65   S    
C2    C19   S    
C18   C22   A    
C59   C63   A    
Cr8   O52   S    
C36   C39   A    
Cr9   O9    S    
C24   C28   A    
C7    H11   S    
C16   H44   S    
C115  C116  S    
Cr11  O15   S    
C32   C76   S    
C13   H41   S    
C47   O35   A    
C51   C71   A    
C57   C61   A    
C44   O60   S    
C56   H8    S    
Cr6   O26   S    
C3    O27   A    
C106  H59   S    
C105  C106  S    
C7    C95   S    
C66   C70   A    
C12   H16   S    
C101  H46   S    
C33   C38   A    
C73   O37   A    
C68   H36   S    
C89   C98   A    
C60   C64   A    
C100  H4    S    
Cr5   O5    S    
C116  H83   S    
C35   C40   A    
C111  H70   S    
C8    H38   S    
C106  H58   S    
Cr10  O10   S    
C7    H37   S    
C87   O43   A    
C4    O24   A    
C9    C29   A    
Cr3   O23   S    
C103  H50   S    
C114  H77   S    
Cr10  O38   S    
C73   O1    A    
Cr6   O30   S    
C65   C69   A    
C64   H32   S    
C99   H3    S    
C1    O21   A    
C79   O47   A    
C113  H75   S    
C53   H5    S    
C80   O48   A    
C61   C65   A    
C37   C41   A    
C37   C82   S    
Cr1   O45   S    
C108  H62   S    
C50   C70   A    
Cr1   O41   S    
C115  H80   S    
C11   C31   A    
C13   C17   A    
C38   C42   A    
C46   O34   A    
C40   C44   A    
C29   C73   S    
C2    O22   A    
C91   C95   A    
C85   O41   A    
C101  H45   S    
C22   C26   A    
C116  H84   S    
C54   C58   A    
C84   O8    A    
Cr7   O51   S    
C75   O3    A    
C31   C75   S    
C43   O59   S    
C27   O55   S    
C110  H67   S    
Cr11  O19   S    
C20   C24   A    
Cr7   O19   S    
C45   O33   A    
C52   C56   A    
C92   C99   A    
Cr4   O4    S    
C2    O26   A    
C26   C30   A    
C17   C21   A    
