data_mof_unit_36781.cif
_audit_creation_date              2012-12-11T15:08:29-0500
_audit_creation_method            fapswitch 2.2
_symmetry_space_group_name_H-M    P1
_symmetry_Int_Tables_number       1
_space_group_crystal_system       triclinic
_cell_length_a                    26.790538
_cell_length_b                    7.073813
_cell_length_c                    11.97947
_cell_angle_alpha                 90.239816
_cell_angle_beta                  103.383895
_cell_angle_gamma                 90.669749
_cell_volume                      2208.38048863

loop_
_atom_site_label
_atom_site_type_symbol
_atom_type_description
_atom_site_fract_x
_atom_site_fract_y
_atom_site_fract_z
_atom_type_partial_charge
O1    O     O_R   0.437360 0.505910 0.042120 -0.543157
O2    O     O_R   0.562640 0.005910 0.957880 -0.538445
O3    O     O_R   0.542480 0.176660 0.157100 -0.540667
O4    O     O_R   0.457520 0.676660 0.842900 -0.543496
C1    C     C_R   0.556349 0.345685 0.198107 0.710817
C2    C     C_R   0.443584 0.843477 0.801859 0.710452
O5    O     O_R   0.436520 0.176250 0.054800 -0.540449
O6    O     O_R   0.563480 0.676250 0.945200 -0.544984
O7    O     O_R   0.455920 0.005040 0.854840 -0.538957
O8    O     O_R   0.544080 0.505040 0.145160 -0.541529
C3    C     C_R   0.417488 0.343911 0.063588 0.755630
C4    C     C_R   0.582464 0.845651 0.936295 0.756542
O9    O     O_3   0.506490 0.338900 0.934520 -0.375830
O10   O     O_3   0.493510 0.838900 0.065480 -0.377006
V1    V     V_3+5 0.498800 0.064400 0.012150 1.460356
V2    V     V_3+5 0.501200 0.564400 0.987850 1.447485
C5    C     C_R   0.681216 0.906436 0.760017 -0.250667
C6    C     C_R   0.318602 0.335358 0.242044 -0.249957
H1    H     H_    0.775024 0.936210 0.724866 0.139163
H2    H     H_    0.224774 0.332293 0.278386 0.138602
H3    H     H_    0.682771 0.930934 0.671565 0.125856
H4    H     H_    0.316973 0.326897 0.331512 0.125513
C7    C     C_R   0.631697 0.857443 0.902811 -0.061493
C8    C     C_R   0.368262 0.348975 0.097315 -0.061361
C9    C     C_R   0.867729 0.824771 0.209559 -0.123676
C10   C     C_R   0.132388 0.374748 0.788910 -0.123370
C11   C     C_R   0.821813 0.807018 0.243889 -0.107399
C12   C     C_R   0.178323 0.376566 0.753899 -0.105404
C13   C     C_R   0.775051 0.819276 0.163927 -0.179559
C14   C     C_R   0.225029 0.369105 0.834428 -0.178911
C15   C     C_R   0.773039 0.849854 0.046056 0.088598
C16   C     C_R   0.226968 0.359714 0.953577 0.088736
C17   C     C_R   0.820403 0.869119 0.011589 0.058788
C18   C     C_R   0.179568 0.356421 0.988806 0.059582
C19   C     C_R   0.725740 0.861412 0.961319 0.078156
C20   C     C_R   0.274235 0.353931 0.038828 0.078113
C21   C     C_R   0.726971 0.893094 0.844883 0.100700
C22   C     C_R   0.272913 0.343282 0.156579 0.101217
C23   C     C_R   0.773842 0.911883 0.813538 -0.185057
C24   C     C_R   0.226014 0.340086 0.188680 -0.185636
C25   C     C_R   0.819792 0.899841 0.895258 -0.208168
C26   C     C_R   0.180111 0.346955 0.106430 -0.208786
C27   C     C_R   0.677140 0.843189 0.987898 -0.309653
C28   C     C_R   0.322882 0.357822 0.011557 -0.309984
C29   C     C_R   0.633345 0.889259 0.788336 0.324421
C30   C     C_R   0.366496 0.337332 0.213093 0.325365
C31   C     C_R   0.867584 0.855942 0.094394 -0.081776
C32   C     C_R   0.132437 0.364298 0.905383 -0.082186
H5    H     H_    0.673021 0.819569 0.074119 0.114204
H6    H     H_    0.327063 0.365585 0.924372 0.114115
H7    H     H_    0.903642 0.813738 0.273125 0.118001
H8    H     H_    0.096536 0.381814 0.724804 0.116844
H9    H     H_    0.741292 0.803921 0.197544 0.118224
H10   H     H_    0.258809 0.371064 0.800211 0.117671
H11   H     H_    0.822414 0.783132 0.333429 0.135769
H12   H     H_    0.177781 0.384181 0.663350 0.134598
H13   H     H_    0.854989 0.915168 0.866186 0.127047
H14   H     H_    0.144896 0.344517 0.136137 0.126605
C33   C     C_R   0.091015 0.865858 0.311956 -0.069405
C34   C     C_R   0.908896 0.353165 0.688529 -0.069427
C35   C     C_R   0.408948 0.846884 0.687862 -0.039920
C36   C     C_R   0.591098 0.358357 0.311754 -0.040005
C37   C     C_R   0.104994 0.913480 0.517646 0.347642
C38   C     C_R   0.894711 0.279048 0.485613 0.349389
C39   C     C_R   0.071783 0.901195 0.408429 -0.261792
C40   C     C_R   0.928024 0.303308 0.593988 -0.261903
C41   C     C_R   0.143637 0.844162 0.322761 -0.230255
C42   C     C_R   0.856328 0.377616 0.676795 -0.230266
C43   C     C_R   0.178733 0.860788 0.430807 0.021537
C44   C     C_R   0.821166 0.350456 0.569707 0.020679
C45   C     C_R   0.158398 0.894169 0.528803 0.094959
C46   C     C_R   0.841362 0.302149 0.473501 0.095043
C47   C     C_R   0.233212 0.847982 0.444364 0.069926
C48   C     C_R   0.766766 0.368024 0.555418 0.069015
C49   C     C_R   0.266487 0.866855 0.556215 0.059360
C50   C     C_R   0.733425 0.339024 0.444492 0.059119
C51   C     C_R   0.244263 0.897354 0.650667 -0.229920
C52   C     C_R   0.755496 0.293360 0.351721 -0.229351
C53   C     C_R   0.191643 0.910321 0.637052 -0.161624
C54   C     C_R   0.808041 0.275638 0.366118 -0.161915
C55   C     C_R   0.255577 0.818288 0.349764 -0.191908
C56   C     C_R   0.744546 0.412619 0.648410 -0.191831
C57   C     C_R   0.308272 0.805765 0.363616 -0.203848
C58   C     C_R   0.691929 0.430130 0.633765 -0.203772
C59   C     C_R   0.341076 0.821648 0.471897 0.125244
C60   C     C_R   0.659063 0.404444 0.526261 0.125120
C61   C     C_R   0.320911 0.853672 0.569933 0.084092
C62   C     C_R   0.679093 0.357452 0.429961 0.083706
C63   C     C_R   0.394130 0.803263 0.482869 -0.162562
C64   C     C_R   0.606079 0.427338 0.514283 -0.162878
C65   C     C_R   0.427784 0.813758 0.590395 -0.165561
C66   C     C_R   0.572358 0.405975 0.407404 -0.167030
C67   C     C_R   0.356253 0.868268 0.677958 -0.223946
C68   C     C_R   0.643712 0.333117 0.322703 -0.223351
H15   H     H_    0.177090 0.934789 0.713011 0.185374
H16   H     H_    0.822481 0.239743 0.291469 0.185731
H17   H     H_    0.344365 0.891048 0.756818 0.097326
H18   H     H_    0.655482 0.298315 0.245135 0.097332
H19   H     H_    0.468494 0.794829 0.597771 0.137963
H20   H     H_    0.531680 0.427293 0.399118 0.138468
H21   H     H_    0.323499 0.781905 0.288436 0.141342
H22   H     H_    0.676812 0.465327 0.707673 0.141592
H23   H     H_    0.030889 0.920330 0.398314 0.100250
H24   H     H_    0.968903 0.282609 0.604948 0.100653
H25   H     H_    0.155675 0.819261 0.244300 0.113821
H26   H     H_    0.844413 0.414462 0.753871 0.113568
H27   H     H_    0.266418 0.913003 0.737439 0.132213
H28   H     H_    0.733279 0.269233 0.265728 0.132547
H29   H     H_    0.233565 0.803563 0.262827 0.137512
H30   H     H_    0.766609 0.435403 0.734661 0.137430
H31   H     H_    0.409532 0.777590 0.408171 0.136826
H32   H     H_    0.590779 0.464194 0.587629 0.136983
O11   O     O_R   0.955980 0.206520 0.854760 -0.540535
O12   O     O_R   0.044020 0.706520 0.145240 -0.539911
O13   O     O_R   0.063490 0.536770 0.945200 -0.539362
O14   O     O_R   0.936510 0.036770 0.054800 -0.536241
C69   C     C_R   0.082831 0.369310 0.937802 0.682527
C70   C     C_R   0.917204 0.867541 0.062256 0.683190
O15   O     O_R   0.957530 0.536190 0.842880 -0.541704
O16   O     O_R   0.042470 0.036190 0.157120 -0.542589
O17   O     O_R   0.937350 0.707210 0.042130 -0.538739
O18   O     O_R   0.062650 0.207210 0.957870 -0.535513
C71   C     C_R   0.943360 0.366545 0.802416 0.713542
C72   C     C_R   0.056688 0.868878 0.197649 0.713445
O19   O     O_3   0.993540 0.373870 0.065440 -0.372452
O20   O     O_3   0.006460 0.873870 0.934560 -0.371783
V3    V     V_3+5 0.001200 0.648440 0.987860 1.442382
V4    V     V_3+5 0.998800 0.148440 0.012140 1.445451
O21   O     O_3   0.587920 0.903223 0.706180 -0.664774
H33   H     H_    0.595855 0.925344 0.630389 0.288538
O22   O     O_3   0.411836 0.328096 0.295917 -0.664880
H34   H     H_    0.403830 0.320999 0.372606 0.288252
O23   O     O_3   0.086222 0.947564 0.614024 -0.659008
H35   H     H_    0.048359 0.958746 0.590998 0.281011
O24   O     O_3   0.913342 0.230407 0.391049 -0.659631
H36   H     H_    0.951179 0.218585 0.414594 0.279890

loop_
_geom_bond_atom_site_label_1
_geom_bond_atom_site_label_2
_ccdc_geom_bond_type
C63   H31   S    
C58   C60   A    
C22   C24   A    
C37   C39   A    
C29   O21   S    
O20   V3    S    
C7    C29   A    
C11   C13   A    
C58   H22   S    
O1    C3    A    
C64   H32   S    
O2    C4    A    
C26   H14   S    
C2    O7    A    
C45   C53   A    
C12   H12   S    
O13   V3    S    
O24   H36   S    
C23   C25   A    
O11   V4    S    
O5    C3    A    
C14   H10   S    
C4    C7    S    
C48   C50   A    
C16   C20   A    
C2    C35   S    
C19   C21   A    
C5    C29   A    
O17   V3    S    
H2    C24   S    
C60   C62   A    
C68   H18   S    
C3    C8    S    
C7    C27   A    
C52   H28   S    
C43   C45   A    
C33   C41   A    
C37   O23   S    
C31   C70   S    
O14   C70   A    
C18   C26   A    
O13   C69   A    
C36   C66   A    
C44   C48   A    
O19   V4    S    
C15   C17   A    
C43   C47   A    
C63   C65   A    
C19   C27   A    
C9    C31   A    
C10   C32   A    
O12   C72   A    
C24   C26   A    
C38   O24   S    
C34   C40   A    
O6    V2    S    
O18   V4    S    
C47   C49   A    
C42   H26   S    
C48   C56   A    
C6    C30   A    
C47   C55   A    
C55   C57   A    
C51   C53   A    
C62   C68   A    
C59   C61   A    
C40   H24   S    
C51   H27   S    
O4    C2    A    
C60   C64   A    
C30   O22   S    
C59   C63   A    
C41   H25   S    
C5    H3    S    
C46   C54   A    
C41   C43   A    
C70   O17   A    
C38   C40   A    
O4    V2    S    
C34   C71   S    
C69   O18   A    
C9    H7    S    
C53   H15   S    
C10   H8    S    
C64   C66   A    
O11   C71   A    
O6    C4    A    
O1    V2    S    
C5    C21   A    
O2    V1    S    
C49   C51   A    
H1    C23   S    
C49   C61   A    
C57   C59   A    
C37   C45   A    
C56   C58   A    
C36   C68   A    
O23   H35   S    
C17   C31   A    
C15   C19   A    
C20   C28   A    
C54   H16   S    
C39   H23   S    
O22   H34   S    
C67   H17   S    
O3    V1    S    
C66   H20   S    
O21   H33   S    
C28   H6    S    
C33   C72   S    
C50   C62   A    
O20   V4    S    
C57   H21   S    
C6    H4    S    
C27   H5    S    
C50   C52   A    
O3    C1    A    
O16   V4    S    
C32   C69   S    
O15   C71   A    
C9    C11   A    
C55   H29   S    
C11   H11   S    
C10   C12   A    
C17   C25   A    
C20   C22   A    
O7    V1    S    
C8    C30   A    
C1    O8    A    
C21   C23   A    
O8    V2    S    
C33   C39   A    
C14   C16   A    
O12   V3    S    
C13   H9    S    
C8    C28   A    
C61   C67   A    
O5    V1    S    
C12   C14   A    
C1    C36   S    
C52   C54   A    
C38   C46   A    
C6    C22   A    
C25   H13   S    
O16   C72   A    
C18   C32   A    
C34   C42   A    
C13   C15   A    
O14   V4    S    
O9    V2    S    
O19   V3    S    
C42   C44   A    
O10   V1    S    
C56   H30   S    
C44   C46   A    
C65   H19   S    
C35   C67   A    
C35   C65   A    
C16   C18   A    
O15   V3    S    
