data_mof_unit_14723.cif
_audit_creation_date              2012-12-10T19:50:10-0500
_audit_creation_method            fapswitch 2.2
_symmetry_space_group_name_H-M    P1
_symmetry_Int_Tables_number       1
_space_group_crystal_system       triclinic
_cell_length_a                    14.19361
_cell_length_b                    14.913857
_cell_length_c                    15.462281
_cell_angle_alpha                 90.829726
_cell_angle_beta                  68.003755
_cell_angle_gamma                 91.497392
_cell_volume                      3033.75052705

loop_
_atom_site_label
_atom_site_type_symbol
_atom_type_description
_atom_site_fract_x
_atom_site_fract_y
_atom_site_fract_z
_atom_type_partial_charge
C1    C     C_R   0.500614 0.672736 0.501230 0.881639
C2    C     C_R   0.556908 0.182600 0.432845 -0.220930
C3    C     C_R   0.500017 0.769435 0.509023 -0.072642
C4    C     C_R   0.494213 0.233036 0.507563 -0.039358
C5    C     C_R   0.578469 0.814973 0.526931 -0.221563
C6    C     C_R   0.433279 0.193483 0.591940 -0.228587
C7    C     C_R   0.577498 0.907765 0.537035 0.191006
C8    C     C_R   0.434296 0.101024 0.602518 0.190627
C9    C     C_R   0.496230 0.953886 0.528267 0.053302
C10   C     C_R   0.496723 0.050248 0.525735 0.050548
C11   C     C_R   0.887492 0.563055 0.536456 -0.326479
C12   C     C_R   0.498777 0.328097 0.500429 0.874869
C13   C     C_R   0.084378 0.435110 0.533517 -0.329067
C14   C     C_R   0.783981 0.561220 0.548475 0.311845
C15   C     C_R   0.179184 0.435652 0.543443 0.303037
C16   C     C_R   0.436562 0.497262 0.676076 0.865384
C17   C     C_R   0.563169 0.498818 0.323746 0.875466
C18   C     C_R   0.811752 0.437290 0.445050 -0.091225
C19   C     C_R   0.231233 0.565094 0.449139 -0.090591
C20   C     C_R   0.915056 0.433393 0.436088 0.093910
C21   C     C_R   0.135551 0.568523 0.439772 0.089882
C22   C     C_R   0.954747 0.500015 0.480663 0.088138
C23   C     C_R   0.369538 0.455266 0.107730 -0.235510
C24   C     C_R   0.061119 0.500059 0.480842 0.092176
C25   C     C_R   0.396510 0.483390 0.776777 -0.059003
C26   C     C_R   0.600180 0.483824 0.223067 -0.065541
C27   C     C_R   0.260025 0.481988 0.928231 -0.204351
C28   C     C_R   0.724937 0.429297 0.078584 -0.207190
C29   C     C_R   0.293405 0.492673 0.831871 -0.212808
C30   C     C_R   0.699037 0.455888 0.171481 -0.205186
C31   C     C_R   0.464247 0.458116 0.817477 -0.266373
C32   C     C_R   0.528775 0.486035 0.181186 -0.256726
C33   C     C_R   0.433211 0.448178 0.913751 0.090483
C34   C     C_R   0.604998 0.404834 0.904300 -0.239552
C35   C     C_R   0.550135 0.452268 0.091606 0.091666
C36   C     C_R   0.329815 0.462983 0.969789 0.183340
C37   C     C_R   0.651055 0.427285 0.038280 0.177910
C38   C     C_R   0.504355 0.432192 0.955832 0.071146
C39   C     C_R   0.474284 0.446711 0.052817 0.071996
C40   C     C_3   0.716888 0.627889 0.617071 -0.400733
C41   C     C_3   0.710581 0.610503 0.716372 -0.887965
C42   C     C_3   0.195205 0.364629 0.604445 -0.395657
C43   C     C_3   0.207286 0.272570 0.557239 -0.851418
C44   C     C_3   0.978201 0.355893 0.382360 -0.407654
C45   C     C_R   0.298284 0.461624 0.066509 -0.250857
C46   C     C_3   0.060603 0.385311 0.290443 -0.875562
C47   C     C_3   0.115099 0.647166 0.388833 -0.417516
C48   C     C_3   0.112329 0.620066 0.294351 -0.866187
C49   C     C_3   0.662366 0.954715 0.558302 -0.438724
C50   C     C_3   0.761985 0.954536 0.473488 -0.862995
C51   C     C_3   0.372216 0.059523 0.696085 -0.430890
C52   C     C_3   0.258651 0.061268 0.715623 -0.867482
C53   C     C_R   0.676586 0.401088 0.945624 -0.238436
C54   C     C_R   0.417387 0.908420 0.511727 -0.190797
C55   C     C_R   0.557205 0.090809 0.441588 -0.177594
C56   C     C_R   0.419010 0.816350 0.502324 -0.207561
H1    H     H_    0.219028 0.469998 0.110412 0.150567
H2    H     H_    0.239419 0.510075 0.800887 0.153219
H3    H     H_    0.180578 0.491912 0.970518 0.133864
H4    H     H_    0.801958 0.408888 0.038813 0.132715
H5    H     H_    0.340434 0.455711 0.183024 0.151651
H6    H     H_    0.629866 0.383632 0.832360 0.144086
H7    H     H_    0.355863 0.944715 0.503954 0.146903
H8    H     H_    0.604151 0.051039 0.382733 0.147813
H9    H     H_    0.357556 0.782179 0.488852 0.154647
H10   H     H_    0.604870 0.214300 0.368121 0.135419
H11   H     H_    0.640277 0.778540 0.533673 0.151089
H12   H     H_    0.752909 0.380040 0.904135 0.143220
H13   H     H_    0.387466 0.234937 0.649911 0.136572
H14   H     H_    0.650537 0.652271 0.766457 0.254780
H15   H     H_    0.691778 0.538884 0.734744 0.264171
H16   H     H_    0.783803 0.628215 0.723457 0.253082
H17   H     H_    0.747991 0.696815 0.596193 0.175306
H18   H     H_    0.639203 0.626255 0.618887 0.262978
H19   H     H_    0.135915 0.250944 0.548469 0.240682
H20   H     H_    0.269980 0.274222 0.487656 0.281779
H21   H     H_    0.224664 0.222407 0.600970 0.248878
H22   H     H_    0.261089 0.380704 0.623383 0.249456
H23   H     H_    0.915189 0.612353 0.573976 0.153715
H24   H     H_    0.128602 0.361922 0.671542 0.170734
H25   H     H_    0.027090 0.423592 0.248314 0.251123
H26   H     H_    0.120117 0.426679 0.303250 0.272584
H27   H     H_    0.097465 0.325217 0.249872 0.251060
H28   H     H_    0.013388 0.321861 0.425744 0.209988
H29   H     H_    0.928921 0.304560 0.366122 0.195859
H30   H     H_    0.182148 0.583692 0.252371 0.255636
H31   H     H_    0.044125 0.577532 0.303486 0.271024
H32   H     H_    0.108279 0.681091 0.255713 0.248773
H33   H     H_    0.042552 0.678759 0.432145 0.207668
H34   H     H_    0.027019 0.384856 0.569593 0.151225
H35   H     H_    0.175384 0.699981 0.376682 0.195080
H36   H     H_    0.786651 0.884794 0.452571 0.254526
H37   H     H_    0.752865 0.988944 0.413996 0.258845
H38   H     H_    0.822096 0.990578 0.490875 0.247712
H39   H     H_    0.643755 0.025155 0.581162 0.213662
H40   H     H_    0.673023 0.920074 0.617060 0.200922
H41   H     H_    0.232135 0.131365 0.724374 0.251811
H42   H     H_    0.242097 0.028571 0.657711 0.258456
H43   H     H_    0.216048 0.024482 0.781142 0.251893
H44   H     H_    0.393388 0.989046 0.700168 0.212305
H45   H     H_    0.782054 0.388935 0.408367 0.143567
H46   H     H_    0.387970 0.097053 0.752019 0.204360
H47   H     H_    0.289413 0.615273 0.415407 0.144383
H48   H     H_    0.455852 0.514630 0.219978 0.157234
H49   H     H_    0.542640 0.450823 0.772924 0.161257
H50   H     H_    0.755215 0.453059 0.203182 0.153721
N1    N     N_R   0.747530 0.500020 0.500000 -0.118627
N2    N     N_R   0.252470 0.499980 0.500000 -0.116884
O1    O     O_R   0.420530 0.630930 0.499990 -0.623411
O2    O     O_R   0.579470 0.369070 0.500010 -0.618598
O3    O     O_R   0.579480 0.630940 0.499990 -0.641155
O4    O     O_R   0.420520 0.369060 0.500010 -0.617138
O5    O     O_R   0.375120 0.499990 0.632240 -0.634985
O6    O     O_R   0.624880 0.500010 0.367760 -0.614377
O7    O     O_R   0.534080 0.500000 0.632240 -0.621791
O8    O     O_R   0.465920 0.500000 0.367760 -0.614466
Zn1   Zn    Zn3+2 0.393860 0.499990 0.500000 0.925766
Zn2   Zn    Zn3+2 0.606140 0.500010 0.500000 0.926005

loop_
_geom_bond_atom_site_label_1
_geom_bond_atom_site_label_2
_ccdc_geom_bond_type
C25   C31   A    
C6    H13   S    
C26   C32   A    
C23   C45   A    
C13   H34   S    
C27   C29   A    
C31   H49   S    
C2    C4    A    
C5    H11   S    
C16   O5    A    
O2    Zn2   S    
C12   O2    A    
O1    Zn1   S    
O8    Zn1   S    
C51   H46   S    
C42   H24   S    
C45   H1    S    
O3    Zn2   S    
C17   C26   S    
C19   C21   A    
C2    C55   A    
C38   C39   A    
C11   C14   A    
C54   H7    S    
C56   H9    S    
C52   H41   S    
C34   H6    S    
C33   C36   A    
C40   H17   S    
C53   H12   S    
C18   N1    A    
C1    O1    A    
C46   H26   S    
C19   H47   S    
C48   H32   S    
C4    C12   S    
C9    C10   S    
N1    Zn2   S    
C18   C20   A    
C41   H15   S    
C37   C53   A    
C19   N2    A    
C30   H50   S    
C25   C29   A    
C47   H33   S    
C20   C44   S    
C44   C46   S    
C17   O6    A    
C28   H4    S    
C43   H19   S    
C54   C56   A    
C31   C33   A    
C51   C52   S    
C32   C35   A    
C7    C49   S    
C4    C6    A    
C5    C7    A    
C50   H38   S    
C6    C8    A    
C3    C5    A    
C13   C24   A    
C1    C3    S    
C18   H45   S    
C15   N2    A    
C35   C39   A    
C46   H25   S    
C3    C56   A    
C47   C48   S    
O7    Zn2   S    
C55   H8    S    
C32   H48   S    
C48   H31   S    
C36   C45   A    
C49   H39   S    
C10   C55   A    
C8    C51   S    
O6    Zn2   S    
C11   H23   S    
C41   H16   S    
O5    Zn1   S    
C50   H36   S    
C40   C41   S    
C20   C22   A    
C26   C30   A    
C13   C15   A    
C48   H30   S    
C42   C43   S    
C44   H29   S    
C16   O7    A    
C12   O4    A    
C16   C25   S    
C7    C9    A    
C14   N1    A    
C52   H43   S    
C35   C37   A    
C34   C38   A    
C47   H35   S    
N2    Zn1   S    
C15   C42   S    
C2    H10   S    
C50   H37   S    
C42   H22   S    
C27   C36   A    
C43   H21   S    
C11   C22   A    
C33   C38   A    
C44   H28   S    
C51   H44   S    
C28   C30   A    
C27   H3    S    
C1    O3    A    
O4    Zn1   S    
C28   C37   A    
C23   C39   A    
C52   H42   S    
C40   H18   S    
C22   C24   S    
C49   H40   S    
C14   C40   S    
C46   H27   S    
C23   H5    S    
C29   H2    S    
C34   C53   A    
C8    C10   A    
C49   C50   S    
C21   C24   A    
C43   H20   S    
C9    C54   A    
C17   O8    A    
C41   H14   S    
C21   C47   S    
