data_mof_unit_45324.cif
_audit_creation_date              2012-12-11T15:50:38-0500
_audit_creation_method            fapswitch 2.2
_symmetry_space_group_name_H-M    P1
_symmetry_Int_Tables_number       1
_space_group_crystal_system       monoclinic
_cell_length_a                    6.928216
_cell_length_b                    14.554713
_cell_length_c                    16.089066
_cell_angle_alpha                 90.0
_cell_angle_beta                  90.0
_cell_angle_gamma                 89.99994
_cell_volume                      1622.39238243

loop_
_atom_site_label
_atom_site_type_symbol
_atom_type_description
_atom_site_fract_x
_atom_site_fract_y
_atom_site_fract_z
_atom_type_partial_charge
O1    O     O_R   0.638140 0.833910 0.163320 -0.540444
O2    O     O_R   0.361860 0.166090 0.836680 -0.540444
O3    O     O_R   0.361860 0.166090 0.663320 -0.540444
O4    O     O_R   0.638140 0.833910 0.336680 -0.540444
O5    O     O_R   0.138140 0.666090 0.336680 -0.540444
O6    O     O_R   0.861860 0.333910 0.663320 -0.540444
O7    O     O_R   0.861860 0.333910 0.836680 -0.540444
O8    O     O_R   0.138140 0.666090 0.163320 -0.540444
O9    O     O_R   0.308390 0.844930 0.336080 -0.543469
O10   O     O_R   0.691610 0.155070 0.663920 -0.543469
O11   O     O_R   0.691610 0.155070 0.836080 -0.543469
O12   O     O_R   0.308390 0.844930 0.163920 -0.543469
O13   O     O_R   0.808390 0.655070 0.163920 -0.543469
O14   O     O_R   0.191610 0.344930 0.836080 -0.543469
O15   O     O_R   0.191610 0.344930 0.663920 -0.543469
O16   O     O_R   0.808390 0.655070 0.336080 -0.543469
C1    C     C_R   0.477481 0.867193 0.365036 0.687098
C2    C     C_R   0.522519 0.132807 0.634964 0.687099
C3    C     C_R   0.522519 0.132807 0.865036 0.687098
C4    C     C_R   0.477481 0.867193 0.134964 0.687099
C5    C     C_R   0.977481 0.632807 0.134964 0.687099
C6    C     C_R   0.022519 0.367193 0.865036 0.687098
C7    C     C_R   0.022519 0.367193 0.634964 0.687099
C8    C     C_R   0.977481 0.632807 0.365036 0.687098
O17   O     O_3   0.471620 0.691320 0.250000 -0.369490
O18   O     O_3   0.528380 0.308680 0.750000 -0.369490
O19   O     O_3   0.971620 0.808680 0.250000 -0.369490
O20   O     O_3   0.028380 0.191320 0.750000 -0.369490
V1    V     V_3+5 0.196770 0.760880 0.250000 1.399849
V2    V     V_3+5 0.803230 0.239120 0.750000 1.399849
V3    V     V_3+5 0.696770 0.739120 0.250000 1.399849
V4    V     V_3+5 0.303230 0.260880 0.750000 1.399849
C9    C     C_R   0.820466 0.524937 0.467271 -0.156063
C10   C     C_R   0.179534 0.475063 0.532729 -0.156063
C11   C     C_R   0.179534 0.475063 0.967271 -0.156063
C12   C     C_R   0.820466 0.524937 0.032729 -0.156063
C13   C     C_R   0.320466 0.975066 0.032731 -0.156063
C14   C     C_R   0.679534 0.024934 0.967269 -0.156063
C15   C     C_R   0.679534 0.024934 0.532731 -0.156063
C16   C     C_R   0.320466 0.975066 0.467269 -0.156063
C17   C     C_R   0.831612 0.461364 0.532454 -0.150681
C18   C     C_R   0.168387 0.538636 0.467546 -0.150681
C19   C     C_R   0.168387 0.538636 0.032454 -0.150681
C20   C     C_R   0.831612 0.461364 0.967546 -0.150681
C21   C     C_R   0.331612 0.038639 0.967548 -0.150681
C22   C     C_R   0.668388 0.961361 0.032452 -0.150681
C23   C     C_R   0.668388 0.961361 0.467548 -0.150681
C24   C     C_R   0.331612 0.038639 0.532452 -0.150681
H1    H     H_    0.698807 0.432343 0.556334 0.118689
H2    H     H_    0.301193 0.567656 0.443666 0.118688
H3    H     H_    0.301193 0.567656 0.056334 0.118689
H4    H     H_    0.698807 0.432343 0.943666 0.118688
H5    H     H_    0.198806 0.067662 0.943670 0.118688
H6    H     H_    0.801194 0.932338 0.056330 0.118688
H7    H     H_    0.801194 0.932338 0.443670 0.118688
H8    H     H_    0.198806 0.067662 0.556330 0.118688
C25   C     C_R   0.011301 0.435532 0.566141 -0.047025
C26   C     C_R   0.988699 0.564468 0.433859 -0.047025
C27   C     C_R   0.988699 0.564468 0.066141 -0.047025
C28   C     C_R   0.011301 0.435532 0.933859 -0.047025
C29   C     C_R   0.511301 0.064468 0.933859 -0.047025
C30   C     C_R   0.488699 0.935532 0.066141 -0.047025
C31   C     C_R   0.488699 0.935532 0.433859 -0.047024
C32   C     C_R   0.511301 0.064468 0.566141 -0.047024
H9    H     H_    0.679639 0.543089 0.443131 0.116715
H10   H     H_    0.320361 0.456910 0.556869 0.116715
H11   H     H_    0.320361 0.456910 0.943131 0.116715
H12   H     H_    0.679639 0.543089 0.056869 0.116715
H13   H     H_    0.179638 0.956916 0.056873 0.116715
H14   H     H_    0.820362 0.043084 0.943127 0.116715
H15   H     H_    0.820362 0.043084 0.556873 0.116715
H16   H     H_    0.179638 0.956916 0.443127 0.116715

loop_
_geom_bond_atom_site_label_1
_geom_bond_atom_site_label_2
_ccdc_geom_bond_type
O17   V3    S    
C14   H14   S    
O18   V4    S    
C9    C26   A    
C13   H13   S    
O12   V1    S    
O19   V1    S    
C10   C18   A    
C24   H8    S    
C12   C27   A    
C2    C32   S    
C10   H10   S    
C13   C30   A    
C9    H9    S    
O15   V4    S    
O16   V3    S    
C15   C32   A    
O11   C3    A    
C16   C31   A    
C22   C30   A    
O8    V1    S    
C15   C23   A    
O10   C2    A    
C5    C27   S    
C6    C28   S    
C3    C29   S    
C24   C32   A    
O1    V3    S    
O3    C2    A    
O2    V4    S    
C16   C24   A    
C18   C26   A    
O11   V2    S    
C10   C25   A    
C11   C19   A    
O9    V1    S    
C14   C29   A    
C20   H4    S    
O15   C7    A    
C21   H5    S    
O16   C8    A    
O7    V2    S    
O12   C4    A    
C17   H1    S    
O5    V1    S    
O17   V1    S    
O19   V3    S    
O20   V4    S    
C11   C28   A    
O10   V2    S    
C11   H11   S    
C22   H6    S    
O8    C5    A    
O13   C5    A    
C18   H2    S    
O4    C1    A    
O9    C1    A    
O6    V2    S    
O18   V2    S    
C12   C20   A    
C13   C21   A    
C23   H7    S    
C7    C25   S    
O1    C4    A    
C16   H16   S    
O2    C3    A    
O13   V3    S    
O14   V4    S    
C12   H12   S    
C19   C27   A    
O7    C6    A    
C9    C17   A    
O14   C6    A    
O20   V2    S    
C17   C25   A    
C1    C31   S    
C23   C31   A    
C19   H3    S    
O5    C8    A    
C20   C28   A    
O6    C7    A    
C21   C29   A    
C4    C30   S    
O3    V4    S    
C14   C22   A    
O4    V3    S    
C8    C26   S    
C15   H15   S    
