data_mof_unit_12292.cif
_audit_creation_date              2012-12-11T14:17:42-0500
_audit_creation_method            fapswitch 2.2
_symmetry_space_group_name_H-M    P1
_symmetry_Int_Tables_number       1
_space_group_crystal_system       triclinic
_cell_length_a                    6.949675
_cell_length_b                    13.686187
_cell_length_c                    20.465147
_cell_angle_alpha                 101.960022
_cell_angle_beta                  91.001729
_cell_angle_gamma                 90.565447
_cell_volume                      1903.80661811

loop_
_atom_site_label
_atom_site_type_symbol
_atom_type_description
_atom_site_fract_x
_atom_site_fract_y
_atom_site_fract_z
_atom_type_partial_charge
O1    O     O_R   0.506860 0.599390 0.449240 -0.543009
O2    O     O_R   0.180220 0.594600 0.586780 -0.552326
O3    O     O_R   0.004500 0.400610 0.550760 -0.535484
C1    C     C_R   0.350414 0.612401 0.614732 0.649718
O4    O     O_R   0.177490 0.611290 0.451970 -0.539901
O5    O     O_R   0.001750 0.417420 0.414990 -0.558114
C2    C     C_R   0.345797 0.636733 0.434470 0.794352
O6    O     O_R   0.509610 0.582580 0.585010 -0.538370
O7    O     O_3   0.337420 0.436370 0.488020 -0.373023
V1    V     V_3+5 0.064680 0.511800 0.502220 1.396173
O8    O     O_R   0.671710 0.405400 0.413220 -0.524687
C3    C     C_R   0.838953 0.382253 0.387550 0.682170
O9    O     O_R   0.674440 0.388710 0.548030 -0.544804
C4    C     C_R   0.844100 0.362189 0.564649 0.689850
V2    V     V_3+5 0.564010 0.488200 0.497780 1.414098
O10   O     O_3   0.841140 0.563630 0.511980 -0.375528
C5    C     C_R   0.982826 0.124230 0.613773 -0.129878
H1    H     H_    0.970502 0.175177 0.521778 0.106670
H2    H     H_    0.043249 0.003733 0.696089 0.139437
H3    H     H_    0.039165 0.052287 0.590014 0.114297
C6    C     C_R   0.860495 0.284592 0.603580 -0.062469
C7    C     C_R   0.808400 0.308226 0.924480 -0.234068
C8    C     C_R   0.809418 0.385805 0.890522 -0.143854
C9    C     C_R   0.851459 0.368829 0.822526 0.315722
C10   C     C_R   0.876304 0.268820 0.785763 -0.016579
C11   C     C_R   0.895775 0.190682 0.822519 -0.073010
C12   C     C_R   0.886694 0.243562 0.714279 0.070806
C13   C     C_R   0.954907 0.148278 0.682957 0.061780
C14   C     C_R   0.991149 0.076480 0.720310 -0.278522
C15   C     C_R   0.949720 0.093809 0.788071 0.429243
C16   C     C_R   0.826676 0.308077 0.672218 -0.171538
C17   C     C_R   0.940808 0.193179 0.574651 -0.171478
C18   C     C_R   0.858939 0.212099 0.892427 -0.080732
H4    H     H_    0.753523 0.376931 0.691125 0.161507
H5    H     H_    0.776893 0.324358 0.977292 0.113564
H6    H     H_    0.784789 0.460963 0.918210 0.125784
C19   C     C_2   0.003568 0.268791 0.293580 0.155931
C20   C     C_2   0.838619 0.310000 0.322564 0.190216
C21   C     C_2   0.020192 0.213351 0.222187 0.301192
C22   C     C_2   0.867231 0.180134 0.180414 -0.426717
H7    H     H_    0.722205 0.196185 0.194763 0.185718
C23   C     C_2   0.206979 0.777766 0.784746 -0.076377
C24   C     C_2   0.362107 0.823805 0.817715 -0.242409
H8    H     H_    0.069104 0.784555 0.808869 0.114452
H9    H     H_    0.497862 0.819354 0.792316 0.145838
C25   C     C_2   0.213580 0.723987 0.713398 -0.247772
C26   C     C_2   0.363817 0.668642 0.685846 0.297998
H10   H     H_    0.086597 0.729763 0.682889 0.096179
C27   C     C_R   0.341068 0.886510 0.385145 0.392705
H11   H     H_    0.352642 0.009569 0.300133 0.148006
C28   C     C_R   0.353774 0.712717 0.393607 -0.208074
C29   C     C_R   0.332696 0.682684 0.068813 0.416273
C30   C     C_R   0.309420 0.607095 0.105021 0.243276
C31   C     C_R   0.314253 0.630826 0.175011 -0.284217
C32   C     C_R   0.350233 0.729461 0.211050 0.089086
C33   C     C_R   0.360772 0.806437 0.173869 -0.000958
C34   C     C_R   0.363046 0.755296 0.282872 0.016883
C35   C     C_R   0.353491 0.857890 0.314972 -0.047748
C36   C     C_R   0.357470 0.931478 0.276773 -0.158306
C37   C     C_R   0.369238 0.906539 0.207983 -0.168586
C38   C     C_R   0.386245 0.684026 0.324263 0.148841
C39   C     C_R   0.326803 0.813428 0.423778 0.164920
C40   C     C_R   0.356645 0.782376 0.103073 -0.242222
H12   H     H_    0.279870 0.570837 0.199630 0.184274
H13   H     H_    0.377696 0.967094 0.181586 0.098424
O11   O     O_R   0.203230 0.917310 0.915020 -0.517716
O12   O     O_R   0.535500 0.888690 0.048040 -0.538180
O13   O     O_R   0.711080 0.082610 0.085000 -0.548531
C41   C     C_R   0.366818 0.861227 0.064079 0.767059
O14   O     O_R   0.532630 0.905370 0.913230 -0.555588
O15   O     O_R   0.708190 0.099410 0.949230 -0.547477
C42   C     C_R   0.363205 0.884772 0.886483 0.753168
O16   O     O_R   0.206120 0.900510 0.050790 -0.551951
O17   O     O_3   0.375360 0.063570 0.011990 -0.379302
V3    V     V_3+5 0.648170 0.988200 0.997780 1.423842
O18   O     O_R   0.038240 0.111390 0.951940 -0.525861
C43   C     C_R   0.869077 0.136532 0.933962 0.793967
O19   O     O_R   0.041120 0.094710 0.086750 -0.542604
C44   C     C_R   0.875019 0.115534 0.113234 0.730637
V4    V     V_3+5 0.148810 0.011930 0.002180 1.445696
O20   O     O_3   0.871750 0.936430 0.988010 -0.376489
O21   O     O_3   0.659216 0.279463 0.295851 -0.557890
C45   C     C_3   0.612670 0.189267 0.315631 -0.251567
H14   H     H_    0.602106 0.200932 0.370786 0.129936
H15   H     H_    0.718789 0.129642 0.297962 0.116446
H16   H     H_    0.472763 0.161670 0.292385 0.211628
N1    N     N_2   0.212651 0.197094 0.199731 -0.486782
H17   H     H_    0.249216 0.124710 0.179312 0.255390
C46   C     C_3   0.288807 0.272534 0.166734 -0.445938
H18   H     H_    0.440207 0.255729 0.152956 0.186454
H19   H     H_    0.284961 0.347232 0.200682 0.191769
H20   H     H_    0.204062 0.274029 0.120475 0.175480
O22   O     O_3   0.510116 0.647841 0.728038 -0.547847
C47   C     C_3   0.692727 0.672016 0.706275 -0.229880
H21   H     H_    0.690205 0.734734 0.679092 0.101045
H22   H     H_    0.758232 0.604734 0.675346 0.171678
H23   H     H_    0.787553 0.695754 0.750952 0.136106
N2    N     N_2   0.285549 0.841730 0.493193 -0.508045
H24   H     H_    0.199080 0.903201 0.506531 0.278457
C48   C     C_3   0.443951 0.838991 0.539802 -0.546513
H25   H     H_    0.488176 0.916195 0.564573 0.186038
H26   H     H_    0.571151 0.800223 0.514839 0.194109
H27   H     H_    0.396096 0.799431 0.578846 0.180109
O23   O     O_3   0.331817 0.986332 0.416134 -0.562636
C49   C     C_3   0.520764 0.021951 0.434108 -0.293834
H28   H     H_    0.513749 0.100809 0.461286 0.156297
H29   H     H_    0.609942 0.019705 0.389236 0.130205
H30   H     H_    0.592550 0.979249 0.468049 0.161481
N3    N     N_2   0.456334 0.586407 0.297737 -0.530659
H31   H     H_    0.403730 0.529673 0.318876 0.248668
C50   C     C_3   0.661956 0.581812 0.287965 -0.501938
H32   H     H_    0.701382 0.504599 0.263520 0.189058
H33   H     H_    0.740089 0.602476 0.336815 0.192730
H34   H     H_    0.706747 0.633015 0.255222 0.201342
O24   O     O_3   0.345864 0.658882 0.999883 -0.549977
C51   C     C_3   0.159826 0.655359 0.970580 -0.216931
H35   H     H_    0.062652 0.714115 0.997282 0.122226
H36   H     H_    0.093538 0.580387 0.967058 0.164863
H37   H     H_    0.173304 0.667515 0.918902 0.149509
N4    N     N_2   0.285720 0.506087 0.070712 -0.479630
H38   H     H_    0.389705 0.460306 0.084177 0.253672
C52   C     C_3   0.094164 0.464925 0.073687 -0.582886
H39   H     H_    0.084496 0.389928 0.040293 0.199706
H40   H     H_    0.984355 0.513387 0.057022 0.203503
H41   H     H_    0.062469 0.457043 0.125389 0.179039
N5    N     N_2   0.886324 0.453910 0.794176 -0.554128
H42   H     H_    0.814051 0.517195 0.816635 0.266609
C53   C     C_3   0.087453 0.474280 0.784604 -0.532725
H43   H     H_    0.100062 0.538551 0.759534 0.206235
H44   H     H_    0.155540 0.408783 0.752543 0.215011
H45   H     H_    0.165243 0.493018 0.833589 0.207034
O25   O     O_3   0.972657 0.015938 0.820792 -0.551278
C54   C     C_3   0.819031 0.947314 0.801807 -0.241302
H46   H     H_    0.836634 0.903578 0.750134 0.113561
H47   H     H_    0.676746 0.984781 0.806546 0.123318
H48   H     H_    0.820060 0.894052 0.835761 0.169069
N6    N     N_2   0.174557 0.270543 0.333451 -0.505795
H49   H     H_    0.247620 0.337888 0.346229 0.288938
C55   C     C_3   0.166292 0.210493 0.384082 -0.473015
H50   H     H_    0.302489 0.218583 0.413655 0.195927
H51   H     H_    0.142525 0.130804 0.360038 0.205369
H52   H     H_    0.048053 0.234051 0.419263 0.157888

loop_
_geom_bond_atom_site_label_1
_geom_bond_atom_site_label_2
_ccdc_geom_bond_type
N1    H17   S    
O22   C47   S    
C31   C32   A    
C50   H32   S    
C28   C38   A    
C21   N1    S    
C32   C33   A    
C38   N3    S    
C53   H43   S    
C27   O23   S    
C30   N4    S    
C30   C31   A    
N4    H38   S    
O13   V3    S    
C7    H5    S    
N6    C55   S    
N5    H42   S    
H11   C36   S    
C4    C6    S    
C13   C14   A    
C19   C20   D    
N3    C50   S    
O5    C3    A    
C55   H52   S    
O19   V4    S    
V2    O10   S    
C5    H3    S    
C51   H35   S    
C23   C25   S    
C34   C38   A    
C39   N2    S    
O8    V2    S    
O11   C42   A    
C40   C41   S    
O25   C54   S    
C54   H48   S    
C8    C9    A    
C41   O16   A    
O1    V2    S    
C46   H19   S    
O7    V1    S    
C1    O6    A    
C49   H29   S    
O13   C44   A    
C24   C42   S    
C36   C37   A    
C19   N6    S    
O9    C4    A    
C20   O21   S    
C9    N5    S    
C28   C39   A    
C23   H8    S    
O23   C49   S    
C49   H30   S    
N4    C52   S    
C6    C17   A    
C25   H10   S    
C22   C44   S    
O17   V3    S    
C12   C16   A    
C9    C10   A    
C46   H18   S    
C21   C22   D    
O4    C2    A    
O19   C44   A    
V3    O20   S    
C47   H23   S    
C10   C11   A    
O21   C45   S    
C48   H27   S    
C27   C35   A    
C33   C37   A    
O12   C41   A    
O2    C1    A    
C14   C15   A    
C6    C16   A    
C11   C18   A    
C45   H14   S    
O9    V2    S    
C55   H50   S    
C48   H26   S    
C26   O22   S    
C33   C40   A    
C50   H33   S    
O18   C43   A    
C46   H20   S    
C47   H22   S    
C24   H9    S    
O3    C4    A    
C22   H7    S    
C45   H15   S    
C37   H13   S    
N2    H24   S    
O6    V2    S    
N2    C48   S    
C32   C34   A    
C54   H46   S    
O12   V3    S    
C23   C24   D    
C52   H40   S    
O2    V1    S    
C53   H45   S    
O15   C43   A    
C16   H4    S    
C29   C30   A    
C49   H28   S    
C29   O24   S    
C7    C18   A    
C25   C26   D    
N5    C53   S    
C27   C39   A    
O1    C2    A    
C5    C13   A    
O18   V4    S    
V4    O20   S    
C29   C40   A    
C53   H44   S    
O5    V1    S    
O14   C42   A    
O8    C3    A    
C11   C15   A    
C10   C12   A    
O11   V4    S    
N6    H49   S    
C51   H37   S    
C52   H41   S    
N1    C46   S    
C35   C36   A    
C2    C28   S    
O4    V1    S    
C19   C21   S    
O3    V1    S    
V1    O10   S    
N3    H31   S    
O15   V3    S    
C55   H51   S    
C18   C43   S    
C34   C35   A    
C31   H12   S    
C15   O25   S    
C48   H25   S    
O16   V4    S    
C51   H36   S    
C50   H34   S    
C3    C20   S    
C47   H21   S    
C45   H16   S    
H1    C17   S    
C8    H6    S    
O14   V3    S    
C54   H47   S    
C5    C17   A    
C7    C8    A    
O17   V4    S    
C52   H39   S    
O24   C51   S    
O7    V2    S    
C12   C13   A    
C1    C26   S    
H2    C14   S    
