data_mof_unit_21681.cif
_audit_creation_date              2012-12-10T17:09:19-0500
_audit_creation_method            fapswitch 2.2
_symmetry_space_group_name_H-M    P1
_symmetry_Int_Tables_number       1
_space_group_crystal_system       monoclinic
_cell_length_a                    18.215786
_cell_length_b                    18.545252
_cell_length_c                    11.750152
_cell_angle_alpha                 90.0
_cell_angle_beta                  75.112984
_cell_angle_gamma                 90.0
_cell_volume                      3836.15799318

loop_
_atom_site_label
_atom_site_type_symbol
_atom_type_description
_atom_site_fract_x
_atom_site_fract_y
_atom_site_fract_z
_atom_type_partial_charge
C1    C     C_R   0.399269 0.100169 0.521739 0.801434
C2    C     C_R   0.464138 0.998283 0.039975 0.026422
C3    C     C_R   0.035862 0.501717 0.960025 0.026422
C4    C     C_R   0.964138 0.501717 0.039975 0.026422
C5    C     C_R   0.408899 0.000691 0.871820 0.368056
C6    C     C_R   0.591101 0.000691 0.128180 0.368057
C7    C     C_R   0.908899 0.499309 0.871820 0.368057
C8    C     C_R   0.091101 0.499309 0.128180 0.368057
C9    C     C_R   0.401027 0.998355 0.994638 -0.317993
C10   C     C_R   0.598973 0.998355 0.005362 -0.317994
C11   C     C_R   0.901027 0.501645 0.994638 -0.317993
C12   C     C_R   0.601358 0.900366 0.478046 0.802914
C13   C     C_R   0.098973 0.501645 0.005362 -0.317994
C14   C     C_R   0.543120 0.998593 0.836331 -0.009352
C15   C     C_R   0.456880 0.998593 0.163669 -0.009352
C16   C     C_R   0.043120 0.501407 0.836331 -0.009352
C17   C     C_R   0.956880 0.501407 0.163669 -0.009352
C18   C     C_R   0.655648 0.158606 0.466681 -0.043976
C19   C     C_R   0.341186 0.844106 0.534630 -0.049375
C20   C     C_R   0.344352 0.158606 0.533319 -0.043976
C21   C     C_R   0.658814 0.844106 0.465369 -0.049375
C22   C     C_R   0.158814 0.655894 0.465369 -0.049376
C23   C     C_R   0.600730 0.100169 0.478261 0.801433
C24   C     C_R   0.844352 0.341394 0.533319 -0.043976
C25   C     C_R   0.841186 0.655894 0.534630 -0.049375
C26   C     C_R   0.155648 0.341394 0.466681 -0.043976
C27   C     C_R   0.249755 0.763287 0.656912 -0.213655
C28   C     C_R   0.717301 0.264343 0.364334 -0.212882
C29   C     C_R   0.750245 0.763287 0.343088 -0.213655
C30   C     C_R   0.282699 0.264343 0.635666 -0.212882
C31   C     C_R   0.782699 0.235657 0.635666 -0.212882
C32   C     C_R   0.250245 0.736713 0.343088 -0.213655
C33   C     C_R   0.217301 0.235657 0.364334 -0.212882
C34   C     C_R   0.398642 0.900366 0.521954 0.802914
C35   C     C_R   0.749755 0.736713 0.656912 -0.213655
C36   C     C_R   0.304384 0.816982 0.646180 -0.201596
C37   C     C_R   0.667167 0.206872 0.371927 -0.195076
C38   C     C_R   0.695616 0.816982 0.353820 -0.201596
C39   C     C_R   0.332833 0.206872 0.628073 -0.195077
C40   C     C_R   0.832833 0.293128 0.628073 -0.195076
C41   C     C_R   0.195616 0.683018 0.353820 -0.201596
C42   C     C_R   0.167167 0.293128 0.371927 -0.195077
C43   C     C_R   0.804384 0.683018 0.646180 -0.201596
C44   C     C_R   0.322915 0.817247 0.433799 -0.265596
C45   C     C_R   0.898642 0.599634 0.521954 0.802914
C46   C     C_R   0.694249 0.168219 0.554434 -0.264458
C47   C     C_R   0.677085 0.817247 0.566201 -0.265596
C48   C     C_R   0.305751 0.168220 0.445566 -0.264458
C49   C     C_R   0.805751 0.331780 0.445566 -0.264458
C50   C     C_R   0.177084 0.682753 0.566201 -0.265596
C51   C     C_R   0.194249 0.331780 0.554434 -0.264458
C52   C     C_R   0.822915 0.682753 0.433799 -0.265596
C53   C     C_R   0.268424 0.763595 0.443783 0.174283
C54   C     C_R   0.744182 0.225779 0.547938 0.173872
C55   C     C_R   0.731576 0.763595 0.556217 0.174283
C56   C     C_R   0.100731 0.399831 0.478261 0.801433
C57   C     C_R   0.255817 0.225779 0.452062 0.173872
C58   C     C_R   0.755817 0.274221 0.452062 0.173872
C59   C     C_R   0.231576 0.736404 0.556217 0.174283
C60   C     C_R   0.244183 0.274221 0.547938 0.173872
C61   C     C_R   0.768424 0.736404 0.443783 0.174283
C62   C     C_3   0.665579 0.003881 0.163239 -0.375859
C63   C     C_3   0.708044 0.074369 0.123270 -0.858116
C64   C     C_3   0.334421 0.003881 0.836761 -0.375859
C65   C     C_3   0.291956 0.074369 0.876730 -0.858116
C66   C     C_3   0.165579 0.496119 0.163239 -0.375860
C67   C     C_R   0.101358 0.599634 0.478046 0.802913
C68   C     C_3   0.208044 0.425631 0.123270 -0.858116
C69   C     C_3   0.834421 0.496119 0.836761 -0.375859
C70   C     C_3   0.791956 0.425631 0.876730 -0.858116
C71   C     C_R   0.899269 0.399831 0.521739 0.801434
C72   C     C_R   0.535862 0.998283 0.960025 0.026422
Cu1   Cu    Cu3+1 0.507800 0.000000 0.383250 0.928272
Cu2   Cu    Cu3+1 0.492200 0.000000 0.616750 0.928272
Cu3   Cu    Cu3+1 0.007800 0.500000 0.383250 0.928272
Cu4   Cu    Cu3+1 0.992200 0.500000 0.616750 0.928272
H1    H     H_    0.401032 0.998219 0.224515 0.123640
H2    H     H_    0.814650 0.369038 0.372098 0.144023
H3    H     H_    0.851037 0.662082 0.347235 0.152516
H4    H     H_    0.185350 0.369038 0.627902 0.144023
H5    H     H_    0.635848 0.201368 0.305687 0.153113
H6    H     H_    0.317735 0.837203 0.724994 0.151419
H7    H     H_    0.364152 0.201368 0.694313 0.153113
H8    H     H_    0.682265 0.837203 0.275006 0.151419
H9    H     H_    0.182265 0.662796 0.275006 0.151419
H10   H     H_    0.864152 0.298632 0.694313 0.153113
H11   H     H_    0.817735 0.662796 0.724994 0.151419
H12   H     H_    0.598968 0.998219 0.775485 0.123640
H13   H     H_    0.135848 0.298632 0.305687 0.153113
H14   H     H_    0.774655 0.198628 0.709204 0.135456
H15   H     H_    0.278194 0.757165 0.256372 0.133449
H16   H     H_    0.225345 0.198628 0.290796 0.135456
H17   H     H_    0.721806 0.757165 0.743628 0.133449
H18   H     H_    0.221806 0.742835 0.743628 0.133449
H19   H     H_    0.725345 0.301372 0.290796 0.135456
H20   H     H_    0.778194 0.742835 0.256372 0.133449
H21   H     H_    0.274655 0.301372 0.709204 0.135456
H22   H     H_    0.344971 0.997404 0.055208 0.140336
H23   H     H_    0.901032 0.501781 0.224515 0.123640
H24   H     H_    0.655029 0.997404 0.944792 0.140337
H25   H     H_    0.844971 0.502596 0.055208 0.140336
H26   H     H_    0.155029 0.502596 0.944792 0.140337
H27   H     H_    0.731680 0.074941 0.026283 0.239534
H28   H     H_    0.669319 0.121080 0.148691 0.259196
H29   H     H_    0.755925 0.080117 0.165094 0.247149
H30   H     H_    0.660136 0.998454 0.257155 0.254472
H31   H     H_    0.701954 0.957919 0.121855 0.163416
H32   H     H_    0.268320 0.074941 0.973716 0.239534
H33   H     H_    0.330681 0.121080 0.851309 0.259196
H34   H     H_    0.098968 0.501781 0.775485 0.123640
H35   H     H_    0.244075 0.080117 0.834906 0.247149
H36   H     H_    0.339864 0.998454 0.742845 0.254472
H37   H     H_    0.298046 0.957920 0.878145 0.163416
H38   H     H_    0.169319 0.378920 0.148691 0.259196
H39   H     H_    0.231680 0.425059 0.026283 0.239534
H40   H     H_    0.255925 0.419883 0.165094 0.247149
H41   H     H_    0.201953 0.542080 0.121855 0.163416
H42   H     H_    0.160136 0.501546 0.257155 0.254472
H43   H     H_    0.830681 0.378920 0.851309 0.259196
H44   H     H_    0.768320 0.425059 0.973717 0.239534
H45   H     H_    0.685349 0.130962 0.627902 0.144023
H46   H     H_    0.744075 0.419883 0.834906 0.247149
H47   H     H_    0.798046 0.542080 0.878145 0.163416
H48   H     H_    0.839864 0.501546 0.742845 0.254472
H49   H     H_    0.351037 0.837918 0.347235 0.152516
H50   H     H_    0.314650 0.130962 0.372098 0.144023
H51   H     H_    0.648963 0.837918 0.652765 0.152516
H52   H     H_    0.148963 0.662082 0.652765 0.152516
N1    N     N_R   0.519530 1.000000 0.207810 -0.195069
N2    N     N_R   0.480470 0.000000 0.792190 -0.195069
N3    N     N_R   0.019530 0.500000 0.207810 -0.195069
N4    N     N_R   0.980470 0.500000 0.792190 -0.195070
O1    O     O_R   0.430030 0.075530 0.417420 -0.583890
O2    O     O_R   0.583140 0.924490 0.385390 -0.609958
O3    O     O_R   0.583140 0.075510 0.385390 -0.590122
O4    O     O_R   0.416860 0.924490 0.614610 -0.609958
O5    O     O_R   0.916860 0.575510 0.614610 -0.609959
O6    O     O_R   0.083140 0.424490 0.385390 -0.590122
O7    O     O_R   0.083140 0.575510 0.385390 -0.609958
O8    O     O_R   0.916860 0.424490 0.614610 -0.590123
O9    O     O_R   0.569970 0.924470 0.582580 -0.585997
O10   O     O_R   0.569970 0.075530 0.582580 -0.583890
O11   O     O_R   0.430030 0.924470 0.417420 -0.585997
O12   O     O_R   0.930030 0.575530 0.417420 -0.585997
O13   O     O_R   0.069970 0.424470 0.582580 -0.583890
O14   O     O_R   0.069970 0.575530 0.582580 -0.585997
O15   O     O_R   0.930030 0.424470 0.417420 -0.583890
O16   O     O_R   0.416860 0.075510 0.614610 -0.590123

loop_
_geom_bond_atom_site_label_1
_geom_bond_atom_site_label_2
_ccdc_geom_bond_type
C71   O15   A    
C8    C66   S    
C9    H22   S    
C17   N3    A    
Cu1   Cu2   S    
C66   C68   S    
C25   C43   A    
C53   C59   A    
C16   H34   S    
C48   C57   A    
Cu4   O5    S    
C31   C40   A    
C7    C11   A    
C30   H21   S    
C8    C13   A    
C28   H19   S    
C50   C59   A    
Cu2   O16   S    
C18   C37   A    
C52   C61   A    
C54   C58   A    
C1    O1    A    
C64   H36   S    
C22   C41   A    
C69   H47   S    
C49   H2    S    
C40   H10   S    
C56   O13   A    
C51   H4    S    
C65   H35   S    
C44   C53   A    
C21   C38   A    
Cu1   O3    S    
C36   H6    S    
C66   H41   S    
C30   C60   A    
C29   C38   A    
C45   O12   A    
C32   C41   A    
C23   O10   A    
C63   H29   S    
C52   H3    S    
C35   C43   A    
C65   H32   S    
C3    C13   A    
C22   C50   A    
Cu4   O8    S    
Cu2   O10   S    
Cu4   O14   S    
C12   O2    A    
C37   H5    S    
C8    N3    A    
C6    N1    A    
C2    C72   A    
C18   C46   A    
Cu3   N3    S    
C29   C61   A    
C35   H17   S    
C44   H49   S    
Cu1   N1    S    
C34   O11   A    
C35   C55   A    
C18   C23   S    
C63   H27   S    
Cu3   O12   S    
C33   H16   S    
C70   H44   S    
C20   C39   A    
C57   C60   A    
C62   H31   S    
C69   H48   S    
Cu3   O15   S    
C48   H50   S    
C12   C21   S    
C19   C34   S    
C49   C58   A    
C5    C64   S    
Cu2   O4    S    
Cu3   Cu4   S    
C5    C9    A    
C62   C63   S    
C56   O6    A    
C70   H46   S    
C15   N1    A    
C34   O4    A    
C70   H43   S    
C31   H14   S    
C46   C54   A    
C67   O14   A    
C45   O5    A    
C11   H25   S    
C4    C11   A    
C10   H24   S    
C2    C15   A    
C17   H23   S    
C65   H33   S    
C7    N4    A    
C20   C48   A    
C68   H40   S    
C4    C17   A    
C5    N2    A    
Cu2   O9    S    
Cu1   O1    S    
Cu4   O13   S    
Cu2   N2    S    
C50   H52   S    
C33   C42   A    
C3    C4    A    
C25   C45   S    
C32   C53   A    
C67   O7    A    
C19   C44   A    
C26   C42   A    
C47   C55   A    
C14   N2    A    
C24   C49   A    
C1    C20   S    
C33   C57   A    
C64   H37   S    
C38   H8    S    
C14   C72   A    
C63   H28   S    
C1    O16   A    
Cu3   O6    S    
C26   C56   S    
C7    C69   S    
C29   H20   S    
C47   H51   S    
C71   O8    A    
C62   H30   S    
C28   C58   A    
C27   C36   A    
C41   H9    S    
C23   O3    A    
C19   C36   A    
C42   H13   S    
C43   H11   S    
C64   C65   S    
C6    C62   S    
C12   O9    A    
C25   C52   A    
C14   H12   S    
Cu3   O7    S    
C26   C51   A    
Cu4   N4    S    
C46   H45   S    
C15   H1    S    
C28   C37   A    
C55   C61   A    
C24   C40   A    
C30   C39   A    
C31   C54   A    
C69   C70   S    
C16   N4    A    
Cu1   O11   S    
C22   C67   S    
C6    C10   A    
C68   H39   S    
C39   H7    S    
C32   H15   S    
Cu1   O2    S    
C66   H42   S    
C27   H18   S    
C27   C59   A    
C51   C60   A    
C13   H26   S    
C2    C9    A    
C3    C16   A    
C24   C71   S    
C68   H38   S    
C21   C47   A    
C10   C72   A    
