data_mof_unit_56750.cif
_audit_creation_date              2012-12-11T14:42:16-0500
_audit_creation_method            fapswitch 2.2
_symmetry_space_group_name_H-M    P1
_symmetry_Int_Tables_number       1
_space_group_crystal_system       triclinic
_cell_length_a                    18.841185
_cell_length_b                    10.951364
_cell_length_c                    18.838045
_cell_angle_alpha                 90.273332
_cell_angle_beta                  89.92663
_cell_angle_gamma                 89.905891
_cell_volume                      3886.92687188

loop_
_atom_site_label
_atom_site_type_symbol
_atom_type_description
_atom_site_fract_x
_atom_site_fract_y
_atom_site_fract_z
_atom_type_partial_charge
C1    C     C_R   0.727870 0.954165 0.853274 0.584659
C2    C     C_R   0.246912 0.412453 0.924673 -0.011393
C3    C     C_2   0.696619 0.052605 0.397129 0.625523
C4    C     C_R   0.251741 0.909350 0.076289 -0.012822
C5    C     C_R   0.746912 0.912453 0.924673 -0.011393
C6    C     C_R   0.804387 0.346934 0.037609 0.390916
C7    C     C_R   0.193136 0.354005 0.963656 0.386637
C8    C     C_R   0.304387 0.846935 0.037609 0.390916
C9    C     C_R   0.693136 0.854005 0.963656 0.386637
C10   C     C_R   0.803181 0.347619 0.964990 -0.068499
C11   C     C_R   0.194838 0.354642 0.036279 -0.075237
C12   C     C_R   0.303181 0.847619 0.964990 -0.068499
C13   C     C_R   0.271829 0.953243 0.147082 0.576029
C14   C     C_R   0.694838 0.854641 0.036279 -0.075235
C15   C     C_R   0.745388 0.396962 0.928267 -0.077061
C16   C     C_R   0.253893 0.399728 0.072723 -0.079954
C17   C     C_R   0.245388 0.896963 0.928267 -0.077061
C18   C     C_R   0.753893 0.899728 0.072723 -0.079949
C19   C     C_R   0.473864 0.270473 0.544583 -0.172665
C20   C     C_R   0.470080 0.275537 0.472331 -0.206110
C21   C     C_R   0.973862 0.770467 0.544582 -0.172656
C22   C     C_R   0.970078 0.775535 0.472331 -0.206079
C23   C     C_R   0.484159 0.170923 0.431265 -0.001090
C24   C     C_R   0.227870 0.454165 0.853274 0.584658
C25   C     C_R   0.496537 0.163243 0.576915 0.006219
C26   C     C_R   0.984168 0.670925 0.431262 -0.001105
C27   C     C_R   0.996544 0.663239 0.576912 0.006215
C28   C     C_R   0.499741 0.059446 0.463853 0.422771
C29   C     C_R   0.505898 0.055298 0.536914 0.410127
C30   C     C_R   0.999764 0.559451 0.463847 0.422724
C31   C     C_R   0.005919 0.555299 0.536908 0.410119
C32   C     C_R   0.789810 0.286688 0.520977 0.005858
C33   C     C_R   0.226384 0.466864 0.451147 0.086371
C34   C     C_R   0.289811 0.786688 0.520977 0.005893
C35   C     C_R   0.771829 0.453243 0.147082 0.576025
C36   C     C_R   0.726395 0.966861 0.451148 0.086383
C37   C     C_R   0.792741 0.311247 0.449089 -0.146464
C38   C     C_R   0.216658 0.494597 0.523025 -0.116720
C39   C     C_R   0.292742 0.811251 0.449089 -0.146399
C40   C     C_R   0.716663 0.994594 0.523024 -0.116728
C41   C     C_R   0.529755 0.177773 0.850876 0.580889
C42   C     C_R   0.470052 0.177248 0.148984 0.577601
C43   C     C_R   0.029755 0.677773 0.850876 0.580889
C44   C     C_R   0.970052 0.677248 0.148984 0.577587
C45   C     C_R   0.747502 0.397565 0.418302 0.023800
C46   C     C_R   0.690455 0.453618 0.040461 -0.030706
C47   C     C_R   0.245408 0.420391 0.575991 0.061450
C48   C     C_R   0.247505 0.897572 0.418304 0.023856
C49   C     C_R   0.745409 0.920387 0.575991 0.061464
C50   C     C_R   0.690279 0.444192 0.457561 0.388371
C51   C     C_R   0.282609 0.314429 0.558518 0.379288
C52   C     C_R   0.190284 0.944203 0.457564 0.388404
C53   C     C_R   0.782607 0.814419 0.558520 0.379292
C54   C     C_R   0.682672 0.412114 0.528645 -0.081670
C55   C     C_R   0.291601 0.283463 0.487413 -0.117409
C56   C     C_R   0.182677 0.912123 0.528647 -0.081640
C57   C     C_R   0.308887 0.454142 0.960387 -0.030024
C58   C     C_R   0.791600 0.783451 0.487415 -0.117413
C59   C     C_R   0.734018 0.338773 0.562321 -0.067775
C60   C     C_R   0.264156 0.358580 0.433839 -0.020364
C61   C     C_R   0.234020 0.838776 0.562322 -0.067762
C62   C     C_R   0.764162 0.858573 0.433840 -0.020369
C63   C     C_R   0.737701 0.362004 0.853995 0.570261
C64   C     C_R   0.262107 0.362443 0.146371 0.570068
C65   C     C_R   0.237701 0.862004 0.853995 0.570260
C66   C     C_R   0.762107 0.862442 0.146371 0.570055
C67   C     C_R   0.729032 0.952614 0.648597 0.588947
C68   C     C_R   0.190455 0.953618 0.040461 -0.030708
C69   C     C_R   0.270751 0.952204 0.351435 0.546598
C70   C     C_R   0.229032 0.452614 0.648597 0.588944
C71   C     C_R   0.770750 0.452203 0.351435 0.546599
C72   C     C_R   0.528441 0.175234 0.645790 0.570653
C73   C     C_R   0.467382 0.176840 0.357032 0.582630
C74   C     C_R   0.028443 0.675234 0.645789 0.570651
C75   C     C_R   0.967385 0.676840 0.357031 0.582589
C76   C     C_R   0.726467 0.312408 0.638495 0.541602
C77   C     C_R   0.273225 0.316045 0.361445 0.561424
C78   C     C_R   0.226468 0.812408 0.638495 0.541591
C79   C     C_R   0.808887 0.954142 0.960387 -0.030024
C80   C     C_R   0.773226 0.816042 0.361445 0.561401
C81   C     C_2   0.497512 0.168907 0.921272 -0.126067
C82   C     C_2   0.501537 0.167039 0.078252 -0.130858
C83   C     C_2   0.997512 0.668907 0.921272 -0.126067
C84   C     C_2   0.001537 0.667039 0.078252 -0.130861
C85   C     C_2   0.490177 0.067785 0.037253 0.366040
C86   C     C_2   0.505135 0.067701 0.960929 0.368402
C87   C     C_2   0.990177 0.567785 0.037253 0.366041
C88   C     C_2   0.005135 0.567701 0.960929 0.368402
C89   C     C_R   0.688683 0.448421 0.966143 -0.148172
C90   C     C_R   0.751741 0.409350 0.076289 -0.012822
C91   C     C_R   0.311023 0.448710 0.034689 -0.145177
C92   C     C_R   0.188683 0.948421 0.966143 -0.148172
C93   C     C_R   0.811023 0.948710 0.034689 -0.145176
C94   C     C_2   0.626041 0.498060 0.078175 0.581743
C95   C     C_2   0.373739 0.495399 0.922570 0.579870
C96   C     C_2   0.126041 0.998060 0.078175 0.581742
C97   C     C_2   0.873739 0.995400 0.922570 0.579870
C98   C     C_2   0.850240 0.214491 0.549096 0.623066
C99   C     C_2   0.196591 0.552600 0.397130 0.625539
C100  C     C_2   0.350235 0.714469 0.549092 0.623043
Cr1   Cr    Cr6+3 0.769270 0.163730 0.750710 1.119617
Cr2   Cr    Cr6+3 0.385840 0.322500 0.252290 1.098743
Cr3   Cr    Cr6+3 0.114160 0.822500 0.747710 1.083663
Cr4   Cr    Cr6+3 0.885840 0.822500 0.252290 1.098772
Cr5   Cr    Cr6+3 0.230730 0.163730 0.249290 1.149478
Cr6   Cr    Cr6+3 0.269270 0.663730 0.750710 1.119629
Cr7   Cr    Cr6+3 0.730730 0.663730 0.249290 1.149451
Cr8   Cr    Cr6+3 0.612620 0.009790 0.748780 1.190158
Cr9   Cr    Cr6+3 0.387380 0.009790 0.251220 1.164537
Cr10  Cr    Cr6+3 0.112620 0.509790 0.748780 1.190155
Cr11  Cr    Cr6+3 0.887380 0.509790 0.251220 1.164535
Cr12  Cr    Cr6+3 0.614160 0.322500 0.747710 1.083668
F1    F     F_    0.465020 0.962191 0.065313 -0.516926
F2    F     F_    0.137044 0.297998 0.932090 -0.527388
F3    F     F_    0.359216 0.788075 0.069541 -0.532075
F4    F     F_    0.637045 0.797997 0.932090 -0.527387
F5    F     F_    0.510923 0.956140 0.425202 -0.549018
F6    F     F_    0.525540 0.948336 0.567440 -0.539448
F7    F     F_    0.010958 0.456151 0.425193 -0.549041
F8    F     F_    0.025571 0.448340 0.567431 -0.539455
F9    F     F_    0.525997 0.959950 0.931374 -0.513144
F10   F     F_    0.965020 0.462190 0.065313 -0.516925
F11   F     F_    0.025996 0.459950 0.931374 -0.513144
F12   F     F_    0.643939 0.524879 0.428682 -0.583104
F13   F     F_    0.308535 0.240274 0.609894 -0.616436
F14   F     F_    0.143945 0.024892 0.428686 -0.583104
F15   F     F_    0.808528 0.740262 0.609897 -0.616428
F16   F     F_    0.859216 0.288075 0.069541 -0.532073
H1    H     H_    0.835911 0.271491 0.418536 0.198532
H2    H     H_    0.476278 0.252217 0.944639 0.066240
H3    H     H_    0.025312 0.748610 0.055884 0.064168
H4    H     H_    0.976278 0.752217 0.944639 0.066241
H5    H     H_    0.641660 0.478446 0.938051 0.207228
H6    H     H_    0.358751 0.476055 0.062580 0.208418
H7    H     H_    0.141660 0.978446 0.938051 0.207228
H8    H     H_    0.858751 0.976055 0.062580 0.208420
H9    H     H_    0.846640 0.302444 0.937754 0.223254
H10   H     H_    0.150834 0.312101 0.063714 0.220740
H11   H     H_    0.346640 0.802445 0.937754 0.223254
H12   H     H_    0.186774 0.575219 0.538495 0.121287
H13   H     H_    0.650834 0.812101 0.063714 0.220740
H14   H     H_    0.464432 0.353532 0.574685 0.183288
H15   H     H_    0.454218 0.361689 0.449104 0.197227
H16   H     H_    0.964422 0.853522 0.574687 0.183284
H17   H     H_    0.954206 0.861685 0.449106 0.197225
H18   H     H_    0.538675 0.604920 0.075908 0.382083
H19   H     H_    0.462652 0.597938 0.924980 0.381199
H20   H     H_    0.038675 0.104920 0.075908 0.382084
H21   H     H_    0.962652 0.097938 0.924980 0.381198
H22   H     H_    0.907653 0.059194 0.543110 0.343958
H23   H     H_    0.335910 0.771492 0.418535 0.198513
H24   H     H_    0.193648 0.610912 0.295632 0.342181
H25   H     H_    0.407645 0.559170 0.543081 0.343953
H26   H     H_    0.693808 0.111084 0.295664 0.342177
H27   H     H_    0.686782 0.075222 0.538490 0.121244
H28   H     H_    0.638227 0.449648 0.558071 0.179681
H29   H     H_    0.319279 0.199602 0.473925 0.112956
H30   H     H_    0.138233 0.949660 0.558074 0.179676
H31   H     H_    0.819275 0.699586 0.473928 0.112973
H32   H     H_    0.525312 0.248610 0.055884 0.064168
O1    O     O_R   0.784320 0.290430 0.830510 -0.501851
O2    O     O_R   0.456080 0.282180 0.333210 -0.518954
O3    O     O_R   0.043920 0.782180 0.666790 -0.533471
O4    O     O_R   0.956080 0.782180 0.333210 -0.518952
O5    O     O_R   0.679040 0.374160 0.674430 -0.483186
O6    O     O_R   0.320960 0.374160 0.325570 -0.460796
O7    O     O_R   0.179040 0.874160 0.674430 -0.483193
O8    O     O_R   0.820960 0.874160 0.325570 -0.460714
O9    O     O_3   0.665350 0.165340 0.749070 -0.336036
O10   O     O_3   0.334650 0.165340 0.250930 -0.339458
O11   O     O_3   0.165350 0.665340 0.749070 -0.336036
O12   O     O_R   0.215680 0.290430 0.169490 -0.502290
O13   O     O_3   0.834650 0.665340 0.250930 -0.339455
O14   O     O_R   0.762640 0.040960 0.825200 -0.489077
O15   O     O_R   0.237360 0.040960 0.174800 -0.491063
O16   O     O_R   0.262640 0.540960 0.825200 -0.489076
O17   O     O_R   0.737360 0.540960 0.174800 -0.491062
O18   O     O_R   0.667400 0.923970 0.829950 -0.406182
O19   O     O_R   0.332600 0.923970 0.170050 -0.405044
O20   O     O_R   0.167400 0.423970 0.829950 -0.406185
O21   O     O_R   0.832600 0.423970 0.170050 -0.405042
O22   O     O_R   0.553960 0.081340 0.821780 -0.425084
O23   O     O_R   0.284320 0.790430 0.830510 -0.501850
O24   O     O_R   0.446040 0.081340 0.178220 -0.423391
O25   O     O_R   0.053960 0.581340 0.821780 -0.425084
O26   O     O_R   0.946040 0.581340 0.178220 -0.423393
O27   O     O_R   0.543180 0.283240 0.826740 -0.494865
O28   O     O_R   0.456820 0.283240 0.173260 -0.493608
O29   O     O_R   0.043180 0.783240 0.826740 -0.494865
O30   O     O_R   0.956820 0.783240 0.173260 -0.493610
O31   O     O_R   0.678360 0.375140 0.822710 -0.487185
O32   O     O_R   0.321640 0.375140 0.177290 -0.484899
O33   O     O_R   0.178360 0.875140 0.822710 -0.487187
O34   O     O_R   0.715680 0.790430 0.169490 -0.502308
O35   O     O_R   0.821640 0.875140 0.177290 -0.484891
O36   O     O_R   0.785050 0.289380 0.670560 -0.441728
O37   O     O_R   0.214950 0.289380 0.329440 -0.421773
O38   O     O_R   0.285050 0.789380 0.670560 -0.441713
O39   O     O_R   0.714950 0.789380 0.329440 -0.421884
O40   O     O_R   0.763320 0.039990 0.676930 -0.516987
O41   O     O_R   0.236680 0.039990 0.323070 -0.450375
O42   O     O_R   0.263320 0.539990 0.676930 -0.516990
O43   O     O_R   0.736680 0.539990 0.323070 -0.450369
O44   O     O_R   0.668130 0.922920 0.670000 -0.458297
O45   O     O_R   0.554640 0.080370 0.673500 -0.442943
O46   O     O_R   0.331870 0.922920 0.330000 -0.519125
O47   O     O_R   0.168130 0.422920 0.670000 -0.458288
O48   O     O_R   0.831870 0.422920 0.330000 -0.519116
O49   O     O_2   0.610275 0.456804 0.136312 -0.491263
O50   O     O_R   0.581401 0.583138 0.045591 -0.644433
O51   O     O_2   0.388687 0.453235 0.864189 -0.487085
O52   O     O_R   0.419741 0.578335 0.955368 -0.644247
O53   O     O_2   0.110275 0.956804 0.136311 -0.491263
O54   O     O_R   0.081401 0.083138 0.045591 -0.644433
O55   O     O_2   0.888687 0.953235 0.864189 -0.487087
O56   O     O_R   0.445360 0.080370 0.326500 -0.450973
O57   O     O_R   0.919741 0.078335 0.955368 -0.644246
O58   O     O_2   0.892603 0.261643 0.589949 -0.393354
O59   O     O_R   0.863640 0.097805 0.521914 -0.725105
O60   O     O_2   0.154273 0.631528 0.415486 -0.543715
O61   O     O_R   0.217496 0.546613 0.325992 -0.644844
O62   O     O_2   0.392592 0.761591 0.589964 -0.393347
O63   O     O_R   0.363638 0.597800 0.521884 -0.725114
O64   O     O_2   0.654213 0.131402 0.415453 -0.543604
O65   O     O_R   0.717651 0.046788 0.326030 -0.644930
O66   O     O_R   0.054640 0.580370 0.673500 -0.442942
O67   O     O_R   0.945360 0.580370 0.326500 -0.450984
O68   O     O_R   0.543920 0.282180 0.666790 -0.533473

loop_
_geom_bond_atom_site_label_1
_geom_bond_atom_site_label_2
_ccdc_geom_bond_type
C70   O42   A    
C87   C88   S    
C99   O61   S    
Cr10  O25   S    
C58   C62   A    
C3    O64   D    
Cr12  O68   S    
Cr5   O12   S    
C45   C71   S    
C43   C83   S    
Cr6   O11   S    
C14   C18   A    
C2    C7    A    
C42   C82   S    
C84   C87   D    
C48   C69   S    
C4    C8    A    
Cr9   O56   S    
Cr12  O27   S    
C66   O35   A    
C2    C57   A    
C46   C89   A    
C85   C86   S    
C7    C11   A    
C78   O7    A    
C68   C96   S    
C1    C5    S    
C95   O52   S    
C45   C50   A    
C7    F2    S    
C62   C80   S    
C28   C29   A    
C11   H10   S    
H25   O63   S    
C48   C52   A    
C58   H31   S    
C54   H28   S    
C74   O3    A    
C97   O55   D    
C49   C53   A    
C15   C89   A    
C30   F7    S    
C43   O25   A    
C40   C49   A    
C39   H23   S    
Cr11  O21   S    
C96   O54   S    
C41   O27   A    
C63   O1    A    
C11   C16   A    
C4    C13   S    
Cr3   O3    S    
C56   H30   S    
C67   O44   A    
C53   F15   S    
C8    F3    S    
C44   O30   A    
C54   C59   A    
C19   C20   A    
C32   C98   S    
C31   F8    S    
C12   C17   A    
C24   O20   A    
Cr2   O32   S    
H22   O59   S    
C20   C23   A    
C73   O56   A    
Cr1   O9    S    
Cr10  O47   S    
Cr3   O29   S    
C10   H9    S    
Cr10  O20   S    
C5    C79   A    
C27   C74   S    
C76   O36   A    
C3    O65   S    
C81   C86   D    
Cr1   O36   S    
Cr2   O2    S    
Cr6   O38   S    
Cr10  O11   S    
C93   H8    S    
Cr5   O37   S    
C83   C88   D    
C21   C27   A    
C14   H13   S    
Cr4   O30   S    
C66   O34   A    
Cr2   O6    S    
C55   C60   A    
Cr7   O17   S    
Cr3   O11   S    
C20   H15   S    
Cr1   O14   S    
C17   C92   A    
C13   O19   A    
C23   C73   S    
C88   F11   S    
C36   C62   A    
H18   O50   S    
C65   O33   A    
C35   O17   A    
C25   C29   A    
C69   O41   A    
C1    O14   A    
C19   H14   S    
C60   C77   S    
Cr1   O40   S    
C89   H5    S    
Cr5   O10   S    
H26   O65   S    
C27   C31   A    
C34   C39   A    
C51   F13   S    
C38   H12   S    
C36   C40   A    
C50   F12   S    
C67   O40   A    
Cr10  O66   S    
C4    C68   A    
C52   F14   S    
C75   O67   A    
C47   C51   A    
Cr7   O43   S    
Cr7   O13   S    
C100  O63   S    
C42   O24   A    
C77   O6    A    
C64   O32   A    
C80   O39   A    
C34   C61   A    
Cr2   O28   S    
C96   O53   D    
C75   O4    A    
C33   C99   S    
C64   O12   A    
C71   O43   A    
C9    C14   A    
C47   C70   S    
C5    C9    A    
C73   O2    A    
C16   C64   S    
Cr6   O42   S    
C82   H32   S    
C1    O18   A    
Cr9   O19   S    
Cr5   O41   S    
Cr12  O9    S    
C46   C94   S    
C22   H17   S    
C100  O62   D    
C61   C78   S    
C8    C12   A    
H24   O61   S    
C41   C81   S    
C86   F9    S    
C26   C75   S    
C69   O46   A    
C12   H11   S    
Cr8   O18   S    
C76   O5    A    
C40   H27   S    
C25   C72   S    
C50   C54   A    
C32   C37   A    
Cr8   O9    S    
C38   C47   A    
C72   O45   A    
C16   C91   A    
C57   C91   A    
Cr9   O24   S    
C71   O48   A    
C26   C30   A    
C33   C60   A    
C98   O58   D    
C2    C24   S    
C97   O57   S    
C41   O22   A    
C92   H7    S    
C23   C28   A    
C37   C45   A    
H19   O52   S    
C24   O16   A    
Cr9   O10   S    
H21   O57   S    
C42   O28   A    
C13   O15   A    
C18   C66   S    
Cr11  O26   S    
Cr6   O16   S    
C57   C95   S    
C49   C67   S    
C10   C15   A    
Cr11  O13   S    
C9    F4    S    
C17   C65   S    
C79   C97   S    
C21   H16   S    
Cr8   O45   S    
C44   C84   S    
H20   O54   S    
Cr4   O4    S    
C87   F10   S    
Cr5   O15   S    
C53   C58   A    
C94   O50   S    
Cr4   O13   S    
C46   C90   A    
C35   O21   A    
C82   C85   D    
C78   O38   A    
C29   F6    S    
C84   H3    S    
C72   O68   A    
C33   C38   A    
Cr4   O8    S    
Cr8   O22   S    
C28   F5    S    
Cr11  O67   S    
Cr1   O1    S    
C70   O47   A    
C79   C93   A    
C95   O51   D    
C83   H4    S    
Cr8   O44   S    
C6    C90   A    
Cr12  O31   S    
Cr7   O39   S    
C81   H2    S    
C30   C31   A    
C91   H6    S    
C3    C36   S    
C63   O31   A    
Cr12  O5    S    
C59   C76   S    
C85   F1    S    
C68   C92   A    
Cr4   O35   S    
C37   H1    S    
C51   C55   A    
Cr7   O34   S    
Cr9   O46   S    
C19   C25   A    
Cr3   O7    S    
Cr6   O23   S    
Cr2   O10   S    
C6    C10   A    
C6    F16   S    
C35   C90   S    
C55   H29   S    
C98   O59   S    
C99   O60   D    
C43   O29   A    
C94   O49   D    
C74   O66   A    
C22   C26   A    
C18   C93   A    
C15   C63   S    
C56   C61   A    
Cr3   O33   S    
C32   C59   A    
C21   C22   A    
C34   C100  S    
C77   O37   A    
Cr11  O48   S    
C80   O8    A    
C65   O23   A    
C52   C56   A    
C44   O26   A    
C39   C48   A    
