data_mof_unit_65661.cif
_audit_creation_date              2013-03-05T16:31:16-0500
_audit_creation_method            fapswitch 2.2
_symmetry_space_group_name_H-M    P1
_symmetry_Int_Tables_number       1
_space_group_crystal_system       orthorhombic
_cell_length_a                    35.708091
_cell_length_b                    35.70809
_cell_length_c                    23.676848
_cell_angle_alpha                 90.0
_cell_angle_beta                  90.0
_cell_angle_gamma                 90.0
_cell_volume                      30189.5847656

loop_
_atom_site_label
_atom_site_type_symbol
_atom_site_description
_atom_site_fract_x
_atom_site_fract_y
_atom_site_fract_z
_atom_type_partial_charge
O1    O     O_R   0.031480 0.445630 0.499980 -0.545883
O2    O     O_R   0.445630 0.968520 0.499980 -0.545882
O3    O     O_R   0.968520 0.554370 0.499980 -0.545882
O4    O     O_R   0.554370 0.031480 0.499980 -0.545883
O5    O     O_R   0.031480 0.554370 0.500020 -0.545883
O6    O     O_R   0.445630 0.031480 0.500020 -0.545883
O7    O     O_R   0.968520 0.445630 0.500020 -0.545883
O8    O     O_R   0.554370 0.968520 0.500020 -0.545882
O9    O     O_R   0.531480 0.945630 0.999980 -0.545883
O10   O     O_R   0.945630 0.468520 0.999980 -0.545883
O11   O     O_R   0.468520 0.054370 0.999980 -0.545882
O12   O     O_R   0.054370 0.531480 0.999980 -0.545883
O13   O     O_R   0.531480 0.054370 0.000020 -0.545883
O14   O     O_R   0.945630 0.531480 0.000020 -0.545883
O15   O     O_R   0.468520 0.945630 0.000020 -0.545883
O16   O     O_R   0.054370 0.468520 0.000020 -0.545882
C1    C     C_R   1.000000 0.427640 0.500000 0.967949
C2    C     C_R   0.427640 0.000000 0.500000 0.967946
C3    C     C_R   0.000000 0.572360 0.500000 0.967949
C4    C     C_R   0.572360 0.000000 0.500000 0.967949
C5    C     C_R   0.500000 0.927640 0.000000 0.967949
C6    C     C_R   0.927640 0.500000 0.000000 0.967949
C7    C     C_R   0.500000 0.072360 0.000000 0.967948
C8    C     C_R   0.072360 0.500000 0.000000 0.967949
O17   O     O_R   0.031480 0.500000 0.581380 -0.562754
O18   O     O_R   0.500000 0.968520 0.581380 -0.562753
O19   O     O_R   0.968520 0.500000 0.581380 -0.562753
O20   O     O_R   0.500000 0.031480 0.581380 -0.562755
O21   O     O_R   0.031480 0.500000 0.418620 -0.562754
O22   O     O_R   0.500000 0.031480 0.418620 -0.562753
O23   O     O_R   0.968520 0.500000 0.418620 -0.562753
O24   O     O_R   0.500000 0.968520 0.418620 -0.562754
O25   O     O_R   0.531480 0.000000 0.081380 -0.562754
O26   O     O_R   1.000000 0.468520 0.081380 -0.562753
O27   O     O_R   0.468520 0.000000 0.081380 -0.562753
O28   O     O_R   1.000000 0.531480 0.081380 -0.562754
O29   O     O_R   0.531480 0.000000 0.918620 -0.562754
O30   O     O_R   0.000000 0.531480 0.918620 -0.562754
O31   O     O_R   0.468520 0.000000 0.918620 -0.562753
O32   O     O_R   1.000000 0.468520 0.918620 -0.562753
C9    C     C_R   1.000000 0.500000 0.608192 0.901467
C10   C     C_R   0.500000 0.000000 0.608192 0.901466
C11   C     C_R   0.000000 0.500000 0.391808 0.901468
C12   C     C_R   0.500000 0.000000 0.391808 0.901466
C13   C     C_R   0.500000 0.000000 0.108192 0.901467
C14   C     C_R   1.000000 0.500000 0.108192 0.901467
C15   C     C_R   0.500000 0.000000 0.891808 0.901467
C16   C     C_R   1.000000 0.500000 0.891808 0.901468
Cu1   Cu    Cu3+1 0.037270 0.500000 0.500000 1.165560
Cu2   Cu    Cu3+1 0.500000 0.962730 0.500000 1.165561
Cu3   Cu    Cu3+1 0.962730 0.500000 0.500000 1.165560
Cu4   Cu    Cu3+1 0.500000 0.037270 0.500000 1.165561
Cu5   Cu    Cu3+1 0.537270 0.000000 0.000000 1.165560
Cu6   Cu    Cu3+1 1.000000 0.462730 0.000000 1.165561
Cu7   Cu    Cu3+1 0.462730 0.000000 0.000000 1.165561
Cu8   Cu    Cu3+1 1.000000 0.537270 0.000000 1.165560
C17   C     C_1   1.000000 0.500000 0.669042 -0.024032
C18   C     C_1   0.500000 0.000000 0.669042 -0.024033
C19   C     C_1   0.000000 0.500000 0.330958 -0.024032
C20   C     C_1   0.500000 0.000000 0.330958 -0.024033
C21   C     C_1   0.500000 0.000000 0.169042 -0.024032
C22   C     C_1   1.000000 0.500000 0.169042 -0.024032
C23   C     C_1   0.500000 1.000000 0.830958 -0.024032
C24   C     C_1   1.000000 0.500000 0.830958 -0.024032
C25   C     C_1   1.000000 0.500000 0.720083 0.059913
C26   C     C_1   0.500000 0.000000 0.720083 0.059914
C27   C     C_1   1.000000 0.500000 0.279917 0.059914
C28   C     C_1   0.500000 0.000000 0.279917 0.059914
C29   C     C_1   0.500000 0.000000 0.220083 0.059914
C30   C     C_1   1.000000 0.500000 0.220083 0.059913
C31   C     C_1   0.500000 0.000000 0.779917 0.059914
C32   C     C_1   1.000000 0.500000 0.779917 0.059913
C33   C     C_R   0.999334 0.172830 0.448862 -0.107759
C34   C     C_R   0.172830 0.000666 0.448862 -0.107759
C35   C     C_R   0.000665 0.827170 0.448862 -0.107759
C36   C     C_R   0.827170 0.999334 0.448862 -0.107759
C37   C     C_R   0.999335 0.827170 0.551137 -0.107759
C38   C     C_R   0.172830 0.999334 0.551137 -0.107760
C39   C     C_R   0.000666 0.172830 0.551137 -0.107760
C40   C     C_R   0.827170 0.000666 0.551137 -0.107759
C41   C     C_R   0.499327 0.672830 0.948863 -0.107760
C42   C     C_R   0.672830 0.500666 0.948863 -0.107760
C43   C     C_R   0.500672 0.327170 0.948863 -0.107760
C44   C     C_R   0.327170 0.499338 0.948862 -0.107759
C45   C     C_R   0.499328 0.327170 0.051137 -0.107760
C46   C     C_R   0.672830 0.499334 0.051137 -0.107759
C47   C     C_R   0.500673 0.672830 0.051137 -0.107760
C48   C     C_R   0.327170 0.500661 0.051138 -0.107759
H1    H     H_    0.998804 0.187788 0.409051 0.171337
H2    H     H_    0.187788 0.001197 0.409051 0.171337
H3    H     H_    0.001195 0.812212 0.409051 0.171336
H4    H     H_    0.812212 0.998804 0.409051 0.171337
H5    H     H_    0.998805 0.812212 0.590949 0.171336
H6    H     H_    0.187788 0.998803 0.590949 0.171337
H7    H     H_    0.001196 0.187788 0.590949 0.171337
H8    H     H_    0.812212 0.001196 0.590949 0.171337
H9    H     H_    0.498791 0.687788 0.909051 0.171341
H10   H     H_    0.687788 0.501196 0.909051 0.171337
H11   H     H_    0.501207 0.312212 0.909051 0.171340
H12   H     H_    0.312212 0.498812 0.909051 0.171334
H13   H     H_    0.498793 0.312212 0.090949 0.171340
H14   H     H_    0.687788 0.498804 0.090949 0.171337
H15   H     H_    0.501209 0.687788 0.090949 0.171341
H16   H     H_    0.312212 0.501188 0.090949 0.171334
C49   C     C_R   0.999350 0.133692 0.448800 -0.167563
C50   C     C_R   0.133692 0.000650 0.448800 -0.167563
C51   C     C_R   0.000649 0.866308 0.448800 -0.167563
C52   C     C_R   0.866308 0.999350 0.448800 -0.167563
C53   C     C_R   0.999351 0.866308 0.551200 -0.167564
C54   C     C_R   0.133692 0.999350 0.551200 -0.167564
C55   C     C_R   0.000650 0.133692 0.551200 -0.167564
C56   C     C_R   0.866308 0.000650 0.551200 -0.167564
C57   C     C_R   0.499343 0.633692 0.948800 -0.167565
C58   C     C_R   0.633692 0.500650 0.948800 -0.167563
C59   C     C_R   0.500656 0.366308 0.948800 -0.167563
C60   C     C_R   0.366308 0.499354 0.948800 -0.167564
C61   C     C_R   0.499344 0.366308 0.051200 -0.167564
C62   C     C_R   0.633692 0.499350 0.051200 -0.167564
C63   C     C_R   0.500657 0.633692 0.051200 -0.167564
C64   C     C_R   0.366308 0.500645 0.051200 -0.167563
H17   H     H_    0.998826 0.119126 0.408695 0.168371
H18   H     H_    0.119126 0.001174 0.408695 0.168371
H19   H     H_    0.001173 0.880874 0.408695 0.168372
H20   H     H_    0.880874 0.998826 0.408695 0.168371
H21   H     H_    0.998827 0.880874 0.591305 0.168372
H22   H     H_    0.119126 0.998826 0.591305 0.168371
H23   H     H_    0.001174 0.119126 0.591305 0.168371
H24   H     H_    0.880874 0.001174 0.591305 0.168372
H25   H     H_    0.498813 0.619126 0.908695 0.168371
H26   H     H_    0.619126 0.501174 0.908695 0.168372
H27   H     H_    0.501185 0.380874 0.908695 0.168371
H28   H     H_    0.380874 0.498834 0.908695 0.168372
H29   H     H_    0.498815 0.380874 0.091305 0.168371
H30   H     H_    0.619126 0.498826 0.091305 0.168371
H31   H     H_    0.501187 0.619126 0.091305 0.168372
H32   H     H_    0.380874 0.501166 0.091305 0.168372
C65   C     C_R   1.000000 0.113698 0.500000 -0.050907
C66   C     C_R   0.113698 1.000000 0.500000 -0.050907
C67   C     C_R   1.000000 0.886302 0.500000 -0.050907
C68   C     C_R   0.886302 0.000000 0.500000 -0.050907
C69   C     C_R   0.500000 0.613698 0.000000 -0.050906
C70   C     C_R   0.613698 0.500000 0.000000 -0.050908
C71   C     C_R   0.500000 0.386302 0.000000 -0.050906
C72   C     C_R   0.386302 0.500000 0.000000 -0.050907
C73   C     C_R   1.000000 0.192440 0.500000 0.100955
C74   C     C_R   0.192440 1.000000 0.500000 0.100954
C75   C     C_R   1.000000 0.807560 0.500000 0.100955
C76   C     C_R   0.807560 0.000000 0.500000 0.100954
C77   C     C_R   0.500000 0.692440 0.000000 0.100952
C78   C     C_R   0.692440 0.500000 1.000000 0.100954
C79   C     C_R   0.500000 0.307560 0.000000 0.100952
C80   C     C_R   0.307560 0.500000 0.000000 0.100956
C81   C     C_1   1.000000 0.232673 0.500000 0.031248
C82   C     C_1   0.232673 1.000000 0.500000 0.031247
C83   C     C_1   1.000000 0.767327 0.500000 0.031248
C84   C     C_1   0.767327 0.000000 0.500000 0.031248
C85   C     C_1   0.500000 0.732673 0.000000 0.031248
C86   C     C_1   0.732673 0.500000 1.000000 0.031248
C87   C     C_1   0.500000 0.267327 0.000000 0.031248
C88   C     C_1   0.267327 0.500000 0.000000 0.031248
C89   C     C_1   1.000000 0.266405 0.500000 0.200598
C90   C     C_1   0.266405 1.000000 0.500000 0.200598
C91   C     C_1   1.000000 0.733595 0.500000 0.200598
C92   C     C_1   0.733595 0.000000 0.500000 0.200598
C93   C     C_1   0.500000 0.766405 0.000000 0.200599
C94   C     C_1   0.766405 0.500000 1.000000 0.200598
C95   C     C_1   0.500000 0.233595 0.000000 0.200599
C96   C     C_1   0.233595 0.500000 0.000000 0.200597
C97   C     C_R   0.976706 0.326391 0.462316 0.240437
C98   C     C_R   0.326391 0.023294 0.462317 0.240437
C99   C     C_R   0.023294 0.673609 0.462316 0.240437
C100  C     C_R   0.673609 0.976706 0.462316 0.240437
C101  C     C_R   0.976706 0.673609 0.537684 0.240437
C102  C     C_R   0.326391 0.976706 0.537683 0.240436
C103  C     C_R   0.023293 0.326391 0.537684 0.240437
C104  C     C_R   0.673609 0.023294 0.537684 0.240437
C105  C     C_R   0.476706 0.826391 0.962316 0.240438
C106  C     C_R   0.826391 0.523294 0.962316 0.240438
C107  C     C_R   0.523294 0.173609 0.962316 0.240438
C108  C     C_R   0.173609 0.476706 0.962316 0.240437
C109  C     C_R   0.476706 0.173609 0.037684 0.240438
C110  C     C_R   0.826391 0.476706 0.037684 0.240437
C111  C     C_R   0.523293 0.826391 0.037684 0.240438
C112  C     C_R   0.173609 0.523293 0.037684 0.240437
C113  C     C_R   0.978426 0.365858 0.459497 0.288701
C114  C     C_R   0.365858 0.021574 0.459498 0.288701
C115  C     C_R   0.021573 0.634142 0.459497 0.288700
C116  C     C_R   0.634142 0.978426 0.459497 0.288701
C117  C     C_R   0.978427 0.634142 0.540503 0.288700
C118  C     C_R   0.365858 0.978426 0.540502 0.288702
C119  C     C_R   0.021573 0.365858 0.540503 0.288701
C120  C     C_R   0.634142 0.021573 0.540503 0.288700
C121  C     C_R   0.478426 0.865858 0.959497 0.288700
C122  C     C_R   0.865858 0.521573 0.959497 0.288700
C123  C     C_R   0.521573 0.134142 0.959497 0.288701
C124  C     C_R   0.134142 0.478427 0.959497 0.288700
C125  C     C_R   0.478426 0.134142 0.040503 0.288701
C126  C     C_R   0.865858 0.478426 0.040503 0.288701
C127  C     C_R   0.521573 0.865858 0.040503 0.288701
C128  C     C_R   0.134142 0.521573 0.040503 0.288700
C129  C     C_R   1.000000 0.385942 0.500000 -0.367942
C130  C     C_R   0.385942 0.000000 0.500000 -0.367943
C131  C     C_R   0.000000 0.614058 0.500000 -0.367942
C132  C     C_R   0.614058 0.000000 0.500000 -0.367942
C133  C     C_R   0.500000 0.885942 0.000000 -0.367942
C134  C     C_R   0.885942 0.500000 0.000000 -0.367942
C135  C     C_R   0.500000 0.114058 0.000000 -0.367943
C136  C     C_R   0.114058 0.500000 0.000000 -0.367942
C137  C     C_R   1.000000 0.306875 0.500000 -0.240749
C138  C     C_R   0.306875 1.000000 0.500000 -0.240748
C139  C     C_R   0.000000 0.693125 0.500000 -0.240749
C140  C     C_R   0.693124 0.000000 0.500000 -0.240749
C141  C     C_R   0.500000 0.806875 0.000000 -0.240749
C142  C     C_R   0.806875 0.500000 1.000000 -0.240749
C143  C     C_R   0.500000 0.193125 0.000000 -0.240749
C144  C     C_R   0.193125 0.500000 0.000000 -0.240750
O33   O     O_R   0.945750 0.999990 0.547080 -0.581210
O34   O     O_R   0.999990 0.054250 0.547080 -0.581211
O35   O     O_R   0.054250 0.000010 0.547080 -0.581211
O36   O     O_R   0.000010 0.945750 0.547080 -0.581211
O37   O     O_R   0.945750 0.000010 0.452920 -0.581210
O38   O     O_R   0.999990 0.945750 0.452920 -0.581210
O39   O     O_R   0.054250 0.999990 0.452920 -0.581210
O40   O     O_R   0.000010 0.054250 0.452920 -0.581210
O41   O     O_R   0.445750 0.499990 0.047080 -0.581210
O42   O     O_R   0.499990 0.554250 0.047080 -0.581210
O43   O     O_R   0.554250 0.500010 0.047080 -0.581211
O44   O     O_R   0.500010 0.445750 0.047080 -0.581211
O45   O     O_R   0.445750 0.500010 0.952920 -0.581210
O46   O     O_R   0.499990 0.445750 0.952920 -0.581210
O47   O     O_R   0.554250 0.499990 0.952920 -0.581210
O48   O     O_R   0.500010 0.554250 0.952920 -0.581211
C145  C     C_R   0.927714 0.000000 0.500000 0.801418
C146  C     C_R   1.000000 0.072286 0.500000 0.801417
C147  C     C_R   0.072286 0.000000 0.500000 0.801417
C148  C     C_R   0.000000 0.927714 0.500000 0.801418
C149  C     C_R   0.427714 0.500000 0.000000 0.801418
C150  C     C_R   0.500000 0.572286 0.000000 0.801417
C151  C     C_R   0.572286 0.500000 0.000000 0.801417
C152  C     C_R   0.500000 0.427714 0.000000 0.801418
Cu9   Cu    Cu3+1 0.000000 0.000000 0.555780 0.994726
Cu10  Cu    Cu3+1 0.000000 0.000000 0.444220 0.994726
Cu11  Cu    Cu3+1 0.500000 0.500000 0.055780 0.994725
Cu12  Cu    Cu3+1 0.500000 0.500000 0.944220 0.994726
N1    N     N_R   0.950893 0.305968 0.427480 0.187839
O49   O     O_R   0.915101 0.312189 0.431765 -0.252902
O50   O     O_R   0.962839 0.280025 0.393342 -0.311529
N2    N     N_R   0.305968 0.049108 0.427481 0.187839
O51   O     O_R   0.312188 0.084899 0.431767 -0.252902
O52   O     O_R   0.280025 0.037162 0.393342 -0.311528
N3    N     N_R   0.049107 0.694032 0.427479 0.187839
O53   O     O_R   0.084898 0.687811 0.431765 -0.252902
O54   O     O_R   0.037160 0.719975 0.393341 -0.311528
N4    N     N_R   0.694032 0.950893 0.427480 0.187839
O55   O     O_R   0.687811 0.915102 0.431765 -0.252902
O56   O     O_R   0.719975 0.962840 0.393342 -0.311528
N5    N     N_R   0.950893 0.694032 0.572520 0.187839
O57   O     O_R   0.915102 0.687811 0.568236 -0.252902
O58   O     O_R   0.962840 0.719975 0.606658 -0.311528
N6    N     N_R   0.305968 0.950892 0.572519 0.187839
O59   O     O_R   0.312189 0.915101 0.568233 -0.252902
O60   O     O_R   0.280025 0.962838 0.606657 -0.311528
N7    N     N_R   0.049107 0.305968 0.572520 0.187839
O61   O     O_R   0.084898 0.312188 0.568235 -0.252902
O62   O     O_R   0.037160 0.280025 0.606658 -0.311528
N8    N     N_R   0.694032 0.049107 0.572520 0.187839
O63   O     O_R   0.687811 0.084898 0.568235 -0.252902
O64   O     O_R   0.719975 0.037160 0.606658 -0.311528
N9    N     N_R   0.450893 0.805968 0.927480 0.187838
O65   O     O_R   0.415102 0.812189 0.931765 -0.252902
O66   O     O_R   0.462839 0.780025 0.893342 -0.311531
N10   N     N_R   0.805968 0.549107 0.927480 0.187839
O67   O     O_R   0.812188 0.584898 0.931765 -0.252902
O68   O     O_R   0.780025 0.537160 0.893342 -0.311528
N11   N     N_R   0.549107 0.194032 0.927480 0.187839
O69   O     O_R   0.584898 0.187811 0.931765 -0.252903
O70   O     O_R   0.537160 0.219975 0.893342 -0.311531
N12   N     N_R   0.194031 0.450893 0.927479 0.187839
O71   O     O_R   0.187811 0.415102 0.931765 -0.252902
O72   O     O_R   0.219975 0.462840 0.893342 -0.311527
N13   N     N_R   0.450893 0.194031 0.072520 0.187839
O73   O     O_R   0.415102 0.187811 0.068235 -0.252902
O74   O     O_R   0.462839 0.219975 0.106658 -0.311531
N14   N     N_R   0.805968 0.450893 0.072520 0.187839
O75   O     O_R   0.812188 0.415102 0.068235 -0.252902
O76   O     O_R   0.780025 0.462840 0.106658 -0.311528
N15   N     N_R   0.549107 0.805968 0.072520 0.187839
O77   O     O_R   0.584898 0.812189 0.068235 -0.252902
O78   O     O_R   0.537160 0.780025 0.106658 -0.311531
N16   N     N_R   0.194031 0.549107 0.072520 0.187839
O79   O     O_R   0.187811 0.584898 0.068235 -0.252902
O80   O     O_R   0.219975 0.537160 0.106658 -0.311527
S1    S     S_3+6 0.956233 0.389508 0.402175 0.074819
O81   O     O_2   0.920307 0.406722 0.422657 -0.228763
O82   O     O_2   0.981652 0.419733 0.380536 -0.348900
O83   O     O_3   0.946797 0.360418 0.348126 -0.431848
H33   H     H_    0.933781 0.376142 0.319795 0.386188
S2    S     S_3+6 0.389508 0.043768 0.402176 0.074820
O84   O     O_2   0.406721 0.079694 0.422659 -0.228763
O85   O     O_2   0.419733 0.018349 0.380536 -0.348899
O86   O     O_3   0.360418 0.053204 0.348127 -0.431849
H34   H     H_    0.376142 0.066222 0.319797 0.386189
S3    S     S_3+6 0.043766 0.610492 0.402175 0.074819
O87   O     O_2   0.079693 0.593278 0.422657 -0.228764
O88   O     O_2   0.018347 0.580267 0.380535 -0.348901
O89   O     O_3   0.053202 0.639582 0.348126 -0.431848
H35   H     H_    0.066219 0.623857 0.319795 0.386188
S4    S     S_3+6 0.610492 0.956233 0.402175 0.074819
O90   O     O_2   0.593278 0.920307 0.422657 -0.228764
O91   O     O_2   0.580267 0.981652 0.380536 -0.348899
O92   O     O_3   0.639582 0.946797 0.348126 -0.431848
H36   H     H_    0.623857 0.933781 0.319795 0.386188
S5    S     S_3+6 0.956234 0.610492 0.597825 0.074818
O93   O     O_2   0.920307 0.593278 0.577343 -0.228764
O94   O     O_2   0.981653 0.580267 0.619464 -0.348901
O95   O     O_3   0.946798 0.639582 0.651874 -0.431847
H37   H     H_    0.933781 0.623857 0.680205 0.386188
S6    S     S_3+6 0.389508 0.956232 0.597824 0.074820
O96   O     O_2   0.406721 0.920306 0.577341 -0.228763
O97   O     O_2   0.419733 0.981651 0.619464 -0.348899
O98   O     O_3   0.360418 0.946796 0.651873 -0.431849
H38   H     H_    0.376142 0.933779 0.680203 0.386189
S7    S     S_3+6 0.043766 0.389508 0.597825 0.074819
O99   O     O_2   0.079693 0.406722 0.577342 -0.228764
O100  O     O_2   0.018348 0.419733 0.619464 -0.348900
O101  O     O_3   0.053203 0.360418 0.651874 -0.431848
H39   H     H_    0.066220 0.376143 0.680205 0.386189
S8    S     S_3+6 0.610492 0.043766 0.597825 0.074819
O102  O     O_2   0.593278 0.079693 0.577343 -0.228764
O103  O     O_2   0.580267 0.018347 0.619464 -0.348900
O104  O     O_3   0.639582 0.053202 0.651874 -0.431848
H40   H     H_    0.623857 0.066219 0.680205 0.386189
S9    S     S_3+6 0.456233 0.889508 0.902175 0.074819
O105  O     O_2   0.420307 0.906722 0.922657 -0.228764
O106  O     O_2   0.481652 0.919733 0.880536 -0.348900
O107  O     O_3   0.446797 0.860418 0.848126 -0.431848
H41   H     H_    0.433781 0.876143 0.819795 0.386188
S10   S     S_3+6 0.889508 0.543767 0.902175 0.074819
O108  O     O_2   0.906722 0.579693 0.922657 -0.228763
O109  O     O_2   0.919733 0.518347 0.880536 -0.348900
O110  O     O_3   0.860418 0.553203 0.848126 -0.431847
H42   H     H_    0.876143 0.566219 0.819795 0.386188
S11   S     S_3+6 0.543767 0.110492 0.902175 0.074819
O111  O     O_2   0.579693 0.093278 0.922657 -0.228763
O112  O     O_2   0.518348 0.080267 0.880536 -0.348900
O113  O     O_3   0.553203 0.139582 0.848126 -0.431848
H43   H     H_    0.566219 0.123857 0.819795 0.386189
S12   S     S_3+6 0.110492 0.456234 0.902175 0.074819
O114  O     O_2   0.093278 0.420307 0.922657 -0.228763
O115  O     O_2   0.080267 0.481653 0.880536 -0.348900
O116  O     O_3   0.139582 0.446798 0.848126 -0.431848
H44   H     H_    0.123857 0.433781 0.819795 0.386189
S13   S     S_3+6 0.456233 0.110492 0.097825 0.074819
O117  O     O_2   0.420307 0.093278 0.077343 -0.228763
O118  O     O_2   0.481652 0.080267 0.119464 -0.348901
O119  O     O_3   0.446797 0.139582 0.151874 -0.431848
H45   H     H_    0.433781 0.123857 0.180205 0.386188
S14   S     S_3+6 0.889508 0.456233 0.097825 0.074819
O120  O     O_2   0.906722 0.420307 0.077343 -0.228764
O121  O     O_2   0.919733 0.481652 0.119464 -0.348900
O122  O     O_3   0.860418 0.446797 0.151874 -0.431847
H46   H     H_    0.876143 0.433781 0.180205 0.386188
S15   S     S_3+6 0.543766 0.889508 0.097825 0.074819
O123  O     O_2   0.579693 0.906722 0.077343 -0.228764
O124  O     O_2   0.518347 0.919733 0.119464 -0.348900
O125  O     O_3   0.553202 0.860418 0.151874 -0.431848
H47   H     H_    0.566219 0.876143 0.180205 0.386188
S16   S     S_3+6 0.110492 0.543766 0.097825 0.074818
O126  O     O_2   0.093278 0.579693 0.077343 -0.228764
O127  O     O_2   0.080267 0.518347 0.119464 -0.348901
O128  O     O_3   0.139582 0.553202 0.151874 -0.431847
H48   H     H_    0.123857 0.566219 0.180205 0.386188

loop_
_geom_bond_atom_site_label_1
_geom_bond_atom_site_label_2
_geom_bond_distance
_ccdc_geom_bond_type
C35   C51   1.397541 A    
C126  C134  1.423865 A    
O41   C149  1.287374 A    
C123  S11   1.784153 S    
C64   C72   1.407055 A    
C61   H29   1.082849 S    
C10   C18   1.440739 S    
C117  S5    1.784154 S    
O38   Cu10  1.948085 S    
S3    O88   1.500398 D    
C107  C123  1.412200 A    
O86   H34   0.990585 S    
C117  C131  1.423867 A    
O38   C148  1.287376 A    
C105  C121  1.412200 A    
C14   C22   1.440739 S    
N14   O75   1.301154 A    
C114  S2    1.784155 S    
C115  S3    1.784157 S    
O18   Cu2   1.937880 S    
C110  N14   1.435883 S    
C99   N3    1.435884 S    
C127  C133  1.423863 A    
O25   C13   1.290958 A    
C22   C30   1.208490 T    
S14   O122  1.682319 S    
O32   C16   1.290961 A    
O34   Cu9   1.948081 S    
N4    O56   1.301339 A    
O19   Cu3   1.937880 S    
N10   O67   1.301154 A    
Cu1   Cu3   2.661678 S    
Cu2   Cu4   2.661677 S    
N15   O78   1.301336 A    
O3    C3    1.294693 A    
O101  H39   0.990585 S    
C75   C83   1.436644 S    
C37   C75   1.398875 A    
C108  C124  1.412200 A    
S4    O92   1.682319 S    
C104  N8    1.435883 S    
C128  C136  1.423863 A    
N1    O49   1.301155 A    
C58   H26   1.082844 S    
O5    Cu1   1.952423 S    
C66   C147  1.478761 S    
C52   H20   1.082846 S    
C122  C134  1.423865 A    
S16   O126  1.502909 D    
S13   O118  1.500397 D    
N2    O52   1.301338 A    
C59   C71   1.407061 A    
C70   C151  1.478761 S    
S7    O99   1.502910 D    
C44   H12   1.083592 S    
C105  C141  1.404835 A    
N3    O53   1.301154 A    
C118  S6    1.784154 S    
O33   C145  1.287374 A    
C90   C138  1.445117 S    
S9    O105  1.502909 D    
O35   Cu9   1.948082 S    
C81   C89   1.204527 T    
O95   H37   0.990589 S    
C45   C79   1.398877 A    
C101  N5    1.435884 S    
C43   C59   1.397541 A    
S3    O87   1.502908 D    
C74   C82   1.436644 S    
C107  N11   1.435884 S    
C100  N4    1.435883 S    
C40   C56   1.397541 A    
C3    C131  1.488970 S    
O89   H35   0.990587 S    
C120  C132  1.423863 A    
C1    C129  1.488970 S    
O34   C146  1.287374 A    
C47   H15   1.083593 S    
S8    O103  1.500398 D    
O83   H33   0.990587 S    
C23   C31   1.208490 T    
O26   Cu6   1.937880 S    
N9    O66   1.301339 A    
C68   C145  1.478761 S    
C63   C69   1.407059 A    
C121  S9    1.784154 S    
S2    O84   1.502907 D    
O45   C149  1.287376 A    
O27   C13   1.290961 A    
O8    Cu2   1.952423 S    
C55   C65   1.407057 A    
O31   C15   1.290961 A    
S9    O107  1.682321 S    
N7    O62   1.301337 A    
S6    O98   1.682321 S    
C7    C135  1.488970 S    
O107  H41   0.990587 S    
C122  S10   1.784155 S    
O36   Cu9   1.948085 S    
C34   H2    1.083592 S    
C120  S8    1.784157 S    
O9    C5    1.294690 A    
C38   H6    1.083590 S    
C41   C77   1.398877 A    
O11   C7    1.294693 A    
S12   O114  1.502909 D    
C87   C95   1.204527 T    
C88   C96   1.204527 T    
O16   Cu6   1.952423 S    
C16   C24   1.440739 S    
C38   C74   1.398875 A    
C33   H1    1.083592 S    
O4    C4    1.294690 A    
C40   C76   1.398875 A    
C36   C76   1.398873 A    
O98   H38   0.990587 S    
C119  C129  1.423863 A    
O6    Cu4   1.952427 S    
S16   O128  1.682320 S    
O128  H48   0.990589 S    
O15   Cu7   1.952427 S    
C111  C141  1.404830 A    
C56   C68   1.407057 A    
O116  H44   0.990585 S    
C95   C143  1.445114 S    
C109  C125  1.412200 A    
S5    O93   1.502908 D    
O21   Cu1   1.937882 S    
C114  C130  1.423865 A    
O23   C11   1.290961 A    
C124  S12   1.784154 S    
C92   C140  1.445114 S    
O44   C152  1.287374 A    
C46   C78   1.398873 A    
C102  N6    1.435885 S    
S5    O94   1.500398 D    
O13   C7    1.294690 A    
N5    O57   1.301154 A    
C37   H5    1.083591 S    
S6    O97   1.500397 D    
O2    Cu2   1.952427 S    
C103  N7    1.435882 S    
C60   C72   1.407057 A    
O7    C1    1.294693 A    
C125  S13   1.784153 S    
O28   C14   1.290958 A    
O26   C14   1.290961 A    
C127  S15   1.784154 S    
C116  S4    1.784154 S    
O30   C16   1.290958 A    
C62   H30   1.082844 S    
C11   C19   1.440739 S    
O29   Cu5   1.937882 S    
C44   C60   1.397541 A    
C48   H16   1.083592 S    
S4    O91   1.500399 D    
O33   Cu9   1.948085 S    
C9    C17   1.440739 S    
C121  C133  1.423867 A    
C98   C138  1.404831 A    
O35   C147  1.287374 A    
O46   Cu12  1.948085 S    
C62   C70   1.407053 A    
C85   C93   1.204527 T    
O45   Cu12  1.948085 S    
C118  C130  1.423867 A    
C83   C91   1.204527 T    
C116  C132  1.423867 A    
S12   O116  1.682319 S    
C33   C73   1.398875 A    
S7    O100  1.500397 D    
C79   C87   1.436644 S    
C124  C136  1.423867 A    
C37   C53   1.397541 A    
C47   C63   1.397541 A    
S1    O81   1.502908 D    
C33   C49   1.397541 A    
C60   H28   1.082842 S    
C50   H18   1.082846 S    
O12   Cu8   1.952423 S    
S14   O121  1.500399 D    
N8    O64   1.301336 A    
C54   H22   1.082844 S    
C93   C141  1.445114 S    
C94   C142  1.445114 S    
S10   O109  1.500399 D    
S11   O112  1.500397 D    
S15   O125  1.682319 S    
C113  S1    1.784155 S    
C46   H14   1.083588 S    
O18   C10   1.290961 A    
O22   Cu4   1.937882 S    
C101  C117  1.412200 A    
O37   C145  1.287376 A    
C82   C90   1.204523 T    
O23   Cu3   1.937882 S    
S8    O102  1.502908 D    
C105  N9    1.435882 S    
C109  C143  1.404832 A    
N13   O74   1.301338 A    
S10   O110  1.682317 S    
O12   C8    1.294690 A    
O1    C1    1.294690 A    
C27   C30   1.416678 S    
C96   C144  1.445114 S    
N14   O76   1.301339 A    
O47   Cu12  1.948082 S    
C57   C69   1.407061 A    
C103  C137  1.404832 A    
C51   C67   1.407057 A    
C49   C65   1.407057 A    
O30   Cu8   1.937882 S    
N10   O68   1.301336 A    
C107  C143  1.404832 A    
N12   O71   1.301154 A    
C65   C146  1.478761 S    
C126  S14   1.784155 S    
C69   C150  1.478761 S    
C42   H10   1.083588 S    
N11   O69   1.301151 A    
C51   H19   1.082844 S    
S11   O111  1.502909 D    
C98   N2    1.435885 S    
S16   O127  1.500401 D    
S13   O117  1.502909 D    
N7    O61   1.301154 A    
O10   C6    1.294693 A    
C106  C122  1.412200 A    
S1    O83   1.682321 S    
C15   C23   1.440739 S    
C112  C144  1.404831 A    
Cu11  Cu12  2.641392 S    
C115  C131  1.423863 A    
N16   O79   1.301154 A    
C113  C129  1.423867 A    
O40   C146  1.287376 A    
O125  H47   0.990587 S    
O31   Cu7   1.937882 S    
C28   C29   1.416678 S    
S15   O123  1.502911 D    
C48   C64   1.397541 A    
C43   C79   1.398879 A    
C111  N15   1.435884 S    
C36   C52   1.397541 A    
C43   H11   1.083593 S    
N9    O65   1.301154 A    
O21   C11   1.290958 A    
O22   C12   1.290958 A    
C101  C139  1.404835 A    
S2    O85   1.500396 D    
S8    O104  1.682321 S    
C106  N10   1.435882 S    
S3    O89   1.682321 S    
O13   Cu5   1.952423 S    
S9    O106  1.500399 D    
C106  C142  1.404832 A    
C108  C144  1.404835 A    
C4    C132  1.488970 S    
O3    Cu3   1.952423 S    
N6    O59   1.301153 A    
C35   C75   1.398875 A    
C89   C137  1.445114 S    
C8    C136  1.488970 S    
C63   H31   1.082846 S    
O32   Cu6   1.937882 S    
C64   H32   1.082844 S    
S2    O86   1.682322 S    
O104  H40   0.990585 S    
C39   H7    1.083590 S    
N4    O55   1.301153 A    
O28   Cu8   1.937880 S    
N15   O77   1.301154 A    
C54   C66   1.407055 A    
O43   C151  1.287374 A    
C98   C114  1.412200 A    
S12   O115  1.500398 D    
C2    C130  1.488970 S    
C102  C118  1.412200 A    
C108  N12   1.435881 S    
N1    O50   1.301336 A    
C119  S7    1.784153 S    
C125  C135  1.423865 A    
O9    Cu5   1.952427 S    
O17   C9    1.290958 A    
C25   C32   1.416678 S    
S13   O119  1.682322 S    
O11   Cu7   1.952423 S    
N2    O51   1.301156 A    
C86   C94   1.204527 T    
C78   C86   1.436644 S    
C61   C71   1.407059 A    
O48   Cu12  1.948081 S    
C71   C152  1.478761 S    
C34   C74   1.398873 A    
C17   C25   1.208490 T    
O5    C3    1.294690 A    
C39   C55   1.397541 A    
O41   Cu11  1.948085 S    
O7    Cu3   1.952427 S    
C103  C119  1.412200 A    
O14   C6    1.294690 A    
O42   Cu11  1.948081 S    
O44   Cu11  1.948085 S    
C12   C20   1.440739 S    
C13   C21   1.440739 S    
C72   C149  1.478765 S    
O17   Cu1   1.937880 S    
C56   H24   1.082844 S    
N3    O54   1.301338 A    
C97   C113  1.412200 A    
C104  C140  1.404835 A    
C123  C135  1.423865 A    
C20   C28   1.208490 T    
C41   C57   1.397541 A    
C67   C148  1.478761 S    
C76   C84   1.436644 S    
C97   N1    1.435884 S    
C77   C85   1.436644 S    
O14   Cu8   1.952427 S    
O92   H36   0.990587 S    
C80   C88   1.436644 S    
O42   C150  1.287374 A    
O2    C2    1.294693 A    
O46   C152  1.287376 A    
C110  C126  1.412200 A    
C39   C73   1.398875 A    
C59   H27   1.082847 S    
O110  H42   0.990589 S    
C6    C134  1.488970 S    
O8    C4    1.294693 A    
C57   H25   1.082847 S    
O4    Cu4   1.952423 S    
C58   C70   1.407055 A    
N11   O70   1.301339 A    
Cu9   Cu10  2.641392 S    
O43   Cu11  1.948082 S    
C104  C120  1.412196 A    
O39   Cu10  1.948082 S    
O47   C151  1.287376 A    
C5    C133  1.488970 S    
C18   C26   1.208490 T    
C26   C31   1.416678 S    
C128  S16   1.784154 S    
C40   H8    1.083592 S    
C19   C27   1.208490 T    
O16   C8    1.294693 A    
O48   C150  1.287376 A    
S15   O124  1.500399 D    
O37   Cu10  1.948085 S    
Cu5   Cu7   2.661678 S    
O25   Cu5   1.937880 S    
O6    C2    1.294690 A    
Cu6   Cu8   2.661677 S    
O27   Cu7   1.937880 S    
C42   C58   1.397541 A    
N6    O60   1.301336 A    
C52   C68   1.407059 A    
C91   C139  1.445114 S    
S5    O95   1.682320 S    
C112  C128  1.412200 A    
N13   O73   1.301154 A    
C111  C127  1.412200 A    
N5    O58   1.301336 A    
C45   C61   1.397541 A    
C109  N13   1.435882 S    
S6    O96   1.502907 D    
C34   C50   1.397541 A    
C99   C139  1.404831 A    
O19   C9    1.290961 A    
C97   C137  1.404832 A    
O24   C12   1.290961 A    
C49   H17   1.082846 S    
C38   C54   1.397541 A    
O24   Cu2   1.937882 S    
C42   C78   1.398871 A    
O39   C147  1.287376 A    
C36   H4    1.083592 S    
C44   C80   1.398874 A    
C53   H21   1.082844 S    
C50   C66   1.407059 A    
C46   C62   1.397541 A    
C55   H23   1.082844 S    
N12   O72   1.301336 A    
O29   C15   1.290958 A    
C112  N16   1.435883 S    
C45   H13   1.083593 S    
S4    O90   1.502909 D    
C21   C29   1.208490 T    
C102  C138  1.404831 A    
O36   C148  1.287374 A    
C100  C140  1.404832 A    
C48   C80   1.398872 A    
C35   H3    1.083591 S    
O122  H46   0.990589 S    
C99   C115  1.412200 A    
C53   C67   1.407059 A    
S7    O101  1.682319 S    
C73   C81   1.436644 S    
S1    O82   1.500399 D    
O20   Cu4   1.937880 S    
O113  H43   0.990585 S    
C41   H9    1.083593 S    
C100  C116  1.412200 A    
O20   C10   1.290958 A    
O119  H45   0.990587 S    
N16   O80   1.301338 A    
C24   C32   1.208490 T    
S14   O120  1.502906 D    
O10   Cu6   1.952427 S    
N8    O63   1.301154 A    
O15   C5    1.294693 A    
C84   C92   1.204527 T    
S10   O108  1.502908 D    
C47   C77   1.398877 A    
S11   O113  1.682319 S    
O40   Cu10  1.948081 S    
C110  C142  1.404834 A    
O1    Cu1   1.952427 S    
