data_mof_unit_52116.cif
_audit_creation_date              2012-12-10T16:52:36-0500
_audit_creation_method            fapswitch 2.2
_symmetry_space_group_name_H-M    P1
_symmetry_Int_Tables_number       1
_space_group_crystal_system       triclinic
_cell_length_a                    7.904431
_cell_length_b                    8.550703
_cell_length_c                    13.57535
_cell_angle_alpha                 94.321172
_cell_angle_beta                  92.738759
_cell_angle_gamma                 93.980407
_cell_volume                      911.424571001

loop_
_atom_site_label
_atom_site_type_symbol
_atom_type_description
_atom_site_fract_x
_atom_site_fract_y
_atom_site_fract_z
_atom_type_partial_charge
Br1   Br    Br    0.751717 0.764175 0.224648 -0.532301
Br2   Br    Br    0.248284 0.235826 0.775352 -0.532300
Br3   Br    Br    0.501857 0.289729 0.388830 -0.376417
Br4   Br    Br    0.498143 0.710271 0.611170 -0.376417
C1    C     C_R   0.044767 0.794374 0.497720 0.964518
C2    C     C_R   0.937889 0.488744 0.317511 0.911670
C3    C     C_R   0.091875 0.528021 0.789020 -0.109334
C4    C     C_R   0.908125 0.471979 0.210980 -0.109333
C5    C     C_R   0.063812 0.673535 0.945966 -0.161293
C6    C     C_R   0.936188 0.326465 0.054034 -0.161293
C7    C     C_R   0.009833 0.638740 0.847147 -0.216329
C8    C     C_R   0.990167 0.361260 0.152853 -0.216329
C9    C     C_R   0.222207 0.448478 0.830260 0.167410
C10   C     C_R   0.777794 0.551522 0.169739 0.167409
C11   C     C_R   0.302221 0.509845 0.920796 0.040942
C12   C     C_R   0.955233 0.205626 0.502280 0.964518
C13   C     C_R   0.697780 0.490156 0.079203 0.040942
C14   C     C_R   0.211958 0.612141 0.982736 0.120356
C15   C     C_R   0.788043 0.387860 0.017264 0.120357
C16   C     C_R   0.468849 0.476119 0.951023 0.071549
C17   C     C_R   0.531152 0.523883 0.048976 0.071549
C18   C     C_R   0.421209 0.594997 0.115093 -0.137751
C19   C     C_R   0.578792 0.405005 0.884907 -0.137751
C20   C     C_R   0.268793 0.647858 0.080929 -0.192445
C21   C     C_R   0.731208 0.352144 0.919070 -0.192445
C22   C     C_2   0.068070 0.958122 0.496447 -0.310284
C23   C     C_2   0.931930 0.041878 0.503552 -0.310284
C24   C     C_R   0.062111 0.511256 0.682489 0.911670
H1    H     H_    0.193431 0.713417 0.131905 0.174849
H2    H     H_    0.803439 0.990860 0.510261 0.215158
H3    H     H_    0.806570 0.286585 0.868094 0.174849
H4    H     H_    0.094464 0.301746 0.183880 0.189258
H5    H     H_    0.905535 0.698253 0.816120 0.189258
H6    H     H_    0.995421 0.753974 0.991979 0.173294
H7    H     H_    0.004580 0.246026 0.008021 0.173294
H8    H     H_    0.451102 0.610729 0.193715 0.206911
H9    H     H_    0.548900 0.389273 0.806284 0.206911
H10   H     H_    0.196561 0.009140 0.489739 0.215157
N1    N     N_2   0.440860 0.456490 0.474790 0.086626
N2    N     N_2   0.559140 0.543510 0.525210 0.086626
O1    O     O_R   0.891570 0.738930 0.506190 -0.591169
O2    O     O_R   0.108430 0.261070 0.493810 -0.591169
O3    O     O_R   0.174650 0.711050 0.490030 -0.589419
O4    O     O_R   0.825350 0.288950 0.509970 -0.589419
O5    O     O_R   0.909850 0.521900 0.644940 -0.621402
O6    O     O_R   0.090150 0.478100 0.355060 -0.621402
O7    O     O_R   0.192930 0.494020 0.628780 -0.559247
O8    O     O_R   0.807070 0.505980 0.371220 -0.559247
Zn1   Zn    Zn3+2 0.810990 0.518620 0.510790 1.074850
Zn2   Zn    Zn3+2 0.189010 0.481380 0.489210 1.074850

loop_
_geom_bond_atom_site_label_1
_geom_bond_atom_site_label_2
_ccdc_geom_bond_type
O4    Zn1   S    
C21   H3    S    
C11   C14   A    
C4    C10   A    
O3    Zn2   S    
Br4   N2    S    
C6    H7    S    
Br1   C10   S    
C18   H8    S    
C12   O4    A    
C16   C19   A    
O5    Zn1   S    
C6    C15   A    
C4    C8    A    
C12   C23   S    
C9    C11   A    
C1    O3    A    
Br3   N1    S    
C24   O7    A    
C17   C18   A    
C8    H4    S    
C23   H2    S    
C3    C7    A    
C5    C7    A    
C10   C13   A    
C22   C23   D    
C5    H6    S    
C6    C8    A    
O2    Zn2   S    
C14   C20   A    
O1    Zn1   S    
O8    Zn1   S    
C13   C15   A    
O6    Zn2   S    
O7    Zn2   S    
C19   C21   A    
C11   C16   A    
C15   C21   A    
C18   C20   A    
C24   O5    A    
C1    C22   S    
C12   O2    A    
C5    C14   A    
C7    H5    S    
N1    Zn2   S    
C16   C17   A    
N1    N2    D    
Br2   C9    S    
C1    O1    A    
C20   H1    S    
C22   H10   S    
C2    C4    S    
C3    C9    A    
C2    O6    A    
C19   H9    S    
C13   C17   A    
C3    C24   S    
N2    Zn1   S    
C2    O8    A    
