data_mof_unit_54772.cif
_audit_creation_date              2012-12-10T17:31:07-0500
_audit_creation_method            fapswitch 2.2
_symmetry_space_group_name_H-M    P1
_symmetry_Int_Tables_number       1
_space_group_crystal_system       triclinic
_cell_length_a                    12.041046
_cell_length_b                    12.892376
_cell_length_c                    15.396469
_cell_angle_alpha                 86.70326
_cell_angle_beta                  116.130573
_cell_angle_gamma                 93.076939
_cell_volume                      2141.20238154

loop_
_atom_site_label
_atom_site_type_symbol
_atom_type_description
_atom_site_fract_x
_atom_site_fract_y
_atom_site_fract_z
_atom_type_partial_charge
C1    C     C_R   0.477470 0.299590 0.498351 0.859857
C2    C     C_R   0.640218 0.970205 0.485531 -0.206024
C3    C     C_R   0.366918 0.137365 0.511239 -0.180423
C4    C     C_R   0.633686 0.862726 0.490073 -0.180292
C5    C     C_R   0.553997 0.132643 0.488085 -0.235707
C6    C     C_R   0.446052 0.867279 0.512543 -0.232098
C7    C     C_R   0.548968 0.025871 0.493576 0.162807
C8    C     C_R   0.451451 0.974108 0.507626 0.169717
C9    C     C_R   0.019683 0.622056 0.438263 -0.327045
C10   C     C_R   0.979208 0.377361 0.557653 -0.261983
C11   C     C_R   0.135282 0.606755 0.439413 0.624561
C12   C     C_R   0.522585 0.700408 0.501812 0.892824
C13   C     C_R   0.860983 0.389520 0.551719 0.626110
C14   C     C_R   0.152123 0.444744 0.523944 0.707488
C15   C     C_R   0.850332 0.557819 0.479789 0.673080
C16   C     C_R   0.576123 0.489545 0.681308 0.890946
C17   C     C_R   0.422409 0.504626 0.318664 0.935856
C18   C     C_R   0.034064 0.455824 0.521722 -0.176380
C19   C     C_R   0.967786 0.546493 0.480089 -0.190591
C20   C     C_R   0.617018 0.458582 0.784694 -0.293486
C21   C     C_R   0.369741 0.495072 0.213116 -0.263971
C22   C     C_R   0.752086 0.368060 0.936142 0.427458
C23   C     C_R   0.603626 0.367666 0.103013 0.608496
C24   C     C_R   0.199977 0.495760 0.050327 0.396490
C25   C     C_R   0.727430 0.405999 0.841735 0.391674
C26   C     C_R   0.242894 0.506741 0.150790 0.341395
C27   C     C_R   0.530860 0.468033 0.821429 -0.195402
C28   C     C_R   0.449427 0.467107 0.175539 -0.219563
C29   C     C_R   0.547217 0.422034 0.910226 0.046059
C30   C     C_R   0.406498 0.444781 0.078361 0.038374
C31   C     C_R   0.663295 0.379814 0.971604 -0.146424
C32   C     C_R   0.281717 0.464439 0.014131 -0.108827
C33   C     C_R   0.453912 0.425385 0.942458 -0.088042
C34   C     C_R   0.327172 0.439154 0.878593 0.594246
C35   C     C_R   0.488522 0.412416 0.042624 -0.083903
C36   C     C_3   0.090113 0.456915 0.195638 0.158207
C37   C     C_3   0.973720 0.498306 0.194819 -0.745611
C38   C     C_3   0.797426 0.293388 0.770023 0.169851
C39   C     C_3   0.922683 0.255531 0.785312 -0.680721
C40   C     C_3   0.861320 0.220190 0.009443 0.075224
C41   C     C_3   0.967253 0.187249 0.105470 -0.843852
C42   C     C_3   0.060943 0.618727 0.964024 0.124396
C43   C     C_3   0.926662 0.636494 0.893301 -0.758466
C44   C     C_R   0.688434 0.351158 0.067272 -0.266500
C45   C     C_R   0.242178 0.455578 0.914685 -0.254077
C46   C     C_R   0.535749 0.811649 0.502447 -0.070219
C47   C     C_R   0.464487 0.188355 0.498273 -0.079339
C48   C     C_R   0.360371 0.029856 0.515873 -0.209844
F1    F     F_    0.806331 0.306138 0.575246 -0.701709
F2    F     F_    0.180861 0.679668 0.395749 -0.638099
F3    F     F_    0.631078 0.330072 0.194153 -0.684804
F4    F     F_    0.282096 0.428287 0.781679 -0.662265
F5    F     F_    0.785508 0.644516 0.438527 -0.672006
F6    F     F_    0.218503 0.359424 0.567890 -0.640344
H1    H     H_    0.775002 0.317366 0.116275 0.198996
H2    H     H_    0.297195 0.180269 0.519112 0.215504
H3    H     H_    0.285133 0.990506 0.526411 0.156528
H4    H     H_    0.715548 0.009603 0.475148 0.164023
H5    H     H_    0.142155 0.414104 0.265739 0.139193
H6    H     H_    0.061196 0.401090 0.136556 0.198699
H7    H     H_    0.910293 0.525794 0.120367 0.258185
H8    H     H_    0.926138 0.436034 0.219796 0.199112
H9    H     H_    0.997525 0.564077 0.243861 0.272705
H10   H     H_    0.733283 0.297528 0.692103 0.216983
H11   H     H_    0.754938 0.234102 0.802727 0.055723
H12   H     H_    0.146101 0.465559 0.863881 0.215152
H13   H     H_    0.984413 0.245576 0.863844 0.237572
H14   H     H_    0.910521 0.179920 0.750608 0.209776
H15   H     H_    0.967772 0.313088 0.753639 0.271631
H16   H     H_    0.873085 0.181067 0.952113 0.156018
H17   H     H_    0.772591 0.190430 0.009236 0.135853
H18   H     H_    0.961081 0.224600 0.166306 0.243637
H19   H     H_    0.962938 0.101550 0.116708 0.229103
H20   H     H_    0.057357 0.210049 0.105138 0.254158
H21   H     H_    0.120443 0.648228 0.928758 0.120268
H22   H     H_    0.083176 0.664161 0.029338 0.179470
H23   H     H_    0.970881 0.692244 0.403809 0.230188
H24   H     H_    0.864725 0.607221 0.926131 0.253625
H25   H     H_    0.912543 0.720872 0.875284 0.190262
H26   H     H_    0.902608 0.595355 0.825594 0.279474
H27   H     H_    0.025109 0.304693 0.586885 0.227971
H28   H     H_    0.547311 0.467321 0.222638 0.247248
H29   H     H_    0.450931 0.514455 0.780419 0.233671
H30   H     H_    0.371042 0.827705 0.523377 0.190465
H31   H     H_    0.628346 0.172071 0.476350 0.220485
H32   H     H_    0.703582 0.819923 0.482368 0.218362
N1    N     N_R   0.799120 0.480200 0.517090 -0.183228
N2    N     N_R   0.200880 0.519800 0.482910 -0.202641
O1    O     O_R   0.580150 0.341050 0.504560 -0.573520
O2    O     O_3   0.813859 0.393643 0.807355 -0.574667
O3    O     O_3   0.868101 0.329653 0.995471 -0.580523
O4    O     O_3   0.076745 0.511489 0.988285 -0.564978
O5    O     O_R   0.419850 0.658950 0.495440 -0.569885
O6    O     O_R   0.388090 0.353760 0.493600 -0.589002
O7    O     O_R   0.611910 0.646240 0.506400 -0.580045
O8    O     O_R   0.650890 0.490020 0.640860 -0.589748
O9    O     O_R   0.349110 0.509980 0.359140 -0.568831
O10   O     O_R   0.458830 0.502730 0.629890 -0.584451
O11   O     O_R   0.541170 0.497270 0.370110 -0.592981
O12   O     O_3   0.163675 0.541402 0.185374 -0.577886
Zn1   Zn    Zn3+2 0.628240 0.491510 0.507320 1.044793
Zn2   Zn    Zn3+2 0.371760 0.508490 0.492680 1.050450

loop_
_geom_bond_atom_site_label_1
_geom_bond_atom_site_label_2
_ccdc_geom_bond_type
C21   C26   A    
C40   H17   S    
C27   C29   A    
C39   H14   S    
C14   C18   A    
C2    C7    A    
C36   H5    S    
C42   H22   S    
C8    C48   A    
C37   H8    S    
C48   H3    S    
C4    C46   A    
C43   H24   S    
C15   C19   A    
C5    C47   A    
C42   H21   S    
C40   H16   S    
C30   C35   A    
C15   F5    S    
C36   C37   S    
C24   C26   A    
C38   C39   S    
C4    H32   S    
C20   C25   A    
C43   H25   S    
C29   C33   A    
C3    C48   A    
C18   C19   A    
C32   C45   A    
C41   H20   S    
N1    Zn1   S    
C9    C19   A    
C1    O6    A    
C22   C25   A    
C22   O3    S    
C12   O7    A    
O9    Zn2   S    
C5    H31   S    
O8    Zn1   S    
C24   O4    S    
C37   H9    S    
C38   H10   S    
C16   O8    A    
C6    H30   S    
C22   C31   A    
C28   H28   S    
C7    C8    A    
C12   C46   S    
C31   C44   A    
C5    C7    A    
C1    C47   S    
C6    C8    A    
C43   H26   S    
O10   Zn2   S    
C17   C21   S    
C23   C44   A    
C2    C4    A    
C24   C32   A    
C17   O11   A    
C3    H2    S    
C23   F3    S    
C38   H11   S    
C11   N2    A    
C16   C20   S    
C13   N1    A    
C33   C34   A    
C39   H15   S    
C36   O12   S    
C34   C45   A    
C9    H23   S    
C9    C11   A    
C41   H18   S    
C13   F1    S    
C40   C41   S    
C14   F6    S    
C21   C28   A    
C23   C35   A    
C12   O5    A    
C42   C43   S    
C37   H7    S    
C15   N1    A    
C1    O1    A    
C6    C46   A    
O1    Zn1   S    
C39   H13   S    
C25   O2    S    
C36   H6    S    
C10   C13   A    
O5    Zn2   S    
N2    Zn2   S    
C2    H4    S    
C20   C27   A    
C38   O2    S    
C10   H27   S    
C34   F4    S    
C27   H29   S    
C14   N2    A    
C28   C30   A    
C29   C31   A    
C11   F2    S    
C30   C32   A    
C44   H1    S    
C16   O10   A    
C10   C18   A    
C3    C47   A    
C33   C35   A    
C42   O4    S    
C40   O3    S    
C41   H19   S    
O6    Zn2   S    
C45   H12   S    
C17   O9    A    
O11   Zn1   S    
O7    Zn1   S    
C26   O12   S    
