data_mof_unit_25959.cif
_audit_creation_date              2012-12-10T16:55:05-0500
_audit_creation_method            fapswitch 2.2
_symmetry_space_group_name_H-M    P1
_symmetry_Int_Tables_number       1
_space_group_crystal_system       triclinic
_cell_length_a                    9.695462
_cell_length_b                    10.933261
_cell_length_c                    15.507883
_cell_angle_alpha                 89.661218
_cell_angle_beta                  73.817863
_cell_angle_gamma                 89.326404
_cell_volume                      1578.63772566

loop_
_atom_site_label
_atom_site_type_symbol
_atom_type_description
_atom_site_fract_x
_atom_site_fract_y
_atom_site_fract_z
_atom_type_partial_charge
C1    C     C_R   0.999236 0.265617 0.503862 0.858177
C2    C     C_R   0.668011 0.536842 0.905309 0.037694
C3    C     C_R   0.764286 0.580047 0.952364 0.128120
C4    C     C_R   0.518622 0.527566 0.949913 0.064036
C5    C     C_R   0.469651 0.548055 0.043963 0.030689
C6    C     C_R   0.567423 0.593827 0.088229 -0.296485
C7    C     C_R   0.711863 0.611964 0.043363 0.223236
C8    C     C_R   0.416078 0.500638 0.903291 -0.207055
C9    C     C_R   0.272206 0.485164 0.948345 -0.245863
C10   C     C_R   0.225122 0.494074 0.041390 0.161312
C11   C     C_R   0.323375 0.524389 0.090436 0.109561
C12   C     C_R   0.916780 0.502373 0.672140 0.779068
C13   C     C_R   0.080613 0.471531 0.086066 -0.178405
C14   C     C_R   0.032508 0.476184 0.179363 -0.185870
C15   C     C_R   0.272853 0.524930 0.184692 -0.253575
C16   C     C_2   0.884702 0.935337 0.536169 0.280984
C17   C     C_2   0.999459 0.866844 0.490417 -0.071847
C18   C     C_2   0.883403 0.067832 0.518652 -0.145635
C19   C     C_2   0.997522 0.134989 0.518423 -0.334583
C20   C     C_2   0.398780 0.432718 0.554129 -0.070526
C21   C     C_2   0.555326 0.430011 0.552271 -0.067949
C22   C     C_R   0.999140 0.734614 0.499725 0.791752
C23   C     C_R   0.083149 0.500221 0.327783 0.804349
C24   C     C_R   0.869862 0.518513 0.769929 -0.045966
C25   C     C_R   0.128982 0.501245 0.229164 -0.059524
C26   C     C_R   0.911653 0.590308 0.907346 -0.205714
C27   C     C_R   0.963641 0.560835 0.816784 -0.225022
C28   C     C_R   0.724936 0.502555 0.815000 -0.226999
Cu1   Cu    Cu3+1 0.138640 0.500020 0.499980 0.937356
Cu2   Cu    Cu3+1 0.861360 0.499980 0.500020 0.943488
H1    H     H_    0.005141 0.448355 0.048865 0.147248
H2    H     H_    0.786685 0.110363 0.509490 0.161567
H3    H     H_    0.091086 0.093496 0.532872 0.170507
H4    H     H_    0.326418 0.374601 0.602874 0.146257
H5    H     H_    0.414225 0.551478 0.452946 0.192151
H6    H     H_    0.587245 0.366836 0.597572 0.144468
H7    H     H_    0.623133 0.561239 0.459741 0.192913
H8    H     H_    0.344628 0.539410 0.225427 0.152044
H9    H     H_    0.920913 0.457030 0.212514 0.151448
H10   H     H_    0.197743 0.463682 0.910002 0.143292
H11   H     H_    0.987369 0.623001 0.941442 0.176162
H12   H     H_    0.076390 0.573944 0.783048 0.157820
H13   H     H_    0.658815 0.462002 0.777730 0.143638
H14   H     H_    0.533657 0.622175 0.157423 0.143439
H15   H     H_    0.442450 0.494097 0.831256 0.139755
N1    N     N_2   0.346430 0.498660 0.500980 -0.278330
N2    N     N_2   0.652550 0.498630 0.501000 -0.276432
O1    O     O_R   0.117050 0.321960 0.499980 -0.572261
O2    O     O_R   0.882890 0.321920 0.500020 -0.576100
O3    O     O_R   0.052910 0.500040 0.629810 -0.580373
O4    O     O_R   0.818750 0.499990 0.629840 -0.581494
O5    O     O_R   0.117110 0.678080 0.499980 -0.578170
O6    O     O_R   0.882950 0.678040 0.500020 -0.560797
O7    O     O_R   0.181250 0.500010 0.370160 -0.581045
O8    O     O_R   0.947090 0.499960 0.370190 -0.580022
N3    N     N_2   0.804398 0.660779 0.091298 -0.443120
H16   H     H_    0.778566 0.634461 0.157844 0.251759
C29   C     C_3   0.824803 0.791433 0.080896 -0.688864
H17   H     H_    0.904760 0.820552 0.115627 0.231908
H18   H     H_    0.721747 0.840651 0.110913 0.226589
H19   H     H_    0.865634 0.816546 0.008814 0.235137
N4    N     N_2   0.766014 0.880016 0.601237 -0.414081
H20   H     H_    0.794021 0.811616 0.639493 0.248907
C30   C     C_3   0.649899 0.957543 0.652027 -0.698198
H21   H     H_    0.568096 0.900525 0.699072 0.230296
H22   H     H_    0.596538 0.005007 0.606351 0.227072
H23   H     H_    0.691092 0.025322 0.691629 0.224141
N5    N     N_3   0.117541 0.920508 0.423882 -0.602934
H24   H     H_    0.212142 0.900088 0.441081 0.226597
H25   H     H_    0.124687 0.879094 0.362155 0.218304

loop_
_geom_bond_atom_site_label_1
_geom_bond_atom_site_label_2
_ccdc_geom_bond_type
C8    C9    A    
C12   O3    A    
Cu2   O4    S    
C15   H8    S    
C23   O8    A    
Cu1   Cu2   S    
H7    N2    S    
C2    C28   A    
C9    C10   A    
C12   C24   S    
C28   H13   S    
C2    C4    A    
C17   C22   S    
C24   C27   A    
Cu1   N1    S    
C4    C8    A    
C20   H4    S    
C30   H21   S    
C29   H19   S    
C2    C3    A    
C14   H9    S    
C1    O1    A    
C21   H6    S    
C6    H14   S    
C13   C14   A    
N3    H16   S    
H5    N1    S    
C27   H12   S    
C26   C27   A    
C6    C7    A    
C16   N4    S    
C7    N3    S    
C16   C18   S    
Cu2   O2    S    
N3    C29   S    
C5    C11   A    
C22   O6    A    
C3    C7    A    
Cu1   O3    S    
C23   C25   S    
C14   C25   A    
C19   H3    S    
C5    C6    A    
Cu1   O5    S    
Cu2   O6    S    
C15   C25   A    
C18   H2    S    
C10   C11   A    
Cu1   O1    S    
C29   H18   S    
C30   H23   S    
Cu2   N2    S    
C12   O4    A    
C20   C21   S    
C23   O7    A    
C22   O5    A    
C18   C19   D    
Cu1   O7    S    
C3    C26   A    
N5    H25   S    
C8    H15   S    
C16   C17   D    
C17   N5    S    
N4    C30   S    
C29   H17   S    
N5    H24   S    
C1    C19   S    
C11   C15   A    
Cu2   O8    S    
C13   H1    S    
C9    H10   S    
C20   N1    D    
N4    H20   S    
C24   C28   A    
C26   H11   S    
C30   H22   S    
C4    C5    A    
C21   N2    D    
C10   C13   A    
C1    O2    A    
