data_mof_unit_11163.cif
_audit_creation_date              2012-12-10T19:47:16-0500
_audit_creation_method            fapswitch 2.2
_symmetry_space_group_name_H-M    P1
_symmetry_Int_Tables_number       1
_space_group_crystal_system       triclinic
_cell_length_a                    15.011936
_cell_length_b                    14.140719
_cell_length_c                    10.663258
_cell_angle_alpha                 90.000014
_cell_angle_beta                  88.40331
_cell_angle_gamma                 90.0
_cell_volume                      2262.71291544

loop_
_atom_site_label
_atom_site_type_symbol
_atom_type_description
_atom_site_fract_x
_atom_site_fract_y
_atom_site_fract_z
_atom_type_partial_charge
C1    C     C_R   0.327771 0.499967 0.496193 0.987962
C2    C     C_R   0.672229 0.499967 0.503807 0.987963
C3    C     C_R   0.231833 0.500438 0.492911 -0.210126
C4    C     C_R   0.768167 0.500438 0.507089 -0.210126
C5    C     C_R   0.184956 0.429271 0.430066 0.397457
C6    C     C_R   0.815043 0.429271 0.569935 0.397457
C7    C     C_R   0.092751 0.431499 0.433526 -0.214873
C8    C     C_R   0.907249 0.431499 0.566475 -0.214873
C9    C     C_R   0.047869 0.503279 0.499193 -0.015015
C10   C     C_R   0.952131 0.503279 0.500808 -0.015015
C11   C     C_R   0.476648 0.105088 0.392902 -0.241668
C12   C     C_R   0.523352 0.105088 0.607098 -0.241668
C13   C     C_R   0.476584 0.204408 0.395159 0.073078
C14   C     C_R   0.523416 0.204408 0.604840 0.073078
C15   C     C_R   0.500000 0.053220 0.500000 0.133752
C16   C     C_R   0.558884 0.894625 0.574514 -0.249222
C17   C     C_R   0.441116 0.894625 0.425486 -0.249221
C18   C     C_R   0.557473 0.795338 0.573546 0.122368
C19   C     C_R   0.442527 0.795338 0.426454 0.122368
C20   C     C_R   0.500000 0.946473 0.500000 0.126658
C21   C     C_R   0.509652 0.500161 0.259519 0.931881
C22   C     C_R   0.490348 0.500161 0.740481 0.931880
C23   C     C_R   0.560211 0.672171 0.097864 0.493468
C24   C     C_R   0.439789 0.672171 0.902136 0.493468
C25   C     C_R   0.532219 0.757576 0.045694 -0.287303
C26   C     C_R   0.467782 0.757576 0.954306 -0.287303
C27   C     C_R   0.478368 0.586265 0.943008 -0.096412
C28   C     C_R   0.521632 0.586265 0.056992 -0.096412
C29   C     C_R   0.520508 0.500283 0.124723 -0.027760
C30   C     C_R   0.479492 0.500283 0.875277 -0.027760
C31   C     C_R   0.508014 0.414283 0.062926 -0.154795
C32   C     C_R   0.491986 0.414283 0.937074 -0.154795
C33   C     C_R   0.094260 0.574115 0.561772 0.466604
C34   C     C_R   0.905740 0.574115 0.438229 0.466604
C35   C     C_R   0.186129 0.573607 0.555342 -0.219685
C36   C     C_R   0.813871 0.573607 0.444658 -0.219685
H1    H     H_    0.510121 0.347075 0.111535 0.164072
H2    H     H_    0.489879 0.347075 0.888465 0.164072
H3    H     H_    0.606832 0.930097 0.631993 0.155275
H4    H     H_    0.393168 0.930097 0.368007 0.155275
H5    H     H_    0.602853 0.756287 0.631201 0.130045
H6    H     H_    0.397147 0.756287 0.368799 0.130045
H7    H     H_    0.559571 0.824123 0.076956 0.209767
H8    H     H_    0.440430 0.824123 0.923044 0.209767
H9    H     H_    0.221617 0.629557 0.601493 0.252296
H10   H     H_    0.778384 0.629557 0.398507 0.252295
H11   H     H_    0.055801 0.377730 0.384463 0.204516
H12   H     H_    0.944199 0.377731 0.615539 0.204516
H13   H     H_    0.459626 0.069603 0.306948 0.146429
H14   H     H_    0.540373 0.069603 0.693052 0.146428
H15   H     H_    0.457948 0.242957 0.312389 0.150041
H16   H     H_    0.542052 0.242957 0.687611 0.150041
N1    N     N_R   0.500000 0.252470 0.500000 -0.103371
N2    N     N_R   0.500000 0.747550 0.500000 -0.072088
O1    O     O_R   0.369060 0.579480 0.500010 -0.599349
O2    O     O_R   0.630940 0.579480 0.499990 -0.599348
O3    O     O_R   0.369050 0.420520 0.500010 -0.578235
O4    O     O_R   0.630950 0.420520 0.499990 -0.578235
O5    O     O_R   0.500000 0.579490 0.316770 -0.611042
O6    O     O_R   0.500000 0.579490 0.683230 -0.611042
O7    O     O_R   0.499990 0.420540 0.316770 -0.644360
O8    O     O_R   0.500010 0.420540 0.683230 -0.644361
Zn1   Zn    Zn3+2 0.500000 0.606140 0.500000 1.058973
Zn2   Zn    Zn3+2 0.500000 0.393860 0.500000 1.023250
S1    S     S_3+6 0.658801 0.674461 0.184217 0.019355
O9    O     O_2   0.640788 0.722685 0.307702 -0.325454
O10   O     O_2   0.693303 0.576072 0.204842 -0.341052
O11   O     O_3   0.736245 0.736907 0.102915 -0.510765
H17   H     H_    0.789233 0.736766 0.156256 0.411534
S2    S     S_3+6 0.341199 0.674461 0.815783 0.019355
O12   O     O_2   0.359212 0.722685 0.692299 -0.325452
O13   O     O_2   0.306697 0.576072 0.795159 -0.341053
O14   O     O_3   0.263756 0.736908 0.897085 -0.510766
H18   H     H_    0.210766 0.736764 0.843746 0.411534
Cl1   Cl    Cl    0.039755 0.662263 0.652256 -0.502664
Cl2   Cl    Cl    0.960245 0.662263 0.347745 -0.502664
Cl3   Cl    Cl    0.238038 0.339649 0.340413 -0.569955
Cl4   Cl    Cl    0.761962 0.339649 0.659588 -0.569955

loop_
_geom_bond_atom_site_label_1
_geom_bond_atom_site_label_2
_ccdc_geom_bond_type
C4    C36   A    
O14   H18   S    
C24   C27   A    
C25   H7    S    
C26   H8    S    
O6    Zn1   S    
C28   C29   A    
C24   C26   A    
C21   O5    A    
C22   O6    A    
N1    Zn2   S    
C6    Cl4   S    
N2    Zn1   S    
C17   C20   A    
O8    Zn2   S    
C17   C19   A    
C13   H15   S    
C11   C15   A    
C33   Cl1   S    
C14   H16   S    
O11   H17   S    
S1    O10   D    
O1    Zn1   S    
C36   H10   S    
S2    O12   D    
C32   H2    S    
C9    C10   S    
C21   O7    A    
C19   H6    S    
C27   C30   A    
C9    C33   A    
C13   N1    A    
O4    Zn2   S    
C15   C20   S    
C24   S2    S    
C4    C6    A    
C18   H5    S    
C5    C7    A    
C6    C8    A    
C25   C26   A    
C21   C29   S    
C31   H1    S    
C1    C3    S    
C17   H4    S    
C7    H11   S    
O7    Zn2   S    
C2    C4    S    
C8    H12   S    
C11   H13   S    
C1    O3    A    
C22   O8    A    
C31   C32   A    
C12   C15   A    
C3    C35   A    
C16   C20   A    
S1    O11   S    
S2    O14   S    
O2    Zn1   S    
C10   C34   A    
C23   C28   A    
C19   N2    A    
C8    C10   A    
C12   C14   A    
C5    Cl3   S    
C35   H9    S    
O3    Zn2   S    
C7    C9    A    
C22   C30   S    
C3    C5    A    
C12   H14   S    
C2    O4    A    
O5    Zn1   S    
C23   S1    S    
C1    O1    A    
C29   C31   A    
C2    O2    A    
C30   C32   A    
C11   C13   A    
C33   C35   A    
C34   C36   A    
C23   C25   A    
C18   N2    A    
C16   H3    S    
C14   N1    A    
C16   C18   A    
S1    O9    D    
C27   C28   A    
S2    O13   D    
C34   Cl2   S    
