data_mof_unit_42164.cif
_audit_creation_date              2012-12-10T19:09:32-0500
_audit_creation_method            fapswitch 2.2
_symmetry_space_group_name_H-M    P1
_symmetry_Int_Tables_number       1
_space_group_crystal_system       triclinic
_cell_length_a                    9.557906
_cell_length_b                    10.860584
_cell_length_c                    17.110577
_cell_angle_alpha                 88.826916
_cell_angle_beta                  94.475967
_cell_angle_gamma                 90.103533
_cell_volume                      1770.36572278

loop_
_atom_site_label
_atom_site_type_symbol
_atom_type_description
_atom_site_fract_x
_atom_site_fract_y
_atom_site_fract_z
_atom_type_partial_charge
C1    C     C_R   0.499898 0.262550 0.500178 0.780932
C2    C     C_R   0.661238 0.503682 0.779270 -0.228431
C3    C     C_R   0.594690 0.449733 0.145112 0.467966
C4    C     C_R   0.596779 0.465230 0.225833 -0.395301
C5    C     C_R   0.466579 0.464052 0.098687 0.223335
C6    C     C_R   0.472216 0.483850 0.262673 -0.179756
C7    C     C_R   0.342044 0.482196 0.217203 0.457743
C8    C     C_R   0.342406 0.478108 0.135022 -0.377764
C9    C     C_R   0.623984 0.064630 0.495074 -0.005740
C10   C     C_R   0.498951 0.129594 0.497423 -0.125100
C11   C     C_R   0.372420 0.064342 0.497430 -0.191792
C12   C     C_R   0.518138 0.498256 0.650907 0.784566
C13   C     C_R   0.372781 0.936256 0.498898 -0.180215
C14   C     C_R   0.500173 0.871257 0.502649 -0.067398
C15   C     C_R   0.625420 0.937260 0.500406 0.032980
C16   C     C_3   0.752129 0.936804 0.558335 -0.514653
C17   C     C_3   0.755981 0.075706 0.548243 0.313292
C18   C     C_R   0.065738 0.562337 0.442621 0.281131
C19   C     C_R   0.081517 0.429799 0.552369 -0.089348
C20   C     C_R   0.932755 0.430429 0.552713 -0.026850
C21   C     C_R   0.918081 0.558209 0.440904 0.183471
C22   C     C_3   0.903546 0.690102 0.417869 -0.532494
C23   C     C_R   0.500418 0.737604 0.502316 0.819969
C24   C     C_3   0.062105 0.698598 0.427334 -0.038833
C25   C     C_R   0.481881 0.497166 0.348890 0.873734
C26   C     C_R   0.529553 0.496719 0.736939 -0.024400
C27   C     C_R   0.407865 0.488328 0.777495 -0.232259
C28   C     C_R   0.417367 0.486462 0.858906 -0.171629
C29   C     C_R   0.549614 0.492755 0.901563 0.374353
C30   C     C_R   0.670738 0.502229 0.861026 -0.195995
Cu1   Cu    Cu3+1 0.640670 0.499980 0.500000 0.943037
Cu2   Cu    Cu3+1 0.359330 0.500020 0.500000 0.970329
H1    H     H_    0.696688 0.459358 0.259930 0.196800
H2    H     H_    0.273670 0.888906 0.499952 0.161727
H3    H     H_    0.726700 0.906093 0.618008 0.166824
H4    H     H_    0.846482 0.892872 0.538013 0.204517
H5    H     H_    0.739512 0.124539 0.603286 0.100229
H6    H     H_    0.143120 0.374537 0.595625 0.146878
H7    H     H_    0.883008 0.376071 0.596410 0.144079
H8    H     H_    0.857559 0.701911 0.356490 0.218689
H9    H     H_    0.851238 0.743421 0.460850 0.208248
H10   H     H_    0.098997 0.750062 0.480392 0.132419
H11   H     H_    0.772838 0.507928 0.893002 0.146813
H12   H     H_    0.756783 0.510585 0.749339 0.157399
H13   H     H_    0.321009 0.480847 0.888125 0.152707
H14   H     H_    0.245747 0.487686 0.098119 0.163368
H15   H     H_    0.304918 0.483111 0.746421 0.157510
H16   H     H_    0.274009 0.112100 0.499875 0.177017
N1    N     N_2   0.564630 0.492356 0.984700 -0.182307
N2    N     N_2   0.455514 0.462390 0.015670 -0.256857
N3    N     N_R   0.147870 0.500930 0.499500 -0.213538
N4    N     N_R   0.851960 0.500890 0.499500 -0.186859
O1    O     O_R   0.618810 0.319640 0.500000 -0.582476
O2    O     O_R   0.381230 0.319680 0.499990 -0.588202
O3    O     O_R   0.631790 0.498830 0.613930 -0.593248
O4    O     O_R   0.394210 0.498870 0.613920 -0.591352
O5    O     O_R   0.618770 0.680320 0.500010 -0.581008
O6    O     O_R   0.381190 0.680360 0.500000 -0.579797
O7    O     O_R   0.605790 0.501130 0.386080 -0.594807
O8    O     O_R   0.368210 0.501170 0.386070 -0.510082
O9    O     O_3   0.879990 0.117615 0.514176 -0.569553
C31   C     C_3   0.873452 0.111458 0.431210 0.105341
H17   H     H_    0.808811 0.188913 0.404713 0.160614
H18   H     H_    0.830109 0.022223 0.409473 0.153629
C32   C     C_3   0.020262 0.121949 0.403931 -0.810031
H19   H     H_    0.080877 0.037942 0.422593 0.253703
H20   H     H_    0.014846 0.129612 0.338959 0.213644
H21   H     H_    0.073680 0.204465 0.429293 0.252340
O10   O     O_3   0.718805 0.423269 0.112528 -0.559914
C33   C     C_3   0.725128 0.294743 0.101863 0.072671
H22   H     H_    0.629308 0.259906 0.067932 0.151913
H23   H     H_    0.737489 0.245262 0.159635 0.128174
C34   C     C_3   0.850464 0.265025 0.056015 -0.777675
H24   H     H_    0.949277 0.292936 0.089205 0.227412
H25   H     H_    0.854317 0.164421 0.046030 0.205247
H26   H     H_    0.841172 0.314462 0.998367 0.249549
I1    I     I_    0.151568 0.759967 0.322644 -0.348150
O11   O     O_3   0.217908 0.493537 0.253753 -0.533732
C35   C     C_3   0.112694 0.413237 0.221856 0.090374
H27   H     H_    0.155358 0.319797 0.211895 0.122133
H28   H     H_    0.062361 0.452918 0.166301 0.170868
C36   C     C_3   0.999100 0.399684 0.278479 -0.748337
H29   H     H_    0.946297 0.489626 0.283937 0.252685
H30   H     H_    0.920372 0.330785 0.256688 0.193107
H31   H     H_    0.046144 0.368785 0.336752 0.240419

loop_
_geom_bond_atom_site_label_1
_geom_bond_atom_site_label_2
_ccdc_geom_bond_type
C23   O6    A    
C18   C21   A    
C24   H10   S    
C34   H24   S    
C19   C20   A    
Cu2   O6    S    
Cu1   N4    S    
C7    C8    A    
C29   N1    S    
C26   C27   A    
C31   H17   S    
C18   C24   S    
C28   C29   A    
C3    O10   S    
C16   H3    S    
C22   H9    S    
C15   C16   S    
Cu1   O7    S    
N1    N2    D    
C1    O1    A    
C31   H18   S    
C17   O9    S    
C2    H12   S    
C16   C17   S    
C32   H20   S    
C33   H22   S    
C25   O8    A    
C9    C10   A    
C13   C14   A    
C34   H25   S    
C11   H16   S    
O9    C31   S    
Cu2   O2    S    
C18   N3    A    
C28   H13   S    
C4    C6    A    
C35   H28   S    
C20   H7    S    
O11   C35   S    
C12   C26   S    
C14   C23   S    
C1    O2    A    
Cu2   N3    S    
C29   C30   A    
C19   H6    S    
C35   C36   S    
Cu1   Cu2   S    
C32   H21   S    
C22   H8    S    
C33   C34   S    
C2    C26   A    
C17   H5    S    
Cu1   O1    S    
C12   O4    A    
C7    O11   S    
C9    C17   S    
C36   H29   S    
C36   H30   S    
C34   H26   S    
C22   C24   S    
C30   H11   S    
Cu2   O8    S    
C3    C4    A    
C27   H15   S    
C23   O5    A    
C4    H1    S    
C31   C32   S    
C1    C10   S    
C3    C5    A    
C5    C8    A    
C6    C7    A    
C36   H31   S    
C2    C30   A    
Cu1   O5    S    
C9    C15   A    
C13   H2    S    
C20   N4    A    
C16   H4    S    
C11   C13   A    
O10   C33   S    
C5    N2    S    
C8    H14   S    
C12   O3    A    
C10   C11   A    
C35   H27   S    
C6    C25   S    
C19   N3    A    
C24   I1    S    
C32   H19   S    
C27   C28   A    
C14   C15   A    
C33   H23   S    
C25   O7    A    
Cu1   O3    S    
C21   C22   S    
Cu2   O4    S    
C21   N4    A    
