data_mof_unit_38785.cif
_audit_creation_date              2012-12-10T19:07:00-0500
_audit_creation_method            fapswitch 2.2
_symmetry_space_group_name_H-M    P1
_symmetry_Int_Tables_number       1
_space_group_crystal_system       triclinic
_cell_length_a                    27.715836
_cell_length_b                    10.826967
_cell_length_c                    9.539081
_cell_angle_alpha                 90.54764
_cell_angle_beta                  89.970243
_cell_angle_gamma                 90.451631
_cell_volume                      2862.25260412

loop_
_atom_site_label
_atom_site_type_symbol
_atom_type_description
_atom_site_fract_x
_atom_site_fract_y
_atom_site_fract_z
_atom_type_partial_charge
C1    C     C_R   0.498393 0.262427 0.499330 0.815605
C2    C     C_R   0.277598 0.425212 0.431092 -0.090851
C3    C     C_R   0.253894 0.522276 0.499966 0.296170
C4    C     C_R   0.101631 0.542956 0.505830 -0.046739
C5    C     C_R   0.127711 0.537480 0.632093 -0.019858
C6    C     C_R   0.102931 0.540983 0.759816 -0.141809
C7    C     C_R   0.126590 0.537594 0.377381 -0.016209
C8    C     C_R   0.355010 0.511302 0.500861 -0.032905
C9    C     C_R   0.644821 0.506802 0.499696 -0.108654
C10   C     C_R   0.974384 0.541574 0.636962 0.056668
C11   C     C_R   0.974341 0.584372 0.382889 0.025134
C12   C     C_R   0.407658 0.502340 0.500136 0.804269
C13   C     C_R   0.949012 0.560870 0.509639 0.030539
C14   C     C_R   0.947578 0.514326 0.759135 -0.208822
C15   C     C_R   0.897487 0.509026 0.756974 -0.145729
C16   C     C_R   0.872200 0.529502 0.632751 -0.012692
C17   C     C_R   0.897839 0.556342 0.509107 -0.048795
C18   C     C_R   0.872205 0.577773 0.384732 -0.066219
C19   C     C_R   0.821671 0.566713 0.384577 0.546393
C20   C     C_R   0.821598 0.522900 0.629096 0.539141
C21   C     C_R   0.723144 0.417377 0.543605 -0.208783
C22   C     C_R   0.672555 0.405065 0.540318 0.406284
C23   C     C_R   0.499162 0.737904 0.500308 0.785121
C24   C     C_R   0.667233 0.616761 0.457927 -0.332297
C25   C     C_R   0.717296 0.627664 0.460381 -0.085447
C26   C     C_R   0.745586 0.528147 0.503143 0.295694
C27   C     C_R   0.025563 0.547440 0.637425 0.044429
C28   C     C_R   0.050575 0.552347 0.507896 0.067896
C29   C     C_R   0.024981 0.564013 0.380053 0.047365
C30   C     C_R   0.052815 0.545666 0.762720 -0.208738
C31   C     C_R   0.100494 0.535828 0.251926 -0.150215
C32   C     C_R   0.947473 0.626579 0.265088 0.154997
C33   C     C_R   0.897185 0.614956 0.264849 -0.154053
C34   C     C_R   0.592293 0.499886 0.499935 0.859064
C35   C     C_R   0.050510 0.545738 0.253542 -0.217259
C36   C     C_R   0.486750 0.065373 0.622508 0.128284
C37   C     C_R   0.492346 0.129631 0.497540 -0.114324
C38   C     C_R   0.491205 0.063279 0.370240 -0.225618
C39   C     C_R   0.491967 0.934529 0.371100 -0.211763
C40   C     C_R   0.493979 0.871160 0.499213 -0.100714
C41   C     C_R   0.487741 0.938267 0.623521 0.135922
C42   C     C_3   0.515633 0.937168 0.757373 -0.498827
C43   C     C_3   0.513893 0.077038 0.756938 -0.445119
C44   C     C_R   0.540540 0.532758 0.074489 0.228619
C45   C     C_R   0.178196 0.528565 0.627645 0.534996
C46   C     C_R   0.461773 0.454772 0.073860 -0.075499
C47   C     C_R   0.461747 0.454909 0.925109 -0.093396
C48   C     C_R   0.540813 0.532490 0.926802 0.280847
C49   C     C_3   0.566552 0.654997 0.926414 -0.132210
C50   C     C_3   0.566548 0.652836 0.085766 -0.491556
C51   C     C_R   0.177174 0.531262 0.377572 0.537808
C52   C     C_R   0.281034 0.614839 0.567929 -0.089064
C53   C     C_R   0.331539 0.609965 0.570294 0.126695
C54   C     C_R   0.327830 0.420637 0.430117 -0.275482
Cu1   Cu    Cu3+1 0.500000 0.499980 0.640670 0.953283
Cu2   Cu    Cu3+1 0.500000 0.500020 0.359330 0.944588
H1    H     H_    0.345568 0.344975 0.376308 0.148777
H2    H     H_    0.262494 0.690612 0.619087 0.150541
H3    H     H_    0.118523 0.525196 0.151782 0.183477
H4    H     H_    0.645828 0.694877 0.425710 0.151704
H5    H     H_    0.877387 0.641948 0.172152 0.194488
H6    H     H_    0.734147 0.713958 0.430117 0.157224
H7    H     H_    0.032168 0.534787 0.154466 0.158066
H8    H     H_    0.492618 0.110152 0.270503 0.169684
H9    H     H_    0.493542 0.885618 0.271691 0.162518
H10   H     H_    0.494363 0.896511 0.844555 0.196599
H11   H     H_    0.257045 0.352905 0.378755 0.160238
H12   H     H_    0.552783 0.901039 0.743019 0.199781
H13   H     H_    0.491309 0.116203 0.842582 0.198099
H14   H     H_    0.549883 0.121564 0.744303 0.220034
H15   H     H_    0.430523 0.419579 0.128796 0.149848
H16   H     H_    0.430480 0.419874 0.869470 0.154703
H17   H     H_    0.543855 0.728954 0.883799 0.180615
H18   H     H_    0.602716 0.642239 0.134515 0.212751
H19   H     H_    0.544106 0.726772 0.133358 0.189158
H20   H     H_    0.122176 0.539260 0.858609 0.185019
H21   H     H_    0.745211 0.341609 0.578388 0.150258
H22   H     H_    0.878663 0.487084 0.853271 0.189885
H23   H     H_    0.964383 0.492132 0.857440 0.134567
H24   H     H_    0.036429 0.550179 0.865133 0.130659
N1    N     N_R   0.202003 0.527112 0.501633 -0.462722
N2    N     N_R   0.797357 0.539494 0.505666 -0.454596
N3    N     N_R   0.500300 0.500930 0.147930 -0.188518
N4    N     N_R   0.500310 0.500890 0.852020 -0.203821
O1    O     O_R   0.500000 0.319640 0.618810 -0.569680
O2    O     O_2   0.796808 0.500838 0.748212 -0.531919
O3    O     O_2   0.201350 0.530983 0.254720 -0.530330
O4    O     O_2   0.797095 0.581686 0.263881 -0.537413
O5    O     O_R   0.500010 0.319680 0.381230 -0.585846
O6    O     O_R   0.430260 0.500000 0.618780 -0.586156
O7    O     O_R   0.430270 0.500040 0.381190 -0.584319
O8    O     O_R   0.499990 0.680320 0.618770 -0.582525
O9    O     O_R   0.500000 0.680360 0.381190 -0.585969
O10   O     O_R   0.569730 0.499960 0.618810 -0.559885
O11   O     O_R   0.569740 0.500000 0.381220 -0.582654
O12   O     O_2   0.203264 0.520133 0.748412 -0.530693
C55   C     C_3   0.969026 0.702465 0.148140 -0.879715
H25   H     H_    0.004917 0.741297 0.176202 0.248614
H26   H     H_    0.971183 0.646393 0.050462 0.221161
H27   H     H_    0.945853 0.783500 0.127047 0.242077
C56   C     C_3   0.617361 0.651537 0.863449 -0.756695
H28   H     H_    0.615490 0.664541 0.748584 0.237753
H29   H     H_    0.639331 0.728884 0.907378 0.233585
H30   H     H_    0.635624 0.562950 0.886383 0.253212
O13   O     O_3   0.649428 0.297717 0.583418 -0.581968
C57   C     C_3   0.665139 0.195796 0.502054 0.057769
H31   H     H_    0.701418 0.165642 0.536843 0.152213
H32   H     H_    0.666193 0.217847 0.388050 0.144136
C58   C     C_3   0.630332 0.088056 0.521815 -0.780635
H33   H     H_    0.593762 0.114239 0.486349 0.248437
H34   H     H_    0.642506 0.007195 0.459040 0.199228
H35   H     H_    0.628887 0.061846 0.634005 0.246400
C59   C     C_3   0.359616 0.711761 0.643109 -0.831428
H36   H     H_    0.335525 0.785331 0.683879 0.227632
H37   H     H_    0.379821 0.673878 0.733218 0.250426
H38   H     H_    0.385368 0.754763 0.568487 0.219994

loop_
_geom_bond_atom_site_label_1
_geom_bond_atom_site_label_2
_ccdc_geom_bond_type
C10   C27   A    
Cu2   O11   S    
C44   C48   A    
C21   C26   A    
C40   C41   A    
C56   H28   S    
C20   N2    A    
C41   C42   S    
C12   O7    A    
Cu1   Cu2   S    
C44   N3    A    
C55   H25   S    
Cu1   O8    S    
C12   O6    A    
C28   C29   A    
Cu1   O6    S    
C4    C7    A    
C49   C56   S    
C5    C6    A    
C9    C22   A    
C15   H22   S    
C57   H31   S    
C23   C40   S    
C32   C55   S    
C18   C19   A    
C31   H3    S    
C4    C28   A    
Cu2   O7    S    
C16   C17   A    
C20   O2    S    
C3    N1    S    
C36   C37   A    
C19   N2    A    
C51   N1    A    
C16   C20   A    
C59   H38   S    
C30   H24   S    
C50   H19   S    
C56   H29   S    
C21   C22   A    
C27   C30   A    
C42   H12   S    
C39   H9    S    
C36   C41   A    
Cu1   O10   S    
C55   H26   S    
C53   C59   S    
C38   H8    S    
C1    O1    A    
Cu2   O9    S    
C7    C31   A    
C24   C25   A    
C19   O4    S    
C2    C54   A    
C58   H35   S    
C8    C54   A    
C39   C40   A    
C25   C26   A    
C47   N4    A    
C5    C45   A    
C23   O9    A    
Cu1   O1    S    
C37   C38   A    
C8    C12   S    
C17   C18   A    
C14   H23   S    
C34   O11   A    
C50   H18   S    
C46   H15   S    
C52   H2    S    
C33   H5    S    
C48   C49   S    
C6    C30   A    
C11   C32   A    
C2    H11   S    
C56   H30   S    
C10   C14   A    
C9    C34   S    
C31   C35   A    
C42   C43   S    
C51   O3    S    
C55   H27   S    
C52   C53   A    
Cu2   N3    S    
C59   H36   S    
C44   C50   S    
C46   C47   A    
Cu2   O5    S    
C1    O5    A    
C14   C15   A    
C45   N1    A    
C34   O10   A    
C4    C5    A    
C10   C13   A    
C8    C53   A    
C3    C52   A    
C9    C24   A    
C6    H20   S    
C1    C37   S    
C43   H14   S    
C22   O13   S    
O13   C57   S    
C29   C35   A    
C13   C17   A    
C32   C33   A    
C58   H34   S    
C2    C3    A    
C7    C51   A    
C58   H33   S    
C11   C13   A    
C38   C39   A    
C57   H32   S    
C49   H17   S    
C25   H6    S    
C18   C33   A    
C47   H16   S    
C46   N3    A    
C48   N4    A    
C11   C29   A    
C26   N2    S    
C49   C50   S    
C21   H21   S    
C27   C28   A    
C42   H10   S    
C23   O8    A    
C36   C43   S    
C35   H7    S    
C24   H4    S    
Cu1   N4    S    
C43   H13   S    
C45   O12   S    
C54   H1    S    
C15   C16   A    
C59   H37   S    
C57   C58   S    
