data_mof_unit_35469.cif
_audit_creation_date              2012-12-11T17:06:37-0500
_audit_creation_method            fapswitch 2.2
_symmetry_space_group_name_H-M    P1
_symmetry_Int_Tables_number       1
_space_group_crystal_system       triclinic
_cell_length_a                    6.959242
_cell_length_b                    14.523776
_cell_length_c                    15.959882
_cell_angle_alpha                 90.500075
_cell_angle_beta                  90.041077
_cell_angle_gamma                 89.992335
_cell_volume                      1613.07477594

loop_
_atom_site_label
_atom_site_type_symbol
_atom_type_description
_atom_site_fract_x
_atom_site_fract_y
_atom_site_fract_z
_atom_type_partial_charge
O1    O     O_R   0.494400 0.415450 0.412630 -0.540009
O2    O     O_R   0.823940 0.405730 0.586760 -0.546843
O3    O     O_R   0.994240 0.584550 0.587370 -0.527484
C1    C     C_R   0.655210 0.383564 0.615286 0.692797
O4    O     O_R   0.824110 0.404430 0.413240 -0.547030
O5    O     O_R   0.994420 0.583240 0.412620 -0.534101
C2    C     C_R   0.655303 0.382175 0.384292 0.685816
O6    O     O_R   0.494230 0.416760 0.587380 -0.539569
O7    O     O_3   0.660800 0.558670 0.500000 -0.354204
V1    V     V_3+5 0.935650 0.489120 0.500000 1.414454
O8    O     O_R   0.324140 0.594270 0.413240 -0.539692
C3    C     C_R   0.155026 0.616070 0.384229 0.711129
O9    O     O_R   0.323960 0.595570 0.586760 -0.538538
C4    C     C_R   0.155198 0.617765 0.615486 0.721667
V2    V     V_3+5 0.435660 0.510880 0.500000 1.430249
O10   O     O_3   0.160640 0.441330 0.500000 -0.379433
C5    C     C_3   0.060403 0.667512 0.772726 -0.180394
C6    C     C_3   0.233403 0.717881 0.813785 -0.142698
H1    H     H_    0.316196 0.693086 0.868619 0.106224
H2    H     H_    0.000968 0.600337 0.792902 0.108434
C7    C     C_3   0.121015 0.809116 0.810006 -0.040882
C8    C     C_3   0.947683 0.759544 0.769801 -0.133076
C9    C     C_3   0.032862 0.778771 0.682247 0.181545
C10   C     C_3   0.205290 0.829455 0.722846 -0.143317
C11   C     C_3   0.317788 0.737332 0.725824 -0.131771
C12   C     C_3   0.144673 0.687631 0.685523 -0.042502
H3    H     H_    0.794939 0.768973 0.787974 0.121678
H4    H     H_    0.264495 0.896619 0.702513 0.129637
H5    H     H_    0.470435 0.727996 0.707454 0.139713
C13   C     C_R   0.272383 0.815682 0.239827 0.108219
C14   C     C_R   0.118450 0.815322 0.183127 -0.114871
C15   C     C_R   0.966855 0.753541 0.198788 -0.178273
H6    H     H_    0.844515 0.750878 0.157142 0.131843
C16   C     C_R   0.977844 0.689938 0.264856 -0.171307
H7    H     H_    0.863105 0.640481 0.272199 0.124866
C17   C     C_R   0.141076 0.685910 0.317130 -0.107057
C18   C     C_R   0.283677 0.752502 0.304967 0.132658
C19   C     C_3   0.494651 0.740477 0.293585 -0.407766
C20   C     C_3   0.482465 0.809663 0.222907 -0.407990
H8    H     H_    0.531609 0.669794 0.271790 0.159886
H9    H     H_    0.577874 0.766078 0.348510 0.201792
H10   H     H_    0.513098 0.779352 0.160137 0.168633
H11   H     H_    0.557956 0.875428 0.237112 0.177161
C21   C     C_R   0.493459 0.315890 0.741408 0.097420
C22   C     C_R   0.647647 0.317182 0.685058 -0.111211
C23   C     C_R   0.799025 0.254745 0.698928 -0.172947
H12   H     H_    0.921280 0.253274 0.657261 0.135551
C24   C     C_R   0.787744 0.189008 0.763051 -0.165893
H13   H     H_    0.902355 0.139238 0.769205 0.131856
C25   C     C_R   0.624395 0.183557 0.814922 -0.111032
C26   C     C_R   0.481901 0.250592 0.804644 0.097282
C27   C     C_3   0.270996 0.238866 0.792491 -0.405779
C28   C     C_3   0.283493 0.310465 0.723896 -0.397871
H14   H     H_    0.187305 0.262531 0.847929 0.172503
H15   H     H_    0.234316 0.168939 0.768610 0.170433
H16   H     H_    0.207854 0.375724 0.739840 0.163010
H17   H     H_    0.253193 0.282310 0.660261 0.174102
C29   C     C_R   0.493010 0.315475 0.256660 0.095843
C30   C     C_R   0.647343 0.316134 0.313097 -0.109464
C31   C     C_R   0.798998 0.254147 0.297397 -0.173296
H18   H     H_    0.921426 0.252253 0.338994 0.135028
C32   C     C_R   0.787903 0.189434 0.231322 -0.172538
H19   H     H_    0.902697 0.139874 0.223827 0.129817
C33   C     C_R   0.624517 0.184575 0.179179 -0.110767
C34   C     C_R   0.481593 0.251172 0.191499 0.099476
C35   C     C_3   0.270873 0.238872 0.203359 -0.406115
C36   C     C_3   0.283185 0.309334 0.274056 -0.398298
H20   H     H_    0.234860 0.168500 0.225174 0.169703
H21   H     H_    0.186734 0.263304 0.148658 0.173111
H22   H     H_    0.253508 0.280075 0.336859 0.173343
H23   H     H_    0.206908 0.374691 0.260089 0.164071
O11   O     O_R   0.771650 0.079500 0.908680 -0.539620
O12   O     O_R   0.441690 0.091800 0.082800 -0.539536
O13   O     O_R   0.271460 0.912980 0.083410 -0.537777
C37   C     C_R   0.610726 0.113884 0.111935 0.695497
O14   O     O_R   0.441930 0.090510 0.909280 -0.540056
O15   O     O_R   0.271690 0.911670 0.908660 -0.537386
C38   C     C_R   0.610918 0.112524 0.880616 0.702849
O16   O     O_R   0.771410 0.080810 0.083440 -0.540126
O17   O     O_3   0.605100 0.937580 0.996050 -0.370489
V3    V     V_3+5 0.330220 0.007110 0.996030 1.399295
O18   O     O_R   0.941980 0.900620 0.909250 -0.541509
C39   C     C_R   0.110718 0.878577 0.880393 0.692177
O19   O     O_R   0.941740 0.901920 0.082770 -0.543693
C40   C     C_R   0.110560 0.880179 0.111821 0.692333
V4    V     V_3+5 0.830220 0.985300 0.996000 1.397432
O20   O     O_3   0.105210 0.054870 0.996020 -0.370013
I1    I     I_    0.871019 0.827862 0.577987 -0.466311

loop_
_geom_bond_atom_site_label_1
_geom_bond_atom_site_label_2
_ccdc_geom_bond_type
C35   H20   S    
C14   C40   S    
C6    C7    S    
C1    O6    A    
C22   C23   A    
C27   C28   S    
C32   H19   S    
C5    C12   S    
C17   C18   A    
O19   V4    S    
C16   H7    S    
O5    C3    A    
C19   C20   S    
C35   H21   S    
O15   C39   A    
V2    O10   S    
C5    H2    S    
C31   C32   A    
C6    H1    S    
C9    C12   S    
O12   V3    S    
C32   C33   A    
O8    V2    S    
C21   C28   S    
C7    C39   S    
O17   V4    S    
C9    C10   S    
O1    V2    S    
C3    C17   S    
O7    V1    S    
C36   H23   S    
C27   H15   S    
C24   C25   A    
C35   C36   S    
C30   C31   A    
O9    C4    A    
O12   C37   A    
C6    C11   S    
C25   C38   S    
C2    C30   S    
C27   H14   S    
C25   C26   A    
C20   H10   S    
C1    C22   S    
C11   H5    S    
C23   C24   A    
C26   C27   S    
O19   C40   A    
C10   C11   S    
C19   H9    S    
O4    C2    A    
C28   H17   S    
V4    O20   S    
C20   H11   S    
C29   C30   A    
O18   V4    S    
C13   C18   A    
C31   H18   S    
C15   C16   A    
O2    C1    A    
C18   C19   S    
C29   C34   A    
C14   C15   A    
O15   V3    S    
C5    C6    S    
C4    C12   S    
V3    O20   S    
O3    C4    A    
C21   C26   A    
C24   H13   S    
O18   C39   A    
O6    V2    S    
C9    I1    S    
O9    V2    S    
O13   V3    S    
O2    V1    S    
C21   C22   A    
C28   H16   S    
C23   H12   S    
O1    C2    A    
C10   H4    S    
O14   C38   A    
O17   V3    S    
O14   V3    S    
O5    V1    S    
O11   V4    S    
O8    C3    A    
C5    C8    S    
C8    H3    S    
C36   H22   S    
C15   H6    S    
C11   C12   S    
O4    V1    S    
O3    V1    S    
V1    O10   S    
C33   C34   A    
C19   H8    S    
C13   C14   A    
C33   C37   S    
C13   C20   S    
C16   C17   A    
O13   C40   A    
O7    V2    S    
C29   C36   S    
C34   C35   S    
C7    C10   S    
O11   C38   A    
C8    C9    S    
C7    C8    S    
C37   O16   A    
O16   V4    S    
