data_mof_unit_45179.cif
_audit_creation_date              2012-12-10T16:56:33-0500
_audit_creation_method            fapswitch 2.2
_symmetry_space_group_name_H-M    P1
_symmetry_Int_Tables_number       1
_space_group_crystal_system       triclinic
_cell_length_a                    7.816602
_cell_length_b                    8.687655
_cell_length_c                    15.694605
_cell_angle_alpha                 91.918604
_cell_angle_beta                  86.387347
_cell_angle_gamma                 93.732505
_cell_volume                      1060.95230309

loop_
_atom_site_label
_atom_site_type_symbol
_atom_type_description
_atom_site_fract_x
_atom_site_fract_y
_atom_site_fract_z
_atom_type_partial_charge
C1    C     C_R   0.545037 0.793852 0.498129 0.888495
C2    C     C_3   0.398820 0.377302 0.024047 0.001444
C3    C     C_1   0.512540 0.501477 0.750266 -0.184345
C4    C     C_1   0.487465 0.498540 0.249734 -0.184389
C5    C     C_3   0.345803 0.508585 0.970088 0.009138
C6    C     C_3   0.654206 0.491449 0.029913 0.009137
C7    C     C_3   0.516117 0.501301 0.916454 0.083255
C8    C     C_3   0.483893 0.498733 0.083546 0.083266
C9    C     C_1   0.519621 0.501858 0.825318 -0.035360
C10   C     C_1   0.480387 0.498170 0.174682 -0.035401
C11   C     C_1   0.712918 0.756373 0.948275 0.182728
C12   C     C_R   0.454962 0.206148 0.501875 0.888510
C13   C     C_1   0.287089 0.243663 0.051727 0.182731
C14   C     C_1   0.819276 0.481522 0.068696 0.190905
C15   C     C_1   0.180732 0.518510 0.931305 0.190899
C16   C     C_1   0.730011 0.014629 0.539530 0.287906
C17   C     C_1   0.269968 0.985370 0.460497 0.287857
C18   C     C_3   0.950182 0.325949 0.353223 0.210621
C19   C     C_3   0.056852 0.227891 0.290871 -0.860657
C20   C     C_3   0.049793 0.674053 0.646775 0.210669
C21   C     C_3   0.943142 0.772168 0.709105 -0.860765
C22   C     C_R   0.503278 0.500634 0.661719 0.874782
C23   C     C_R   0.496723 0.499369 0.338281 0.874840
C24   C     C_2   0.567032 0.956088 0.506690 -0.274938
C25   C     C_2   0.432962 0.043912 0.493321 -0.274939
C26   C     C_3   0.430007 0.631993 0.030383 -0.256735
C27   C     C_3   0.570002 0.368040 0.969617 -0.256736
C28   C     C_3   0.601190 0.622732 0.975953 0.001452
H1    H     H_    0.371595 0.738117 0.056569 0.168308
H2    H     H_    0.810684 0.719044 0.718768 0.264150
H3    H     H_    0.002912 0.781447 0.771557 0.232630
H4    H     H_    0.938055 0.889819 0.684858 0.260615
H5    H     H_    0.628414 0.261917 0.943432 0.168309
H6    H     H_    0.937885 0.437567 0.321969 0.161026
H7    H     H_    0.823389 0.262967 0.365441 0.170036
H8    H     H_    0.062302 0.110320 0.315190 0.260674
H9    H     H_    0.996854 0.218355 0.228474 0.232586
H10   H     H_    0.189195 0.281240 0.281067 0.264092
H11   H     H_    0.176620 0.736984 0.634573 0.170039
H12   H     H_    0.062022 0.562427 0.678033 0.160982
N1    N     N_2   0.950320 0.457950 0.477300 0.163714
N2    N     N_2   0.049680 0.542050 0.522700 0.163720
N3    N     N_1   0.800880 0.861937 0.926617 -0.204880
N4    N     N_1   0.199125 0.138102 0.073387 -0.204871
N5    N     N_1   0.948043 0.473680 0.100357 -0.214198
N6    N     N_1   0.051964 0.526349 0.899645 -0.214226
N7    N     N_1   0.859208 0.062492 0.565098 -0.169301
N8    N     N_1   0.140759 0.937503 0.434943 -0.169283
O1    O     O_R   0.389250 0.738570 0.505570 -0.638282
O2    O     O_3   0.966640 0.649240 0.570382 -0.520396
O3    O     O_R   0.610750 0.261430 0.494430 -0.638295
O4    O     O_R   0.678390 0.711630 0.491020 -0.566943
O5    O     O_R   0.321610 0.288370 0.508980 -0.566952
O6    O     O_R   0.355460 0.513480 0.630490 -0.672806
O7    O     O_R   0.644540 0.486520 0.369510 -0.672814
O8    O     O_R   0.644600 0.486540 0.615950 -0.580715
O9    O     O_R   0.355400 0.513460 0.384050 -0.580681
O10   O     O_3   0.033373 0.350786 0.429603 -0.520405
Zn1   Zn    Zn3+2 0.306940 0.517990 0.509710 1.029905
Zn2   Zn    Zn3+2 0.693060 0.482010 0.490290 1.029889

loop_
_geom_bond_atom_site_label_1
_geom_bond_atom_site_label_2
_ccdc_geom_bond_type
N2    Zn1   S    
C20   O2    S    
C24   C25   D    
C23   O7    A    
C2    C27   S    
C3    C9    T    
C19   H10   S    
C6    C14   S    
C8    C26   S    
C21   H2    S    
C16   C24   S    
C26   C28   S    
C12   O5    A    
O1    Zn1   S    
C17   N8    T    
C22   O8    A    
C12   C25   S    
C19   H8    S    
C17   C25   S    
O5    Zn1   S    
C22   O6    A    
O7    Zn2   S    
C27   H5    S    
C11   N3    T    
C1    C24   S    
C21   H3    S    
C11   C28   S    
N2    O2    S    
C16   N7    T    
C2    C13   S    
C1    O4    A    
N1    O10   S    
C4    C23   S    
C14   N5    T    
C5    C7    S    
O6    Zn1   S    
C18   H6    S    
C20   H12   S    
C21   H4    S    
C6    C28   S    
C5    C15   S    
C2    C5    S    
O9    Zn1   S    
O8    Zn2   S    
C4    C10   T    
C5    C26   S    
C7    C9    S    
C12   O3    A    
C7    C27   S    
C20   C21   S    
C18   H7    S    
C26   H1    S    
C8    C10   S    
C18   C19   S    
N1    N2    D    
C23   O9    A    
C20   H11   S    
C3    C22   S    
C6    C8    S    
O3    Zn2   S    
C19   H9    S    
O4    Zn2   S    
C15   N6    T    
C1    O1    A    
C18   O10   S    
C13   N4    T    
C2    C8    S    
C7    C28   S    
C6    C27   S    
N1    Zn2   S    
