data_mof_unit_24326.cif
_audit_creation_date              2012-12-10T17:52:06-0500
_audit_creation_method            fapswitch 2.2
_symmetry_space_group_name_H-M    P1
_symmetry_Int_Tables_number       1
_space_group_crystal_system       triclinic
_cell_length_a                    14.820682
_cell_length_b                    14.98006
_cell_length_c                    19.263131
_cell_angle_alpha                 74.147136
_cell_angle_beta                  103.295504
_cell_angle_gamma                 116.733588
_cell_volume                      3645.62530317

loop_
_atom_site_label
_atom_site_type_symbol
_atom_type_description
_atom_site_fract_x
_atom_site_fract_y
_atom_site_fract_z
_atom_type_partial_charge
C1    C     C_R   0.878802 0.311720 0.512057 0.830565
C2    C     C_R   0.120314 0.688695 0.488545 0.886884
C3    C     C_R   0.805955 0.203558 0.511730 -0.125372
C4    C     C_R   0.187313 0.800439 0.476546 -0.130068
C5    C     C_R   0.759351 0.019828 0.537359 -0.022365
C6    C     C_R   0.212254 0.979730 0.443858 -0.102865
C7    C     C_R   0.829034 0.119397 0.547909 -0.029371
C8    C     C_R   0.151949 0.875735 0.472306 -0.069742
C9    C     C_R   0.706725 0.185091 0.476994 -0.124142
C10   C     C_R   0.286931 0.831581 0.464797 -0.213389
C11   C     C_R   0.633924 0.086866 0.469598 0.063090
C12   C     C_R   0.353233 0.934425 0.446040 0.081548
C13   C     C_R   0.666047 0.006208 0.490960 0.030995
C14   C     C_R   0.315307 0.010386 0.432387 0.001499
C15   C     C_R   0.528601 0.064871 0.445956 0.068313
C16   C     C_R   0.458771 0.962680 0.446222 0.044230
C17   C     C_R   0.497369 0.891773 0.447538 -0.247241
C18   C     C_R   0.489695 0.139862 0.423866 -0.234582
C19   C     C_R   0.600506 0.912994 0.468353 -0.036644
C20   C     C_R   0.384857 0.113962 0.412430 -0.123112
C21   C     C_R   0.695771 0.635027 0.359740 -0.347377
C22   C     C_R   0.277640 0.323659 0.619004 -0.343634
C23   C     C_R   0.001690 0.501584 0.632017 0.845825
C24   C     C_R   0.998476 0.498342 0.368113 0.788426
C25   C     C_R   0.784827 0.620620 0.385688 0.168677
C26   C     C_R   0.212791 0.371755 0.610090 0.240535
C27   C     C_R   0.713679 0.511071 0.493611 0.100776
C28   C     C_R   0.281043 0.481925 0.502742 -0.000716
C29   C     C_R   0.616048 0.513827 0.463648 -0.072611
C30   C     C_R   0.353682 0.439145 0.512180 -0.051390
C31   C     C_R   0.611532 0.581154 0.396847 0.154035
C32   C     C_R   0.348390 0.357361 0.570847 0.124692
C33   C     C_R   0.522991 0.455087 0.496861 0.111677
C34   C     C_R   0.437682 0.481120 0.470544 0.136258
C35   C     C_R   0.436139 0.542553 0.401225 -0.130753
C36   C     C_R   0.507239 0.365561 0.550089 -0.160423
C37   C     C_R   0.521416 0.591841 0.365146 -0.114223
C38   C     C_R   0.421114 0.317175 0.586003 -0.163691
C39   C     C_R   0.069758 0.591421 0.738230 -0.060734
C40   C     C_R   0.922424 0.402789 0.265961 -0.150045
C41   C     C_R   0.066235 0.589352 0.811669 -0.075337
C42   C     C_R   0.924698 0.394966 0.194872 -0.043783
C43   C     C_R   0.001214 0.499061 0.854093 -0.007597
C44   C     C_R   0.996536 0.476778 0.151393 0.007237
C45   C     C_R   0.938069 0.414023 0.822518 -0.161096
C46   C     C_R   0.067229 0.562221 0.180588 -0.173099
C47   C     C_R   0.940064 0.416400 0.750360 -0.177450
C48   C     C_R   0.066179 0.568549 0.250911 -0.194923
C49   C     C_R   0.004931 0.503787 0.708013 -0.063587
C50   C     C_R   0.993408 0.490576 0.293280 -0.088988
C51   C     C_R   0.997781 0.477558 0.074793 0.398728
C52   C     C_R   0.000057 0.490520 0.932009 0.397956
Cu1   Cu    Cu3+1 0.081740 0.475680 0.518680 0.996930
Cu2   Cu    Cu3+1 0.918260 0.524320 0.481320 1.003030
H1    H     H_    0.516901 0.639553 0.311974 0.132882
H2    H     H_    0.414148 0.250784 0.628670 0.136434
H3    H     H_    0.690256 0.684247 0.307280 0.150698
H4    H     H_    0.282122 0.269150 0.668644 0.147993
H5    H     H_    0.367525 0.549077 0.372314 0.129569
H6    H     H_    0.557850 0.328306 0.562358 0.161177
H7    H     H_    0.888410 0.344398 0.854390 0.153530
H8    H     H_    0.122752 0.625561 0.148361 0.155581
H9    H     H_    0.891878 0.348825 0.727706 0.136029
H10   H     H_    0.121501 0.635532 0.272033 0.154437
H11   H     H_    0.313530 0.773583 0.474535 0.225994
H12   H     H_    0.687091 0.249142 0.456614 0.187312
H13   H     H_    0.448475 0.821314 0.429174 0.217689
H14   H     H_    0.539053 0.219864 0.412033 0.161225
N1    N     N_R   0.911161 0.440624 0.961374 -0.235594
N2    N     N_R   0.086706 0.526430 0.045486 -0.237913
N3    N     N_R   0.910032 0.434784 0.031381 -0.229866
N4    N     N_R   0.087844 0.532321 0.975550 -0.233826
N5    N     N_R   0.795420 0.560800 0.453240 -0.225493
N6    N     N_R   0.204580 0.439200 0.546760 -0.232652
O1    O     O_R   0.977910 0.338110 0.524620 -0.557025
O2    O     O_R   0.022090 0.661890 0.475380 -0.583992
O3    O     O_R   0.839850 0.379180 0.493080 -0.545960
O4    O     O_R   0.160150 0.620820 0.506920 -0.548846
O5    O     O_R   0.069040 0.479450 0.615630 -0.566408
O6    O     O_R   0.930960 0.520550 0.384370 -0.579490
O7    O     O_R   0.930990 0.520520 0.584090 -0.545882
O8    O     O_R   0.069010 0.479480 0.415910 -0.596165
C53   C     C_2   0.141311 0.684154 0.694031 0.842549
O9    O     O_2   0.190369 0.675961 0.654954 -0.617054
O10   O     O_R   0.154320 0.781076 0.698228 -0.739856
H15   H     H_    0.206387 0.837759 0.666763 0.338158
C54   C     C_2   0.848564 0.317512 0.312647 0.828212
O11   O     O_2   0.856261 0.236364 0.333801 -0.559651
O12   O     O_R   0.768549 0.327773 0.331230 -0.753975
H16   H     H_    0.766366 0.396118 0.307915 0.292582
C55   C     C_2   0.315164 0.591634 0.472963 0.882367
O13   O     O_2   0.381617 0.649908 0.510085 -0.570823
O14   O     O_R   0.276603 0.630838 0.404230 -0.784101
H17   H     H_    0.231625 0.576518 0.374700 0.297098
C56   C     C_2   0.730833 0.467084 0.571134 0.869521
O15   O     O_2   0.734514 0.511327 0.617173 -0.594483
O16   O     O_R   0.738449 0.373516 0.592069 -0.777752
H18   H     H_    0.743772 0.348892 0.646704 0.313096
C57   C     C_R   0.189062 0.377099 0.678808 0.134673
C58   C     C_R   0.133736 0.288453 0.725988 -0.166010
C59   C     C_R   0.120784 0.293443 0.794273 -0.147532
C60   C     C_R   0.167340 0.386492 0.817455 -0.104370
C61   C     C_R   0.227815 0.474220 0.772702 -0.138742
C62   C     C_R   0.239439 0.469574 0.703965 -0.070887
H19   H     H_    0.104614 0.215405 0.711022 0.156267
H20   H     H_    0.076728 0.224786 0.829892 0.135503
H21   H     H_    0.157958 0.390331 0.870504 0.139100
H22   H     H_    0.265893 0.545820 0.791252 0.130073
H23   H     H_    0.287822 0.537938 0.670292 0.165402
C63   C     C_R   0.858665 0.663750 0.332276 0.170601
C64   C     C_R   0.832139 0.623611 0.268675 -0.159329
C65   C     C_R   0.896336 0.668747 0.214240 -0.126627
C66   C     C_R   0.986541 0.755570 0.221994 -0.118671
C67   C     C_R   0.011317 0.798433 0.283411 -0.172816
C68   C     C_R   0.946283 0.753895 0.337274 -0.124674
H24   H     H_    0.761456 0.557643 0.261248 0.115342
H25   H     H_    0.876188 0.636347 0.166130 0.139395
H26   H     H_    0.036531 0.790243 0.180053 0.128594
H27   H     H_    0.079935 0.867118 0.288718 0.131439
H28   H     H_    0.962675 0.790737 0.381795 0.165085
C69   C     C_R   0.128099 0.681721 0.843690 0.160026
C70   C     C_R   0.080368 0.735777 0.858512 -0.080108
C71   C     C_R   0.138254 0.822648 0.888948 -0.130742
C72   C     C_R   0.243895 0.855935 0.904780 -0.110473
C73   C     C_R   0.291828 0.802373 0.890224 -0.115580
C74   C     C_R   0.234234 0.715436 0.859802 -0.093707
H29   H     H_    0.998564 0.710661 0.846348 0.117020
H30   H     H_    0.101231 0.864176 0.900244 0.123997
H31   H     H_    0.288604 0.923200 0.928348 0.122695
H32   H     H_    0.373613 0.828176 0.902582 0.125144
H33   H     H_    0.272083 0.674365 0.849009 0.103135
C75   C     C_R   0.855245 0.299789 0.167922 0.131669
C76   C     C_R   0.749725 0.271883 0.154550 -0.095528
C77   C     C_R   0.684561 0.181368 0.130089 -0.109150
C78   C     C_R   0.724277 0.118322 0.118903 -0.099388
C79   C     C_R   0.829247 0.145684 0.132157 -0.122690
C80   C     C_R   0.894677 0.236123 0.156613 -0.108399
H34   H     H_    0.718221 0.320226 0.163043 0.120148
H35   H     H_    0.603272 0.160060 0.119846 0.127143
H36   H     H_    0.673715 0.048246 0.100017 0.122914
H37   H     H_    0.859893 0.096729 0.123600 0.126698
H38   H     H_    0.975852 0.256411 0.167042 0.123431
C81   C     C_2   0.638717 0.840647 0.460227 0.865024
O17   O     O_2   0.585743 0.749013 0.471512 -0.565404
O18   O     O_R   0.734422 0.877683 0.437604 -0.752563
H39   H     H_    0.750571 0.821132 0.432206 0.331549
C82   C     C_2   0.353645 0.198397 0.376161 0.877168
O19   O     O_2   0.382129 0.271465 0.404860 -0.566233
O20   O     O_R   0.296687 0.198434 0.307419 -0.738077
H40   H     H_    0.280800 0.136262 0.287461 0.281696
C83   C     C_2   0.056924 0.847024 0.503850 0.819551
O21   O     O_2   0.037671 0.783022 0.559766 -0.583187
O22   O     O_R   0.988723 0.891230 0.469746 -0.783651
H41   H     H_    0.923122 0.856874 0.492379 0.339037
C84   C     C_2   0.913777 0.131062 0.607388 0.810915
O23   O     O_2   0.001041 0.164733 0.593928 -0.629462
O24   O     O_R   0.890995 0.094501 0.679073 -0.769461
H42   H     H_    0.950984 0.091354 0.715721 0.316425
C85   C     C_R   0.775783 0.929678 0.585042 0.117596
C86   C     C_R   0.867406 0.920364 0.589855 -0.111290
C87   C     C_R   0.883785 0.838320 0.637231 -0.138595
C88   C     C_R   0.808407 0.763899 0.679271 -0.070726
C89   C     C_R   0.717000 0.772181 0.674871 -0.097768
C90   C     C_R   0.701010 0.855057 0.628606 -0.113216
H43   H     H_    0.926361 0.977056 0.557261 0.178854
H44   H     H_    0.955113 0.832598 0.641597 0.200196
H45   H     H_    0.821128 0.700201 0.715591 0.152741
H46   H     H_    0.658841 0.714851 0.707829 0.138631
H47   H     H_    0.630493 0.861308 0.626942 0.137815
C91   C     C_R   0.168051 0.054809 0.431963 0.125810
C92   C     C_R   0.103354 0.067478 0.367657 -0.038028
C93   C     C_R   0.058253 0.135284 0.357108 -0.056412
C94   C     C_R   0.076405 0.189785 0.410940 -0.065050
C95   C     C_R   0.139206 0.176168 0.475383 -0.092847
C96   C     C_R   0.185074 0.108955 0.486169 -0.110343
H48   H     H_    0.087988 0.024764 0.325947 0.106398
H49   H     H_    0.008925 0.145226 0.307398 0.140608
H50   H     H_    0.041558 0.242254 0.402990 0.170710
H51   H     H_    0.151631 0.217385 0.517045 0.184004
H52   H     H_    0.233257 0.098755 0.536532 0.128627

loop_
_geom_bond_atom_site_label_1
_geom_bond_atom_site_label_2
_ccdc_geom_bond_type
C93   H49   S    
C15   C18   A    
C54   O11   D    
C42   C44   A    
O14   H17   S    
C27   C29   A    
C1    O3    A    
C27   C56   S    
C56   O15   D    
C4    C8    A    
C28   N6    A    
C67   C68   A    
C78   C79   A    
C39   C41   A    
Cu1   Cu2   S    
C21   C31   A    
C58   H19   S    
O24   H42   S    
C73   C74   A    
C22   C32   A    
C46   H8    S    
C53   O9    D    
C3    C9    A    
C94   H50   S    
C40   C54   S    
C82   O20   S    
C88   C89   A    
C3    C7    A    
C47   H9    S    
C62   H23   S    
C43   C52   S    
C23   C49   S    
C55   O14   S    
C91   C92   A    
C18   H14   S    
C81   O17   D    
C29   C33   A    
C33   C36   A    
Cu1   O5    S    
C18   C20   A    
C35   H5    S    
C34   C35   A    
C41   C69   S    
C70   H29   S    
N1    N3    A    
C24   O8    A    
C95   C96   A    
C52   N1    A    
C82   O19   D    
C17   C19   A    
C63   C64   A    
C11   C15   A    
C73   H32   S    
C24   O6    A    
C12   C16   A    
C16   C17   A    
C5    C85   S    
C83   O21   D    
C64   H24   S    
C51   N2    A    
C32   C38   A    
C5    C13   A    
C67   H27   S    
C53   O10   S    
C26   C57   S    
Cu2   O3    S    
C40   C42   A    
C57   C62   A    
C76   H34   S    
O22   H41   S    
C41   C43   A    
C90   H47   S    
Cu1   O1    S    
C51   N3    A    
C65   C66   A    
C44   C46   A    
O16   H18   S    
C84   O23   D    
Cu2   O6    S    
C91   C96   A    
C45   C47   A    
C24   C50   S    
C78   H36   S    
C46   C48   A    
C17   H13   S    
C80   H38   S    
C30   C34   A    
C1    O1    A    
C59   C60   A    
C14   C20   A    
C71   C72   A    
C8    C83   S    
C47   C49   A    
C55   O13   D    
C5    C7    A    
C13   C19   A    
C75   C76   A    
C6    C8    A    
C75   C80   A    
C94   C95   A    
C66   H26   S    
Cu1   O8    S    
C1    C3    S    
C2    C4    S    
C21   H3    S    
C79   H37   S    
C52   N4    A    
C6    C14   A    
Cu2   N5    S    
C43   C45   A    
C85   C86   A    
C33   C34   A    
C20   C82   S    
C7    C84   S    
C60   H21   S    
C86   H43   S    
C48   C50   A    
C9    C11   A    
C92   C93   A    
C69   C70   A    
C77   C78   A    
C10   C12   A    
C25   C63   S    
Cu2   O2    S    
C44   C51   S    
C39   C49   A    
C12   C14   A    
C54   O12   S    
C76   C77   A    
C2    O4    A    
C4    C10   A    
C36   C38   A    
O18   H39   S    
C77   H35   S    
C2    O2    A    
C93   C94   A    
C66   C67   A    
C6    C91   S    
C10   H11   S    
C59   H20   S    
C81   O18   S    
C21   C25   A    
C19   C81   S    
C23   O7    A    
C64   C65   A    
C35   C37   A    
C87   H44   S    
C84   O24   S    
C79   C80   A    
C36   H6    S    
O10   H15   S    
C22   H4    S    
C42   C75   S    
C56   O16   S    
C96   H52   S    
C92   H48   S    
C57   C58   A    
C86   C87   A    
C28   C30   A    
C89   H46   S    
C70   C71   A    
C39   C53   S    
C69   C74   A    
C29   C31   A    
C87   C88   A    
O20   H40   S    
C9    H12   S    
C30   C32   A    
C11   C13   A    
C71   H30   S    
C65   H25   S    
C74   H33   S    
C40   C50   A    
C95   H51   S    
C45   H7    S    
C58   C59   A    
C26   N6    A    
C72   H31   S    
Cu1   O4    S    
C28   C55   S    
C25   N5    A    
C83   O22   S    
C60   C61   A    
C89   C90   A    
C48   H10   S    
C88   H45   S    
C37   H1    S    
C31   C37   A    
C38   H2    S    
C68   H28   S    
C22   C26   A    
C61   C62   A    
C85   C90   A    
C61   H22   S    
N2    N4    A    
C23   O5    A    
O12   H16   S    
C27   N5    A    
C63   C68   A    
Cu2   O7    S    
C15   C16   A    
C72   C73   A    
Cu1   N6    S    
