data_mof_unit_15202.cif
_audit_creation_date              2012-10-26T18:59:58-0400
_audit_creation_method            fapswitch 2.2
_symmetry_space_group_name_H-M    P1
_symmetry_Int_Tables_number       1
_space_group_crystal_system       triclinic
_cell_length_a                    9.538898
_cell_length_b                    10.840089
_cell_length_c                    17.126375
_cell_angle_alpha                 89.110206
_cell_angle_beta                  93.933249
_cell_angle_gamma                 90.513575
_cell_volume                      1766.47050109

loop_
_atom_site_label
_atom_site_type_symbol
_atom_type_description
_atom_site_fract_x
_atom_site_fract_y
_atom_site_fract_z
_atom_type_partial_charge
C1    C     C_R   0.499556 0.262373 0.501703 0.541309
C2    C     C_R   0.498958 0.129365 0.509912 0.005643
C3    C     C_R   0.372234 0.063083 0.513588 -0.166504
C4    C     C_R   0.517494 0.498354 0.650860 0.553687
C5    C     C_R   0.373004 0.934425 0.513127 -0.161631
C6    C     C_R   0.500459 0.871029 0.508851 0.007976
C7    C     C_R   0.626188 0.938118 0.516527 0.026290
C8    C     C_3   0.751510 0.936642 0.468845 -0.279468
C9    C     C_3   0.750544 0.076393 0.469945 -0.264737
C10   C     C_R   0.066154 0.531515 0.433851 0.177617
C11   C     C_R   0.081549 0.455850 0.562523 -0.021098
C12   C     C_R   0.658610 0.502312 0.778911 -0.153065
C13   C     C_R   0.932783 0.456039 0.562582 -0.018617
C14   C     C_R   0.918671 0.530808 0.433617 0.157190
C15   C     C_3   0.909790 0.650883 0.390120 -0.286027
C16   C     C_R   0.500438 0.737847 0.501215 0.549323
C17   C     C_3   0.068790 0.651579 0.390659 -0.271149
C18   C     C_R   0.482129 0.498003 0.349060 0.556736
C19   C     C_R   0.527251 0.497457 0.736680 0.009393
C20   C     C_R   0.404341 0.492091 0.777125 -0.158706
C21   C     C_R   0.412340 0.491563 0.858398 -0.089303
C22   C     C_R   0.544299 0.496411 0.900927 0.227154
C23   C     C_R   0.586492 0.510877 0.141387 -0.105147
C24   C     C_R   0.666622 0.502046 0.860460 -0.111609
C25   C     C_3   0.210054 0.304510 0.283712 -0.279161
C26   C     C_R   0.592225 0.513218 0.222533 -0.197026
C27   C     C_R   0.458554 0.485726 0.098474 0.200853
C28   C     C_R   0.471241 0.490911 0.262964 0.027261
C29   C     C_R   0.342885 0.462220 0.220056 0.109108
C30   C     C_R   0.338063 0.462069 0.138199 -0.101271
C31   C     C_R   0.625208 0.065135 0.517081 0.025506
Cu1   Cu    Cu3+1 0.640670 0.499980 0.500000 0.932550
Cu2   Cu    Cu3+1 0.359330 0.500020 0.500000 0.939596
H1    H     H_    0.692061 0.533318 0.253555 0.124259
H2    H     H_    0.868608 0.724465 0.425733 0.144745
H3    H     H_    0.107918 0.642303 0.331431 0.145415
H4    H     H_    0.682172 0.529575 0.112615 0.139100
H5    H     H_    0.119093 0.726740 0.426330 0.140594
H6    H     H_    0.768562 0.506164 0.892368 0.113602
H7    H     H_    0.755071 0.506695 0.749075 0.122731
H8    H     H_    0.315146 0.487843 0.887519 0.132582
H9    H     H_    0.239997 0.441222 0.105108 0.109993
H10   H     H_    0.301609 0.488359 0.746082 0.120689
H11   H     H_    0.272327 0.109974 0.512687 0.132915
H12   H     H_    0.273425 0.885519 0.512189 0.130703
H13   H     H_    0.127437 0.460571 0.227682 0.232499
H14   H     H_    0.115686 0.291129 0.317526 0.136820
H15   H     H_    0.304121 0.278749 0.322164 0.167108
H16   H     H_    0.201327 0.242950 0.232277 0.126535
H17   H     H_    0.845030 0.897118 0.502224 0.133695
H18   H     H_    0.726810 0.899097 0.409373 0.130607
H19   H     H_    0.842751 0.116682 0.504055 0.138907
H20   H     H_    0.725863 0.119408 0.411278 0.139946
H21   H     H_    0.142658 0.421409 0.613575 0.114504
H22   H     H_    0.883442 0.421903 0.613689 0.115939
H23   H     H_    0.857785 0.642466 0.330507 0.115105
N1    N     N_2   0.558647 0.497223 0.983879 -0.250802
N2    N     N_2   0.445620 0.483615 0.015580 -0.253129
N3    N     N_R   0.147870 0.500930 0.499500 -0.232777
N4    N     N_R   0.851960 0.500890 0.499500 -0.231773
N5    N     N_2   0.218783 0.432059 0.258174 -0.503414
O1    O     O_R   0.618810 0.319640 0.500000 -0.499302
O2    O     O_R   0.381230 0.319680 0.499990 -0.512648
O3    O     O_R   0.631790 0.498830 0.613930 -0.511481
O4    O     O_R   0.394210 0.498870 0.613920 -0.512229
O5    O     O_R   0.618770 0.680320 0.500010 -0.496794
O6    O     O_R   0.381190 0.680360 0.500000 -0.509255
O7    O     O_R   0.605790 0.501130 0.386080 -0.514015
O8    O     O_R   0.368210 0.501170 0.386070 -0.464046

loop_
_geom_bond_atom_site_label_1
_geom_bond_atom_site_label_2
_ccdc_geom_bond_type
C12   H7    S    
C18   C28   S    
C25   H14   S    
C6    C7    A    
C17   H3    S    
C23   C27   A    
C14   N4    A    
C4    O3    A    
C26   C28   A    
C19   C20   A    
C8    H18   S    
Cu2   O8    S    
Cu2   O2    S    
Cu1   Cu2   S    
C20   H10   S    
C22   N1    S    
C2    C3    A    
C8    C9    S    
Cu1   O1    S    
C7    C8    S    
Cu2   N3    S    
C16   O6    A    
C25   N5    S    
C21   C22   A    
C1    O1    A    
C27   C30   A    
C11   C13   A    
C25   H15   S    
Cu2   O6    S    
N1    N2    D    
C29   C30   A    
C9    H19   S    
C5    H12   S    
C18   O8    A    
C11   N3    A    
C1    O2    A    
C12   C19   A    
C15   H2    S    
C28   C29   A    
C23   H4    S    
C10   N3    A    
C25   H16   S    
C17   H5    S    
C5    C6    A    
C15   H23   S    
C29   N5    S    
C3    H11   S    
C23   C26   A    
C9    H20   S    
C9    C31   S    
C10   C17   S    
C6    C16   S    
C8    H17   S    
C11   H21   S    
C21   H8    S    
C24   H6    S    
C7    C31   A    
C20   C21   A    
Cu1   O3    S    
Cu1   O7    S    
Cu1   O5    S    
C1    C2    S    
C10   C14   A    
C22   C24   A    
C15   C17   S    
Cu1   N4    S    
C4    O4    A    
C30   H9    S    
C16   O5    A    
C12   C24   A    
H13   N5    S    
C13   H22   S    
C14   C15   S    
C4    C19   S    
C18   O7    A    
C26   H1    S    
Cu2   O4    S    
C13   N4    A    
C2    C31   A    
C3    C5    A    
C27   N2    S    
