data_mof_unit_11480.cif
_audit_creation_date              2012-12-10T19:16:20-0500
_audit_creation_method            fapswitch 2.2
_symmetry_space_group_name_H-M    P1
_symmetry_Int_Tables_number       1
_space_group_crystal_system       triclinic
_cell_length_a                    10.632535
_cell_length_b                    9.67827
_cell_length_c                    27.38364
_cell_angle_alpha                 89.802328
_cell_angle_beta                  90.216868
_cell_angle_gamma                 89.968368
_cell_volume                      2817.86359562

loop_
_atom_site_label
_atom_site_type_symbol
_atom_type_description
_atom_site_fract_x
_atom_site_fract_y
_atom_site_fract_z
_atom_type_partial_charge
C1    C     C_R   0.257501 0.499724 0.500108 0.870491
C2    C     C_R   0.520508 0.583662 0.270565 -0.163804
C3    C     C_R   0.608759 0.484525 0.256144 0.220357
C4    C     C_R   0.661484 0.452030 0.104861 -0.051119
C5    C     C_R   0.609759 0.341111 0.131407 -0.029167
C6    C     C_R   0.567246 0.223954 0.106796 -0.125551
C7    C     C_R   0.708148 0.567803 0.130067 -0.027720
C8    C     C_R   0.532658 0.497786 0.353619 -0.199544
C9    C     C_R   0.519039 0.496781 0.647179 -0.041890
C10   C     C_R   0.588453 0.343557 0.977284 0.044528
C11   C     C_R   0.711555 0.559858 0.974919 0.043818
C12   C     C_R   0.502499 0.500094 0.405649 0.970878
C13   C     C_R   0.641966 0.455057 0.950726 0.071857
C14   C     C_R   0.513469 0.246541 0.951945 -0.215136
C15   C     C_R   0.492766 0.258205 0.902113 -0.135306
C16   C     C_R   0.546955 0.366001 0.875582 -0.019518
C17   C     C_R   0.623376 0.463414 0.899529 -0.052901
C18   C     C_R   0.679444 0.570395 0.872305 -0.019407
C19   C     C_R   0.658375 0.577566 0.821790 0.504566
C20   C     C_R   0.525016 0.379588 0.825425 0.503945
C21   C     C_R   0.506826 0.606988 0.726201 -0.091349
C22   C     C_R   0.486362 0.610914 0.675893 -0.235734
C23   C     C_R   0.742652 0.499671 0.500193 0.833509
C24   C     C_R   0.574188 0.380107 0.669011 -0.229698
C25   C     C_R   0.596877 0.377555 0.718882 -0.098857
C26   C     C_R   0.562296 0.490159 0.747797 0.304228
C27   C     C_R   0.606198 0.336106 0.028456 0.044308
C28   C     C_R   0.662477 0.449081 0.053145 0.074961
C29   C     C_R   0.715653 0.561093 0.026719 0.043874
C30   C     C_R   0.566143 0.220903 0.056197 -0.217855
C31   C     C_R   0.762193 0.676598 0.103943 -0.129347
C32   C     C_R   0.771557 0.662115 0.946261 -0.215676
C33   C     C_R   0.755719 0.666976 0.895913 -0.136066
C34   C     C_R   0.502247 0.499563 0.594289 0.869601
C35   C     C_R   0.766347 0.673413 0.053264 -0.214238
C36   C     C_3   0.072635 0.575957 0.545915 -0.408443
C37   C     C_3   0.071529 0.347604 0.501489 -0.400556
C38   C     C_3   0.928249 0.575100 0.546125 -0.392736
C39   C     C_3   0.928696 0.347568 0.501132 -0.394307
C40   C     C_3   0.071432 0.570824 0.453450 -0.343023
C41   C     C_3   0.121165 0.498626 0.500253 0.146893
C42   C     C_3   0.878834 0.498594 0.500298 0.179304
C43   C     C_3   0.927159 0.571974 0.453672 -0.417765
C44   C     C_3   0.377210 0.081576 0.482160 -0.235123
C45   C     C_3   0.377220 0.918905 0.482167 -0.217623
C46   C     C_3   0.597939 0.081659 0.466089 -0.231026
C47   C     C_3   0.598441 0.918870 0.466331 -0.224464
C48   C     C_3   0.524244 0.080787 0.548430 -0.233028
C49   C     C_3   0.523871 0.918240 0.548463 -0.234781
C50   C     C_R   0.598095 0.351811 0.182080 0.525682
C51   C     C_R   0.695073 0.574103 0.180924 0.523105
C52   C     C_R   0.660465 0.393855 0.290404 -0.066149
C53   C     C_R   0.622404 0.400077 0.338668 -0.283019
C54   C     C_R   0.481344 0.591651 0.319167 0.439771
H1    H     H_    0.728710 0.317036 0.279385 0.164221
H2    H     H_    0.799013 0.766666 0.122527 0.193152
H3    H     H_    0.832686 0.739515 0.961570 0.145043
H4    H     H_    0.602141 0.291759 0.647410 0.148680
H5    H     H_    0.802387 0.748303 0.875625 0.190204
H6    H     H_    0.640900 0.287573 0.735225 0.150271
H7    H     H_    0.805102 0.763876 0.035979 0.144265
H8    H     H_    0.106631 0.684757 0.545873 0.171001
H9    H     H_    0.106035 0.289117 0.469218 0.176392
H10   H     H_    0.108825 0.525479 0.579761 0.163827
H11   H     H_    0.105851 0.293360 0.534930 0.172078
H12   H     H_    0.893877 0.523059 0.579854 0.163224
H13   H     H_    0.894079 0.291998 0.534148 0.170889
H14   H     H_    0.480503 0.652355 0.243340 0.200757
H15   H     H_    0.893114 0.683487 0.546656 0.172779
H16   H     H_    0.894637 0.290380 0.468411 0.170342
H17   H     H_    0.106677 0.678984 0.451314 0.198099
H18   H     H_    0.105184 0.514969 0.420543 0.202607
H19   H     H_    0.893166 0.680773 0.452317 0.178410
H20   H     H_    0.890850 0.518771 0.420495 0.168864
H21   H     H_    0.355251 0.120890 0.444863 0.171303
H22   H     H_    0.355077 0.880228 0.444969 0.218762
H23   H     H_    0.300569 0.118842 0.506295 0.143051
H24   H     H_    0.300543 0.881209 0.506290 0.136617
H25   H     H_    0.582386 0.119930 0.428204 0.169855
H26   H     H_    0.584480 0.880117 0.428576 0.201512
H27   H     H_    0.616286 0.119138 0.562292 0.141643
H28   H     H_    0.615531 0.879043 0.562544 0.149777
H29   H     H_    0.451647 0.118672 0.574290 0.154391
H30   H     H_    0.450752 0.880484 0.574204 0.148683
H31   H     H_    0.692103 0.120008 0.477464 0.140782
H32   H     H_    0.692564 0.881203 0.478222 0.138214
H33   H     H_    0.531634 0.135056 0.126523 0.196581
H34   H     H_    0.444226 0.701990 0.659545 0.147949
H35   H     H_    0.479227 0.694167 0.748410 0.152848
H36   H     H_    0.433096 0.182377 0.884508 0.190736
H37   H     H_    0.464720 0.163189 0.969877 0.146039
H38   H     H_    0.533238 0.126424 0.039836 0.145243
H39   H     H_    0.664605 0.328927 0.364639 0.167613
N1    N     N_R   0.637493 0.468670 0.205521 -0.345429
N2    N     N_R   0.581389 0.483468 0.799529 -0.353968
N3    N     N_3   0.499750 0.138610 0.498940 -0.038207
N4    N     N_3   0.499750 0.861390 0.498940 -0.045234
O1    O     O_R   0.314910 0.616040 0.499990 -0.624139
O2    O     O_R   0.314910 0.383960 0.499990 -0.636857
O3    O     O_R   0.500140 0.616020 0.428740 -0.568063
O4    O     O_R   0.500140 0.383980 0.428740 -0.630728
O5    O     O_R   0.685320 0.616040 0.499970 -0.639067
O6    O     O_R   0.685320 0.383960 0.499970 -0.641466
O7    O     O_R   0.500090 0.616050 0.571230 -0.629777
O8    O     O_R   0.500090 0.383950 0.571230 -0.628553
O9    O     O_2   0.543758 0.248324 0.207577 -0.536080
O10   O     O_2   0.447065 0.290238 0.802672 -0.565574
O11   O     O_2   0.737624 0.685310 0.205565 -0.541752
O12   O     O_2   0.715054 0.676911 0.795081 -0.567929
Zn1   Zn    Zn3+2 0.500150 0.654960 0.499980 0.937706
Zn2   Zn    Zn3+2 0.500150 0.345040 0.499980 0.907478
S1    S     S_3+6 0.366237 0.716390 0.334157 0.002980
O13   O     O_2   0.279162 0.661497 0.372663 -0.363579
O14   O     O_2   0.431159 0.843667 0.352764 -0.333546
O15   O     O_3   0.281881 0.758041 0.284141 -0.540201
H40   H     H_    0.222747 0.830618 0.295106 0.391532

loop_
_geom_bond_atom_site_label_1
_geom_bond_atom_site_label_2
_ccdc_geom_bond_type
C10   C27   A    
C43   H19   S    
C21   C26   A    
O3    Zn1   S    
O1    Zn1   S    
C40   H17   S    
C1    O2    A    
S1    O14   D    
C21   H35   S    
C52   C53   A    
C23   C42   S    
C45   H22   S    
C32   H3    S    
C49   H30   S    
C28   C29   A    
C38   C42   S    
C2    H14   S    
C46   H25   S    
C9    C22   A    
C23   O5    A    
C15   C16   A    
C48   H27   S    
O6    Zn2   S    
C18   C19   A    
C4    C28   A    
C40   C43   S    
C23   O6    A    
C38   H12   S    
C16   C17   A    
C37   H11   S    
C45   H24   S    
C25   H6    S    
C22   H34   S    
C31   H2    S    
C48   N3    S    
C52   H1    S    
C8    C12   S    
C20   O10   S    
C43   H20   S    
O8    Zn2   S    
C38   H15   S    
C33   H5    S    
C21   C22   A    
C27   C30   A    
C36   C41   S    
C47   H26   S    
C4    C7    A    
C36   H8    S    
S1    O13   D    
C37   H9    S    
C39   C42   S    
C19   O12   S    
N3    Zn2   S    
C7    C31   A    
C53   H39   S    
C47   H32   S    
C24   C25   A    
C30   H38   S    
C10   C14   A    
C8    C54   A    
C51   O11   S    
C25   C26   A    
C34   O7    A    
C6    H33   S    
C49   H28   S    
C8    C53   A    
C44   H21   S    
C44   N3    S    
C16   C20   A    
O2    Zn2   S    
C17   C18   A    
C54   S1    S    
C35   H7    S    
C1    C41   S    
C48   C49   S    
C6    C30   A    
C20   N2    A    
C11   C32   A    
C2    C54   A    
C9    C34   S    
C31   C35   A    
C5    C50   A    
O5    Zn1   S    
C42   C43   S    
C19   N2    A    
C44   C45   S    
C26   N2    S    
C46   C47   S    
C44   H23   S    
C40   H18   S    
C34   O8    A    
C39   H13   S    
C50   N1    A    
C4    C5    A    
C10   C13   A    
C1    O1    A    
C3    C52   A    
C9    C24   A    
O4    Zn2   S    
C29   C35   A    
C47   N4    S    
C48   H29   S    
C13   C17   A    
C32   C33   A    
C46   H31   S    
C36   C38   S    
C2    C3    A    
C7    C51   A    
C12   O4    A    
C37   C39   S    
C45   N4    S    
C15   H36   S    
O7    Zn1   S    
N4    Zn1   S    
C11   C13   A    
C5    C6    A    
C39   H16   S    
C3    N1    S    
C37   C41   S    
C18   C33   A    
C14   H37   S    
C12   O3    A    
C51   N1    A    
C49   N4    S    
C46   N3    S    
C11   C29   A    
C24   H4    S    
C27   C28   A    
C50   O9    S    
C14   C15   A    
C40   C41   S    
C36   H10   S    
S1    O15   S    
O15   H40   S    
