data_mof_unit_60625.cif
_audit_creation_date              2012-12-10T17:14:27-0500
_audit_creation_method            fapswitch 2.2
_symmetry_space_group_name_H-M    P1
_symmetry_Int_Tables_number       1
_space_group_crystal_system       triclinic
_cell_length_a                    25.866922
_cell_length_b                    25.946866
_cell_length_c                    22.132615
_cell_angle_alpha                 90.003118
_cell_angle_beta                  125.559344
_cell_angle_gamma                 89.994935
_cell_volume                      12084.4591639

loop_
_atom_site_label
_atom_site_type_symbol
_atom_type_description
_atom_site_fract_x
_atom_site_fract_y
_atom_site_fract_z
_atom_type_partial_charge
C1    C     C_R   0.650369 0.749939 0.300484 0.836995
C2    C     C_R   0.650362 0.250056 0.300482 0.836965
C3    C     C_R   0.150366 0.249942 0.300483 0.837035
C4    C     C_R   0.150362 0.750056 0.300482 0.836857
C5    C     C_R   0.750429 0.553905 0.498559 -0.128042
C6    C     C_R   0.750418 0.446096 0.498550 -0.127894
C7    C     C_R   0.250439 0.053904 0.498565 -0.128341
C8    C     C_R   0.250424 0.946096 0.498553 -0.128232
C9    C     C_R   0.770757 0.526955 0.564141 -0.068029
C10   C     C_R   0.770751 0.473043 0.564139 -0.069246
C11   C     C_R   0.270820 0.026954 0.564164 -0.068049
C12   C     C_R   0.270814 0.973043 0.564160 -0.068142
C13   C     C_3   0.499135 0.202563 0.024978 -0.179269
C14   C     C_3   0.501201 0.797965 0.024964 -0.179541
C15   C     C_3   0.997409 0.703083 0.024993 -0.178776
C16   C     C_3   0.017039 0.299013 0.024837 -0.178897
C17   C     C_3   0.940076 0.739303 0.975913 0.207703
C18   C     C_3   0.948063 0.278635 0.975810 0.205836
C19   C     C_3   0.440485 0.237550 0.975905 0.207639
C20   C     C_3   0.441064 0.764491 0.975901 0.207359
C21   C     C_1   0.889280 0.749978 0.778998 -0.112883
C22   C     C_1   0.889290 0.250011 0.778995 -0.113648
C23   C     C_1   0.389278 0.249978 0.778997 -0.113503
C24   C     C_1   0.389279 0.750020 0.778997 -0.112983
C25   C     C_1   0.610578 0.249838 0.221042 -0.132330
C26   C     C_1   0.610584 0.750158 0.221044 -0.131714
C27   C     C_1   0.110582 0.749841 0.221043 -0.132042
C28   C     C_1   0.110578 0.250171 0.221043 -0.131949
C29   C     C_3   0.020208 0.713658 0.975029 -0.182889
C30   C     C_3   0.031824 0.270442 0.974974 -0.183956
C31   C     C_3   0.521515 0.214896 0.975021 -0.184686
C32   C     C_3   0.523000 0.783582 0.975012 -0.183348
C33   C     C_3   0.963103 0.749769 0.927006 0.143749
C34   C     C_3   0.963143 0.250281 0.927004 0.143500
C35   C     C_3   0.463098 0.249764 0.927006 0.144495
C36   C     C_3   0.463101 0.750239 0.927007 0.143861
C37   C     C_3   0.559384 0.261959 0.024493 -0.153036
C38   C     C_3   0.558814 0.735994 0.024497 -0.151918
C39   C     C_3   0.059811 0.760207 0.024485 -0.151719
C40   C     C_3   0.051824 0.221850 0.024581 -0.153891
C41   C     C_3   0.536313 0.249669 0.073092 0.155371
C42   C     C_3   0.536322 0.750335 0.073092 0.154663
C43   C     C_3   0.036322 0.749676 0.073092 0.154451
C44   C     C_3   0.036336 0.250385 0.073091 0.155521
C45   C     C_R   0.849681 0.749995 0.699529 0.822063
C46   C     C_R   0.849683 0.250002 0.699527 0.822642
C47   C     C_R   0.349681 0.249995 0.699529 0.822130
C48   C     C_R   0.349681 0.750004 0.699527 0.822227
C49   C     C_3   0.002077 0.796308 0.975275 -0.196677
C50   C     C_3   0.982521 0.201711 0.975425 -0.194528
C51   C     C_3   0.500338 0.296816 0.975291 -0.196193
C52   C     C_3   0.498288 0.702665 0.975305 -0.196036
C53   C     C_3   0.477932 0.284566 0.025236 -0.180255
C54   C     C_3   0.476458 0.716966 0.025247 -0.180314
C55   C     C_3   0.979254 0.785818 0.025228 -0.181321
C56   C     C_3   0.967681 0.230214 0.025281 -0.179569
C57   C     C_1   0.922610 0.749898 0.845811 -0.027158
C58   C     C_1   0.922631 0.250101 0.845809 -0.028041
C59   C     C_1   0.422606 0.249898 0.845811 -0.028067
C60   C     C_1   0.422609 0.750101 0.845810 -0.027278
C61   C     C_1   0.577061 0.249716 0.154242 -0.053031
C62   C     C_1   0.577067 0.750283 0.154243 -0.052414
C63   C     C_1   0.077068 0.749722 0.154242 -0.052385
C64   C     C_1   0.077066 0.250311 0.154241 -0.052642
C65   C     C_R   0.484636 0.790743 0.364032 0.122315
C66   C     C_R   0.485217 0.207263 0.365339 0.120916
C67   C     C_R   0.984712 0.290915 0.364175 0.122565
C68   C     C_R   0.985220 0.707248 0.365348 0.121040
C69   C     C_R   0.423816 0.799419 0.299412 -0.126040
C70   C     C_R   0.424524 0.197147 0.301285 -0.125388
C71   C     C_R   0.923902 0.299712 0.299591 -0.127891
C72   C     C_R   0.924527 0.697120 0.301299 -0.125130
C73   C     C_R   0.370219 0.791505 0.298213 -0.175382
C74   C     C_R   0.370870 0.204738 0.300075 -0.174392
C75   C     C_R   0.870293 0.291830 0.298386 -0.176491
C76   C     C_R   0.870874 0.704707 0.300092 -0.174606
C77   C     C_R   0.376465 0.776299 0.362294 -0.179029
C78   C     C_R   0.376955 0.221155 0.363618 -0.178574
C79   C     C_R   0.876530 0.276520 0.362429 -0.178535
C80   C     C_R   0.876959 0.721133 0.363631 -0.178535
C81   C     C_R   0.436859 0.765702 0.428305 0.079155
C82   C     C_R   0.437165 0.233103 0.429028 0.079220
C83   C     C_R   0.936904 0.265799 0.428389 0.079156
C84   C     C_R   0.937167 0.733093 0.429034 0.079299
C85   C     C_R   0.491980 0.770218 0.428675 0.053451
C86   C     C_R   0.492304 0.228751 0.429393 0.053067
C87   C     C_R   0.992031 0.270300 0.428767 0.053322
C88   C     C_R   0.992306 0.728743 0.429399 0.053103
C89   C     C_R   0.889740 0.749611 0.499182 0.777019
C90   C     C_R   0.889690 0.250447 0.499078 0.777236
C91   C     C_R   0.389739 0.249609 0.499181 0.776878
C92   C     C_R   0.389682 0.750460 0.499062 0.777406
C93   C     C_R   0.551446 0.755674 0.494593 -0.063429
C94   C     C_R   0.551516 0.244497 0.494741 -0.062036
C95   C     C_R   0.051471 0.255642 0.494643 -0.063433
C96   C     C_R   0.051516 0.744499 0.494742 -0.062596
C97   C     C_R   0.556720 0.743995 0.559590 -0.199971
C98   C     C_R   0.556575 0.257499 0.559247 -0.201290
C99   C     C_R   0.056720 0.243831 0.559590 -0.199969
C100  C     C_R   0.056574 0.757511 0.559244 -0.199891
C101  C     C_R   0.503630 0.743540 0.560116 -0.190542
C102  C     C_R   0.503503 0.257960 0.559821 -0.191563
C103  C     C_R   0.003624 0.243375 0.560109 -0.190510
C104  C     C_R   0.003502 0.757973 0.559819 -0.190643
C105  C     C_R   0.443778 0.752806 0.494946 -0.051589
C106  C     C_R   0.443868 0.247285 0.495136 -0.049717
C107  C     C_R   0.943798 0.252786 0.494977 -0.051521
C108  C     C_R   0.943868 0.747286 0.495139 -0.050287
C109  C     C_R   0.663495 0.946222 0.358696 -0.150127
C110  C     C_R   0.663550 0.053758 0.358670 -0.150231
C111  C     C_R   0.163473 0.446222 0.358709 -0.150450
C112  C     C_R   0.163522 0.553759 0.358686 -0.150415
C113  C     C_R   0.624158 0.973199 0.292388 -0.126473
C114  C     C_R   0.624190 0.026774 0.292373 -0.126842
C115  C     C_R   0.124115 0.473199 0.292405 -0.125133
C116  C     C_R   0.124142 0.526776 0.292393 -0.125973
C117  C     C_R   0.704689 0.027330 0.426603 0.094523
C118  C     C_R   0.704673 0.972658 0.426611 0.094365
C119  C     C_R   0.204679 0.527331 0.426614 0.094574
C120  C     C_R   0.204665 0.472658 0.426621 0.094335
C121  C     C_R   0.744093 0.946126 0.495003 -0.071231
C122  C     C_R   0.744101 0.053866 0.494992 -0.071319
C123  C     C_R   0.244101 0.446127 0.495010 -0.071199
C124  C     C_R   0.244109 0.553868 0.495001 -0.071294
C125  C     C_R   0.779881 0.973337 0.561824 -0.197986
C126  C     C_R   0.779881 0.026659 0.561818 -0.198427
C127  C     C_R   0.279909 0.473337 0.561831 -0.197666
C128  C     C_R   0.279910 0.526661 0.561826 -0.197684
C129  C     C_R   0.609334 0.751034 0.498875 0.839158
C130  C     C_R   0.609355 0.249006 0.498918 0.839291
C131  C     C_R   0.109348 0.251017 0.498903 0.839036
C132  C     C_R   0.109355 0.749006 0.498918 0.839071
C133  C     C_R   0.748559 0.890133 0.498770 0.803669
C134  C     C_R   0.748551 0.109863 0.498758 0.804453
C135  C     C_R   0.248559 0.390134 0.498770 0.803720
C136  C     C_R   0.248554 0.609864 0.498761 0.804256
C137  C     C_R   0.750069 0.610006 0.499612 0.797955
C138  C     C_R   0.750065 0.389995 0.499603 0.797767
C139  C     C_R   0.250070 0.110006 0.499615 0.798337
C140  C     C_R   0.250066 0.889994 0.499604 0.798157
C141  C     C_R   0.713491 0.553706 0.367359 -0.153809
C142  C     C_R   0.713450 0.446296 0.367335 -0.153808
C143  C     C_R   0.213484 0.053708 0.367356 -0.153901
C144  C     C_R   0.213429 0.946301 0.367326 -0.153821
C145  C     C_R   0.695548 0.526778 0.303433 -0.133470
C146  C     C_R   0.695525 0.473227 0.303420 -0.133304
C147  C     C_R   0.195544 0.026782 0.303429 -0.133911
C148  C     C_R   0.195510 0.973231 0.303412 -0.133581
C149  C     C_R   0.731113 0.472754 0.432750 0.084513
C150  C     C_R   0.731125 0.527248 0.432758 0.084465
C151  C     C_R   0.231100 0.972755 0.432746 0.084263
C152  C     C_R   0.231117 0.027248 0.432756 0.084351
H1    H     H_    0.602410 0.734312 0.610249 0.157486
H2    H     H_    0.602073 0.268186 0.609471 0.154890
H3    H     H_    0.102386 0.234037 0.610216 0.157227
H4    H     H_    0.102071 0.768207 0.609464 0.156195
H5    H     H_    0.417943 0.814449 0.250128 0.165603
H6    H     H_    0.418830 0.181341 0.252460 0.165358
H7    H     H_    0.918043 0.314804 0.250340 0.165073
H8    H     H_    0.918834 0.681309 0.252477 0.165448
H9    H     H_    0.823640 0.299759 0.248260 0.148532
H10   H     H_    0.824346 0.695782 0.250396 0.149015
H11   H     H_    0.323556 0.799332 0.248056 0.149252
H12   H     H_    0.324342 0.195822 0.250375 0.149182
H13   H     H_    0.333377 0.773699 0.359388 0.147159
H14   H     H_    0.333929 0.223667 0.360873 0.144922
H15   H     H_    0.833460 0.273929 0.359563 0.146856
H16   H     H_    0.833934 0.723643 0.360888 0.144873
H17   H     H_    0.509010 0.734257 0.611251 0.153324
H18   H     H_    0.508697 0.268266 0.610563 0.151229
H19   H     H_    0.008978 0.233996 0.611204 0.153073
H20   H     H_    0.008695 0.768289 0.610557 0.152043
H21   H     H_    0.809248 0.953116 0.614299 0.155771
H22   H     H_    0.809247 0.046879 0.614290 0.155459
H23   H     H_    0.309291 0.453117 0.614306 0.155897
H24   H     H_    0.309291 0.546882 0.614297 0.155896
H25   H     H_    0.660038 0.904686 0.355991 0.166475
H26   H     H_    0.660152 0.095293 0.355941 0.166749
H27   H     H_    0.160027 0.404685 0.356009 0.166715
H28   H     H_    0.160123 0.595297 0.355964 0.166774
H29   H     H_    0.592859 0.952412 0.240899 0.148219
H30   H     H_    0.592921 0.047561 0.240873 0.148018
H31   H     H_    0.092806 0.452410 0.240918 0.150428
H32   H     H_    0.092859 0.547562 0.240897 0.148914
H33   H     H_    0.714120 0.595303 0.364993 0.129982
H34   H     H_    0.714038 0.404700 0.364945 0.130085
H35   H     H_    0.214125 0.095303 0.364993 0.129896
H36   H     H_    0.214012 0.904704 0.364933 0.130099
H37   H     H_    0.682175 0.547579 0.253898 0.135508
H38   H     H_    0.682130 0.452429 0.253866 0.135559
H39   H     H_    0.182182 0.047582 0.253894 0.134948
H40   H     H_    0.182115 0.952435 0.253859 0.135415
H41   H     H_    0.498909 0.163878 0.046247 0.157048
H42   H     H_    0.502662 0.837086 0.046224 0.157170
H43   H     H_    0.995762 0.664828 0.046278 0.158162
H44   H     H_    0.031475 0.339011 0.045992 0.157423
H45   H     H_    0.460327 0.313080 0.046711 0.158970
H46   H     H_    0.457643 0.689713 0.046736 0.159093
H47   H     H_    0.962725 0.815361 0.046696 0.158621
H48   H     H_    0.941682 0.213837 0.046799 0.158759
H49   H     H_    0.003593 0.834590 0.953959 0.149815
H50   H     H_    0.967948 0.161737 0.954234 0.150643
H51   H     H_    0.500431 0.335522 0.953990 0.149819
H52   H     H_    0.496692 0.663526 0.954014 0.150166
H53   H     H_    0.608911 0.272017 0.045539 0.142930
H54   H     H_    0.607868 0.724252 0.045542 0.144202
H55   H     H_    0.109683 0.768819 0.045524 0.144432
H56   H     H_    0.095115 0.198445 0.045699 0.141879
H57   H     H_    0.036612 0.684045 0.953507 0.157013
H58   H     H_    0.057737 0.286924 0.953409 0.156508
H59   H     H_    0.538997 0.186308 0.953493 0.155404
H60   H     H_    0.541696 0.810912 0.953470 0.156549
O1    O     O_3   0.749980 0.749980 0.500000 -0.486691
O2    O     O_3   0.749980 0.250020 0.500000 -0.486250
O3    O     O_3   0.249980 0.249980 0.500000 -0.486532
O4    O     O_3   0.249980 0.750020 0.500000 -0.486525
O5    O     O_R   0.887340 0.719630 0.543100 -0.633191
O6    O     O_R   0.887340 0.280370 0.543100 -0.633253
O7    O     O_R   0.387340 0.219630 0.543100 -0.633737
O8    O     O_R   0.387340 0.780370 0.543100 -0.633459
O9    O     O_R   0.612630 0.719610 0.456900 -0.618455
O10   O     O_R   0.612630 0.280390 0.456900 -0.618182
O11   O     O_R   0.112630 0.219610 0.456900 -0.618860
O12   O     O_R   0.112630 0.780390 0.456900 -0.618512
O13   O     O_R   0.698160 0.780350 0.335610 -0.641686
O14   O     O_R   0.698160 0.219650 0.335610 -0.642260
O15   O     O_R   0.198160 0.280350 0.335610 -0.641295
O16   O     O_R   0.198160 0.719650 0.335610 -0.642053
O17   O     O_R   0.801810 0.780340 0.664400 -0.635338
O18   O     O_R   0.801810 0.219660 0.664400 -0.638432
O19   O     O_R   0.301810 0.280340 0.664400 -0.635302
O20   O     O_R   0.301810 0.719660 0.664400 -0.635672
O21   O     O_R   0.637430 0.719620 0.335600 -0.621312
O22   O     O_R   0.637430 0.280380 0.335600 -0.621164
O23   O     O_R   0.137430 0.219620 0.335600 -0.621958
O24   O     O_R   0.137430 0.780380 0.335600 -0.621294
O25   O     O_R   0.862530 0.719620 0.664390 -0.630912
O26   O     O_R   0.862530 0.280380 0.664390 -0.629183
O27   O     O_R   0.362530 0.219620 0.664390 -0.631327
O28   O     O_R   0.362530 0.780380 0.664390 -0.630836
O29   O     O_R   0.844250 0.780360 0.456900 -0.643565
O30   O     O_R   0.844250 0.219640 0.456900 -0.644432
O31   O     O_R   0.344250 0.280360 0.456900 -0.643353
O32   O     O_R   0.344250 0.719640 0.456900 -0.644204
O33   O     O_R   0.655730 0.780340 0.543100 -0.623615
O34   O     O_R   0.655730 0.219660 0.543100 -0.624082
O35   O     O_R   0.155730 0.280340 0.543100 -0.623386
O36   O     O_R   0.155730 0.719660 0.543100 -0.623090
O37   O     O_R   0.758810 0.865800 0.456900 -0.642124
O38   O     O_R   0.758810 0.134200 0.456900 -0.642047
O39   O     O_R   0.258810 0.365800 0.456900 -0.642068
O40   O     O_R   0.258810 0.634200 0.456900 -0.642017
O41   O     O_R   0.698070 0.634180 0.456900 -0.643004
O42   O     O_R   0.698070 0.365820 0.456900 -0.643074
O43   O     O_R   0.198070 0.134180 0.456900 -0.643108
O44   O     O_R   0.198070 0.865820 0.456900 -0.643160
O45   O     O_R   0.741180 0.865790 0.543100 -0.624660
O46   O     O_R   0.741180 0.134210 0.543100 -0.624741
O47   O     O_R   0.241180 0.365790 0.543100 -0.624525
O48   O     O_R   0.241180 0.634210 0.543100 -0.624312
O49   O     O_R   0.801890 0.634180 0.543100 -0.629593
O50   O     O_R   0.801890 0.365820 0.543100 -0.629447
O51   O     O_R   0.301890 0.134180 0.543100 -0.629749
O52   O     O_R   0.301890 0.865820 0.543100 -0.629660
Zn1   Zn    Zn3+2 0.824150 0.706610 0.561580 0.986884
Zn2   Zn    Zn3+2 0.824150 0.293390 0.561580 0.987857
Zn3   Zn    Zn3+2 0.324150 0.206610 0.561580 0.986003
Zn4   Zn    Zn3+2 0.324150 0.793390 0.561580 0.986714
Zn5   Zn    Zn3+2 0.762580 0.793370 0.438420 0.975097
Zn6   Zn    Zn3+2 0.762580 0.206630 0.438420 0.974537
Zn7   Zn    Zn3+2 0.262580 0.293370 0.438420 0.975455
Zn8   Zn    Zn3+2 0.262580 0.706630 0.438420 0.974891
Zn9   Zn    Zn3+2 0.737390 0.793360 0.561580 1.005275
Zn10  Zn    Zn3+2 0.737390 0.206640 0.561580 1.003073
Zn11  Zn    Zn3+2 0.237390 0.293360 0.561580 1.005481
Zn12  Zn    Zn3+2 0.237390 0.706640 0.561580 1.005564
Zn13  Zn    Zn3+2 0.675820 0.706600 0.438420 0.996884
Zn14  Zn    Zn3+2 0.675820 0.293400 0.438420 0.997253
Zn15  Zn    Zn3+2 0.175820 0.206600 0.438420 0.996206
Zn16  Zn    Zn3+2 0.175820 0.793400 0.438420 0.996907
C153  C     C_1   0.790114 0.554766 0.631253 0.203519
N1    N     N_1   0.805524 0.576943 0.684672 -0.184662
C154  C     C_1   0.790108 0.445233 0.631251 0.203389
N2    N     N_1   0.805515 0.423054 0.684667 -0.177292
C155  C     C_1   0.290249 0.054764 0.631304 0.202305
N3    N     N_1   0.305722 0.076943 0.684743 -0.186079
C156  C     C_1   0.290242 0.945232 0.631299 0.202366
N4    N     N_1   0.305712 0.923054 0.684737 -0.185255
I1    I     I_    0.557732 0.821760 0.357510 -0.392883
I2    I     I_    0.558772 0.177318 0.358856 -0.392938
I3    I     I_    0.057835 0.321863 0.357651 -0.391773
I4    I     I_    0.058776 0.677315 0.358861 -0.392377
I5    I     I_    0.844661 0.722613 0.937336 -0.372345
I6    I     I_    0.865390 0.323950 0.937032 -0.369952
I7    I     I_    0.345738 0.218065 0.937312 -0.373958
I8    I     I_    0.347235 0.787235 0.937314 -0.374179

loop_
_geom_bond_atom_site_label_1
_geom_bond_atom_site_label_2
_ccdc_geom_bond_type
C99   C103  A    
C40   H56   S    
C142  C146  A    
C41   C61   S    
C145  C146  A    
C43   C63   S    
C129  O33   A    
C44   C64   S    
O51   Zn3   S    
C3    C28   S    
C90   C107  S    
C144  C151  A    
C12   C156  S    
C95   C99   A    
C110  H26   S    
C65   I1    S    
C29   C33   S    
C100  C104  A    
O25   Zn1   S    
C3    O23   A    
C55   H47   S    
C1    O21   A    
C70   C74   A    
C16   C44   S    
C126  H22   S    
C141  C145  A    
C14   H42   S    
C111  H27   S    
C109  C118  A    
C81   C105  A    
C50   H50   S    
O34   Zn10  S    
C20   C54   S    
O3    Zn3   S    
C124  C136  S    
C98   C102  A    
C31   C37   S    
C78   C82   A    
C68   C72   A    
O4    Zn12  S    
C136  O48   A    
C143  C147  A    
C35   C51   S    
C134  O38   A    
O35   Zn11  S    
C2    O14   A    
O32   Zn8   S    
C84   C88   A    
C22   C58   T    
C5    C137  S    
C8    C140  S    
O23   Zn15  S    
C53   H45   S    
C73   H11   S    
C19   C35   S    
O14   Zn6   S    
C74   H12   S    
C66   C70   A    
O2    Zn10  S    
C89   C108  S    
C37   C51   S    
O6    Zn2   S    
C45   O25   A    
C7    C152  A    
C34   C58   S    
C73   C77   A    
C136  O40   A    
C103  C107  A    
C79   H15   S    
C75   C79   A    
C80   H16   S    
C56   H48   S    
C102  H18   S    
C98   H2    S    
C6    C138  S    
O22   Zn14  S    
C139  O51   A    
O46   Zn10  S    
O28   Zn4   S    
C147  C148  A    
C17   I5    S    
C23   C59   T    
C94   C130  S    
C19   I7    S    
C32   C36   S    
C142  C149  A    
C40   C50   S    
O11   Zn15  S    
C16   C30   S    
C115  C116  A    
O12   Zn16  S    
O1    Zn1   S    
O2    Zn6   S    
C122  C134  S    
C6    C149  A    
C85   C93   A    
C113  H29   S    
C147  H39   S    
C87   C95   A    
C69   H5    S    
C9    C10   A    
C110  C114  A    
C36   C52   S    
C24   C60   T    
C112  H28   S    
C103  H19   S    
C4    O24   A    
C141  C150  A    
C21   C45   S    
C49   H49   S    
C23   C47   S    
C30   C34   S    
C30   C40   S    
C24   C48   S    
O26   Zn2   S    
C11   C155  S    
O16   Zn8   S    
C49   C55   S    
C50   C56   S    
C123  C135  S    
C51   C53   S    
C117  C122  A    
C5    C9    A    
C123  C127  A    
C8    C12   A    
O47   Zn11  S    
C41   C53   S    
O41   Zn13  S    
C47   O27   A    
C43   C55   S    
C39   C49   S    
C90   O30   A    
C1    C26   S    
C93   C97   A    
C112  C116  A    
C4    C27   S    
O24   Zn16  S    
C37   H53   S    
C76   C80   A    
C135  O39   A    
C66   C86   A    
C29   H57   S    
C135  O47   A    
C104  H20   S    
C75   H9    S    
O50   Zn2   S    
C15   C43   S    
C117  C118  A    
C116  H32   S    
O29   Zn5   S    
C82   C106  A    
C37   C41   S    
C90   O6    A    
O48   Zn12  S    
C40   C44   S    
C140  O52   A    
C154  N2    T    
C131  O11   A    
C81   C85   A    
C137  O49   A    
C148  H40   S    
C83   C87   A    
C88   C96   A    
C133  O37   A    
O20   Zn12  S    
C80   C84   A    
C13   C41   S    
O17   Zn9   S    
O3    Zn11  S    
O7    Zn3   S    
C69   C73   A    
C94   C98   A    
C33   C49   S    
C35   C59   S    
C76   H10   S    
C2    O22   A    
C138  O50   A    
C99   H3    S    
C151  C152  A    
C101  H17   S    
C97   H1    S    
C120  C123  A    
C72   C76   A    
C124  C128  A    
C15   H43   S    
C100  H4    S    
C133  O45   A    
C18   I6    S    
C13   H41   S    
O18   Zn10  S    
C95   C131  S    
C46   O18   A    
C17   C33   S    
C93   C129  S    
C110  C117  A    
C48   O28   A    
C51   H51   S    
C15   C29   S    
C127  H23   S    
O1    Zn13  S    
C78   H14   S    
C128  H24   S    
O2    Zn2   S    
O37   Zn5   S    
C130  O10   A    
C13   C19   S    
C132  O36   A    
C114  H30   S    
C5    C150  A    
C52   H52   S    
C10   C154  S    
C139  O43   A    
O49   Zn1   S    
C155  N3    T    
C16   H44   S    
C14   C20   S    
C44   C56   S    
C156  N4    T    
C77   C81   A    
O27   Zn3   S    
C25   C61   T    
O13   Zn5   S    
C131  O35   A    
C28   C64   T    
C143  C152  A    
C22   C46   S    
O5    Zn1   S    
C68   I4    S    
C125  C126  A    
C20   I8    S    
C31   C35   S    
C127  C128  A    
C3    O15   A    
C104  C108  A    
O21   Zn13  S    
C113  C114  A    
C1    O13   A    
C15   C17   S    
C145  H37   S    
C132  O12   A    
O45   Zn9   S    
C13   C31   S    
C14   C32   S    
C72   H8    S    
C6    C10   A    
C112  C119  A    
C115  H31   S    
C119  C120  A    
C38   C42   S    
O1    Zn9   S    
C82   C86   A    
C149  C150  A    
C42   C54   S    
C79   C83   A    
O42   Zn14  S    
C65   C69   A    
C84   C108  A    
C2    C25   S    
C67   C71   A    
C4    O16   A    
O31   Zn7   S    
C20   C36   S    
C109  H25   S    
C92   C105  S    
C38   C52   S    
C74   C78   A    
C70   H6    S    
C138  O42   A    
C77   H13   S    
C71   C75   A    
O9    Zn13  S    
C144  C148  A    
C125  H21   S    
C130  O34   A    
C119  C124  A    
C7    C11   A    
O30   Zn6   S    
O36   Zn12  S    
C32   H60   S    
C47   O19   A    
C96   C100  A    
O33   Zn9   S    
C92   O8    A    
C86   C94   A    
C121  C125  A    
O4    Zn4   S    
C39   H55   S    
C140  O44   A    
C32   C38   S    
O10   Zn14  S    
C17   C55   S    
C109  C113  A    
C9    C153  S    
C19   C53   S    
O3    Zn15  S    
O4    Zn16  S    
C91   C106  S    
C45   O17   A    
C52   C54   S    
C101  C105  A    
C142  H34   S    
C34   C50   S    
C8    C151  A    
C129  O9    A    
O39   Zn7   S    
O40   Zn8   S    
C39   C43   S    
C153  N1    T    
C111  C120  A    
C118  C121  A    
C122  C126  A    
C21   C57   T    
O52   Zn4   S    
C29   C39   S    
O19   Zn11  S    
C18   C34   S    
C27   C63   T    
O15   Zn7   S    
C91   O31   A    
O2    Zn14  S    
C68   C88   A    
C89   O29   A    
C141  H33   S    
O38   Zn6   S    
O8    Zn4   S    
C144  H36   S    
C42   C62   S    
C33   C57   S    
C38   H54   S    
O43   Zn15  S    
C143  H35   S    
O44   Zn16  S    
C67   I3    S    
C36   C60   S    
C30   H58   S    
C11   C12   A    
C65   C85   A    
C18   C56   S    
C71   H7    S    
C67   C87   A    
C54   H46   S    
C14   C42   S    
C121  C133  S    
C26   C62   T    
C96   C132  S    
C7    C139  S    
C92   O32   A    
C134  O46   A    
C83   C107  A    
C102  C106  A    
C46   O26   A    
C91   O7    A    
C97   C101  A    
C89   O5    A    
C48   O20   A    
C31   H59   S    
C66   I2    S    
C16   C18   S    
O1    Zn5   S    
C146  H38   S    
C111  C115  A    
O3    Zn7   S    
O4    Zn8   S    
C137  O41   A    
