data_mof_unit_26432.cif
_audit_creation_date              2012-12-11T15:22:33-0500
_audit_creation_method            fapswitch 2.2
_symmetry_space_group_name_H-M    P1
_symmetry_Int_Tables_number       1
_space_group_crystal_system       triclinic
_cell_length_a                    22.470157
_cell_length_b                    12.995956
_cell_length_c                    26.998312
_cell_angle_alpha                 89.998953
_cell_angle_beta                  90.324205
_cell_angle_gamma                 89.999823
_cell_volume                      7883.95248654

loop_
_atom_site_label
_atom_site_type_symbol
_atom_type_description
_atom_site_fract_x
_atom_site_fract_y
_atom_site_fract_z
_atom_type_partial_charge
C1    C     C_R   0.720725 0.344858 0.178204 0.542571
C2    C     C_R   0.479123 0.256944 0.897226 -0.134484
C3    C     C_R   0.009480 0.585906 0.555050 -0.120859
C4    C     C_R   0.502730 0.082994 0.394430 -0.130859
C5    C     C_R   0.497274 0.083000 0.605573 -0.130855
C6    C     C_R   0.002730 0.582995 0.394430 -0.130851
C7    C     C_R   0.997274 0.583000 0.605572 -0.130846
C8    C     C_R   0.736813 0.964189 0.373818 0.023854
C9    C     C_R   0.263186 0.964190 0.626183 0.023851
C10   C     C_R   0.236818 0.464178 0.373815 0.023852
C11   C     C_R   0.763180 0.464178 0.626185 0.023849
C12   C     C_R   0.684654 0.952875 0.401793 -0.115732
C13   C     C_R   0.020928 0.756979 0.102774 -0.134483
C14   C     C_R   0.315344 0.952855 0.598209 -0.115737
C15   C     C_R   0.184660 0.452820 0.401788 -0.115739
C16   C     C_R   0.815338 0.452802 0.598214 -0.115745
C17   C     C_R   0.687987 0.942528 0.452679 -0.110028
C18   C     C_R   0.312012 0.942509 0.547322 -0.110033
C19   C     C_R   0.187993 0.442472 0.452674 -0.110035
C20   C     C_R   0.812006 0.442452 0.547328 -0.110042
C21   C     C_R   0.743482 0.940087 0.476299 0.038444
C22   C     C_R   0.256518 0.940087 0.523701 0.038439
C23   C     C_R   0.243486 0.440072 0.476296 0.038432
C24   C     C_R   0.979156 0.756926 0.897226 -0.134484
C25   C     C_R   0.756513 0.440069 0.523704 0.038426
C26   C     C_R   0.795821 0.942594 0.448062 -0.096670
C27   C     C_R   0.204177 0.942615 0.551936 -0.096674
C28   C     C_R   0.295827 0.442623 0.448063 -0.096681
C29   C     C_R   0.704171 0.442638 0.551937 -0.096685
C30   C     C_R   0.792524 0.956702 0.397002 -0.125661
C31   C     C_R   0.207475 0.956723 0.602997 -0.125659
C32   C     C_R   0.292529 0.456730 0.397002 -0.125653
C33   C     C_R   0.707469 0.456746 0.602997 -0.125649
C34   C     C_R   0.784316 0.993177 0.559542 -0.002897
C35   C     C_R   0.509144 0.258352 0.051698 0.014385
C36   C     C_R   0.215694 0.993185 0.440454 -0.002895
C37   C     C_R   0.284297 0.493187 0.559544 -0.002891
C38   C     C_R   0.715710 0.493191 0.440453 -0.002889
C39   C     C_R   0.721257 0.348013 0.321372 0.546016
C40   C     C_R   0.278743 0.348015 0.678629 0.546020
C41   C     C_R   0.221258 0.848016 0.321371 0.546022
C42   C     C_R   0.778742 0.848018 0.678629 0.546022
C43   C     C_R   0.790824 0.971702 0.609798 -0.130804
C44   C     C_R   0.209183 0.971707 0.390199 -0.130805
C45   C     C_R   0.290807 0.471712 0.609800 -0.130812
C46   C     C_R   0.490867 0.258342 0.948303 0.014395
C47   C     C_R   0.709199 0.471715 0.390198 -0.130812
C48   C     C_R   0.716862 0.836371 0.603230 -0.131009
C49   C     C_R   0.283129 0.836348 0.396775 -0.131007
C50   C     C_R   0.216884 0.336319 0.603221 -0.131007
C51   C     C_R   0.783108 0.336298 0.396783 -0.131005
C52   C     C_R   0.710575 0.856624 0.553187 -0.134968
C53   C     C_R   0.289417 0.856603 0.446817 -0.134976
C54   C     C_R   0.210599 0.356568 0.553178 -0.134995
C55   C     C_R   0.789393 0.356548 0.446826 -0.135002
C56   C     C_R   0.746120 0.931336 0.530388 0.013835
C57   C     C_R   0.009165 0.758365 0.051701 0.014371
C58   C     C_R   0.253880 0.931332 0.469612 0.013830
C59   C     C_R   0.246123 0.431317 0.530385 0.013825
C60   C     C_R   0.753876 0.431310 0.469616 0.013821
C61   C     C_R   0.759409 0.889926 0.631150 0.007871
C62   C     C_R   0.240591 0.889918 0.368851 0.007872
C63   C     C_R   0.259410 0.389910 0.631147 0.007874
C64   C     C_R   0.740589 0.389902 0.368854 0.007874
C65   C     C_R   0.554382 0.158886 0.321656 0.540912
C66   C     C_R   0.445618 0.158887 0.678344 0.540915
C67   C     C_R   0.054382 0.658887 0.321656 0.540914
C68   C     C_R   0.990889 0.758330 0.948306 0.014411
C69   C     C_R   0.945618 0.658887 0.678344 0.540925
C70   C     C_R   0.731137 0.003262 0.323435 0.542652
C71   C     C_R   0.268863 0.003264 0.676564 0.542656
C72   C     C_R   0.231137 0.503261 0.323434 0.542659
C73   C     C_R   0.768863 0.503262 0.676565 0.542666
C74   C     C_R   0.516500 0.070021 0.102346 -0.131963
C75   C     C_R   0.483411 0.069998 0.897681 -0.131950
C76   C     C_R   0.016381 0.570049 0.102380 -0.131982
C77   C     C_R   0.983295 0.569968 0.897714 -0.131926
C78   C     C_R   0.507018 0.070033 0.051477 0.012388
C79   C     C_R   0.503862 0.164368 0.025832 0.064326
C80   C     C_R   0.492879 0.070019 0.948551 0.012381
C81   C     C_R   0.006881 0.570048 0.051513 0.012398
C82   C     C_R   0.992744 0.570000 0.948586 0.012371
C83   C     C_R   0.496640 0.976768 0.974396 -0.139153
C84   C     C_R   0.503194 0.976775 0.025646 -0.139138
C85   C     C_R   0.996418 0.476755 0.974446 -0.139171
C86   C     C_R   0.002972 0.476781 0.025697 -0.139116
C87   C     C_1   0.818100 0.077303 0.539000 0.180436
C88   C     C_1   0.181922 0.077329 0.460992 0.180449
C89   C     C_1   0.318055 0.577349 0.539006 0.180464
C90   C     C_R   0.496089 0.164362 0.974183 0.064327
C91   C     C_1   0.681962 0.577369 0.460987 0.180476
C92   C     C_R   0.003801 0.664375 0.025851 0.064322
C93   C     C_R   0.279276 0.344853 0.821798 0.542570
C94   C     C_R   0.996028 0.664353 0.974202 0.064326
C95   C     C_R   0.504859 0.351563 0.025631 -0.137869
C96   C     C_R   0.495207 0.351559 0.974357 -0.137866
C97   C     C_R   0.004956 0.851570 0.025619 -0.137870
C98   C     C_R   0.995305 0.851554 0.974346 -0.137865
C99   C     C_R   0.739335 0.957506 0.129858 0.023642
C100  C     C_R   0.260667 0.957508 0.870143 0.023647
C101  C     C_R   0.239339 0.457499 0.129861 0.023638
C102  C     C_R   0.760671 0.457518 0.870146 0.023654
C103  C     C_R   0.794194 0.965771 0.105662 -0.130519
C104  C     C_R   0.220725 0.844857 0.178203 0.542569
C105  C     C_R   0.205808 0.965772 0.894339 -0.130531
C106  C     C_R   0.294198 0.465768 0.105665 -0.130520
C107  C     C_R   0.705813 0.465785 0.894344 -0.130526
C108  C     C_R   0.797852 0.946679 0.054987 -0.119741
C109  C     C_R   0.202152 0.946686 0.945015 -0.119747
C110  C     C_R   0.297858 0.446671 0.054991 -0.119742
C111  C     C_R   0.702160 0.446706 0.945020 -0.119746
C112  C     C_R   0.746543 0.920480 0.027738 0.036619
C113  C     C_R   0.253461 0.920494 0.972264 0.036628
C114  C     C_R   0.246552 0.420460 0.027742 0.036616
C115  C     C_R   0.779275 0.844855 0.821797 0.542570
C116  C     C_R   0.753471 0.420518 0.972268 0.036630
C117  C     C_R   0.692526 0.906340 0.052577 -0.121548
C118  C     C_R   0.307479 0.906356 0.947426 -0.121547
C119  C     C_R   0.192535 0.406315 0.052580 -0.121550
C120  C     C_R   0.807487 0.406381 0.947430 -0.121544
C121  C     C_R   0.553971 0.157199 0.177410 0.548110
C122  C     C_R   0.446025 0.157195 0.822593 0.548110
C123  C     C_R   0.053965 0.657202 0.177414 0.548110
C124  C     C_R   0.946019 0.657192 0.822596 0.548107
C125  C     C_R   0.689086 0.923633 0.103233 -0.125959
C126  C     C_R   0.473446 0.162597 0.872092 -0.004486
C127  C     C_R   0.310917 0.923643 0.896769 -0.125962
C128  C     C_R   0.189093 0.423615 0.103236 -0.125960
C129  C     C_R   0.810923 0.423660 0.896771 -0.125961
C130  C     C_R   0.716340 0.832416 0.949482 -0.118813
C131  C     C_R   0.283664 0.832428 0.050521 -0.118817
C132  C     C_R   0.216358 0.332384 0.949488 -0.118814
C133  C     C_R   0.783673 0.332449 0.050524 -0.118818
C134  C     C_R   0.721966 0.817686 0.898749 -0.125110
C135  C     C_R   0.278036 0.817693 0.101253 -0.125114
C136  C     C_R   0.221981 0.317658 0.898754 -0.125103
C137  C     C_R   0.526529 0.162616 0.127918 -0.004498
C138  C     C_R   0.778042 0.317706 0.101255 -0.125122
C139  C     C_R   0.791126 0.960611 0.894579 -0.124556
C140  C     C_R   0.208877 0.960621 0.105423 -0.124588
C141  C     C_R   0.291124 0.460606 0.894581 -0.124568
C142  C     C_R   0.708883 0.460633 0.105426 -0.124578
C143  C     C_R   0.784753 0.976383 0.945290 -0.115994
C144  C     C_R   0.215252 0.976397 0.054712 -0.116011
C145  C     C_R   0.284754 0.476373 0.945293 -0.116001
C146  C     C_R   0.715261 0.476416 0.054716 -0.116004
C147  C     C_R   0.749004 0.909989 0.973447 0.038449
C148  C     C_R   0.973417 0.662575 0.872106 -0.004470
C149  C     C_R   0.251002 0.910004 0.026555 0.038457
C150  C     C_R   0.249013 0.409968 0.973451 0.038444
C151  C     C_R   0.751012 0.410027 0.026559 0.038459
C152  C     C_R   0.761235 0.879034 0.871242 0.024407
C153  C     C_R   0.238767 0.879041 0.128759 0.024407
C154  C     C_R   0.261238 0.379022 0.871245 0.024409
C155  C     C_R   0.738771 0.379049 0.128761 0.024405
C156  C     C_R   0.527744 0.168913 0.370967 0.019618
C157  C     C_R   0.472256 0.168915 0.629033 0.019620
C158  C     C_R   0.027744 0.668913 0.370967 0.019622
C159  C     C_R   0.026498 0.662637 0.127933 -0.004514
C160  C     C_R   0.972256 0.668916 0.629033 0.019623
C161  C     C_R   0.537016 0.259696 0.398208 -0.124919
C162  C     C_R   0.462979 0.259696 0.601789 -0.124920
C163  C     C_R   0.037016 0.759696 0.398208 -0.124915
C164  C     C_R   0.962979 0.759696 0.601789 -0.124917
C165  C     C_R   0.525668 0.262069 0.448774 -0.121003
C166  C     C_R   0.474327 0.262068 0.551223 -0.121001
C167  C     C_R   0.025668 0.762069 0.448773 -0.121001
C168  C     C_R   0.974326 0.762068 0.551223 -0.121000
C169  C     C_R   0.731221 0.002104 0.179296 0.542858
C170  C     C_R   0.520897 0.256960 0.102774 -0.134485
C171  C     C_R   0.268779 0.002103 0.820704 0.542853
C172  C     C_R   0.231222 0.502103 0.179296 0.542858
C173  C     C_R   0.768780 0.502105 0.820705 0.542854
C174  C     C_R   0.503865 0.174298 0.472884 0.032910
C175  C     C_R   0.496135 0.174299 0.527116 0.032911
C176  C     C_R   0.003864 0.674299 0.472884 0.032909
C177  C     C_R   0.996135 0.674300 0.527116 0.032910
C178  C     C_R   0.490524 0.085901 0.444952 -0.120869
C179  C     C_R   0.509480 0.085906 0.555050 -0.120868
C180  C     C_R   0.990524 0.585902 0.444952 -0.120861
Cr1   Cr    Cr6+3 0.756570 0.170940 0.251190 1.014774
Cr2   Cr    Cr6+3 0.374010 0.036240 0.749520 1.012523
Cr3   Cr    Cr6+3 0.125990 0.536240 0.250480 1.012528
Cr4   Cr    Cr6+3 0.874010 0.536240 0.749520 1.012523
Cr5   Cr    Cr6+3 0.243430 0.170940 0.748810 1.014780
Cr6   Cr    Cr6+3 0.256570 0.670940 0.251190 1.014777
Cr7   Cr    Cr6+3 0.743430 0.670940 0.748810 1.014776
Cr8   Cr    Cr6+3 0.623740 0.299110 0.249580 1.014504
Cr9   Cr    Cr6+3 0.376260 0.299110 0.750420 1.014510
Cr10  Cr    Cr6+3 0.123740 0.799110 0.249580 1.014497
Cr11  Cr    Cr6+3 0.876260 0.799110 0.750420 1.014518
Cr12  Cr    Cr6+3 0.625990 0.036240 0.250480 1.012526
H1    H     H_    0.479428 0.996730 0.878726 0.127608
H2    H     H_    0.347838 0.886912 0.967444 0.104911
H3    H     H_    0.152178 0.386857 0.032562 0.104926
H4    H     H_    0.847847 0.386941 0.967447 0.104902
H5    H     H_    0.645961 0.917447 0.120720 0.129906
H6    H     H_    0.354042 0.917458 0.879282 0.129881
H7    H     H_    0.145967 0.417425 0.120722 0.129938
H8    H     H_    0.854047 0.417475 0.879283 0.129848
H9    H     H_    0.556906 0.326887 0.381278 0.137397
H10   H     H_    0.443085 0.326885 0.618718 0.137395
H11   H     H_    0.056906 0.826888 0.381278 0.137397
H12   H     H_    0.520445 0.996757 0.121312 0.127608
H13   H     H_    0.943085 0.826886 0.618718 0.137395
H14   H     H_    0.528042 0.018151 0.537629 0.105950
H15   H     H_    0.471966 0.018145 0.462375 0.105954
H16   H     H_    0.028041 0.518152 0.537629 0.105960
H17   H     H_    0.971966 0.518146 0.462375 0.105964
H18   H     H_    0.504968 0.012188 0.625776 0.127682
H19   H     H_    0.495040 0.012181 0.374229 0.127684
H20   H     H_    0.004968 0.512189 0.625775 0.127685
H21   H     H_    0.995040 0.512181 0.374229 0.127685
H22   H     H_    0.536723 0.331075 0.469331 0.108257
H23   H     H_    0.979260 0.496693 0.878772 0.127609
H24   H     H_    0.463268 0.331072 0.530664 0.108258
H25   H     H_    0.036723 0.831076 0.469331 0.108269
H26   H     H_    0.963268 0.831072 0.530664 0.108270
H27   H     H_    0.640942 0.959643 0.384961 0.142575
H28   H     H_    0.359057 0.959607 0.615042 0.142574
H29   H     H_    0.140947 0.459555 0.384954 0.142573
H30   H     H_    0.859051 0.459524 0.615049 0.142571
H31   H     H_    0.822756 0.015162 0.631637 0.131625
H32   H     H_    0.177259 0.015177 0.368357 0.131621
H33   H     H_    0.322722 0.515196 0.631643 0.131613
H34   H     H_    0.020273 0.496790 0.121359 0.127605
H35   H     H_    0.677290 0.515208 0.368352 0.131609
H36   H     H_    0.493759 0.903865 0.955035 0.098506
H37   H     H_    0.506029 0.903877 0.045017 0.098529
H38   H     H_    0.993476 0.403845 0.955097 0.098475
H39   H     H_    0.005744 0.403889 0.045079 0.098558
H40   H     H_    0.647117 0.939947 0.473759 0.111567
H41   H     H_    0.352882 0.939910 0.526244 0.111574
H42   H     H_    0.147122 0.439856 0.473752 0.111585
H43   H     H_    0.852877 0.439821 0.526251 0.111591
H44   H     H_    0.680155 0.809745 0.531748 0.153084
H45   H     H_    0.821503 0.009133 0.874105 0.123163
H46   H     H_    0.319829 0.809714 0.468259 0.153091
H47   H     H_    0.180198 0.309661 0.531734 0.153098
H48   H     H_    0.819788 0.309631 0.468272 0.153102
H49   H     H_    0.691762 0.773286 0.618977 0.144043
H50   H     H_    0.308223 0.773253 0.381030 0.144052
H51   H     H_    0.191799 0.273210 0.618964 0.144069
H52   H     H_    0.808187 0.273181 0.381043 0.144077
H53   H     H_    0.839114 0.936217 0.465626 0.120131
H54   H     H_    0.160885 0.936254 0.534371 0.120129
H55   H     H_    0.339119 0.436279 0.465629 0.120120
H56   H     H_    0.178500 0.009142 0.125896 0.123148
H57   H     H_    0.660879 0.436308 0.534370 0.120118
H58   H     H_    0.833136 0.965157 0.375964 0.123891
H59   H     H_    0.166863 0.965193 0.624032 0.123896
H60   H     H_    0.333141 0.465218 0.375967 0.123898
H61   H     H_    0.666857 0.465248 0.624031 0.123901
H62   H     H_    0.471475 0.328666 0.877699 0.123520
H63   H     H_    0.528593 0.328679 0.122288 0.123547
H64   H     H_    0.971573 0.828652 0.877686 0.123477
H65   H     H_    0.028689 0.828694 0.122275 0.123587
H66   H     H_    0.491229 0.424384 0.955083 0.100908
H67   H     H_    0.321494 0.509138 0.874105 0.123155
H68   H     H_    0.508884 0.424391 0.044895 0.100909
H69   H     H_    0.991391 0.924377 0.955060 0.100902
H70   H     H_    0.009045 0.924402 0.044871 0.100911
H71   H     H_    0.833584 0.991481 0.125382 0.122227
H72   H     H_    0.166417 0.991478 0.874618 0.122211
H73   H     H_    0.333587 0.491486 0.125385 0.122223
H74   H     H_    0.666421 0.491486 0.874623 0.122216
H75   H     H_    0.688702 0.779709 0.970227 0.099064
H76   H     H_    0.311302 0.779721 0.029776 0.099061
H77   H     H_    0.188727 0.279667 0.970234 0.099073
H78   H     H_    0.678505 0.509151 0.125901 0.123153
H79   H     H_    0.811312 0.279745 0.029778 0.099057
H80   H     H_    0.698818 0.753396 0.881869 0.133056
H81   H     H_    0.301182 0.753400 0.118133 0.133055
H82   H     H_    0.198839 0.253361 0.881875 0.133067
H83   H     H_    0.801187 0.253411 0.118134 0.133052
H84   H     H_    0.840490 0.954990 0.036916 0.106013
H85   H     H_    0.159514 0.954997 0.963087 0.105984
H86   H     H_    0.340496 0.454987 0.036920 0.106003
H87   H     H_    0.659523 0.455016 0.963093 0.105994
H88   H     H_    0.808973 0.038873 0.962661 0.100225
H89   H     H_    0.652168 0.886892 0.032559 0.104916
H90   H     H_    0.191034 0.038888 0.037339 0.100215
H91   H     H_    0.308968 0.538869 0.962664 0.100225
H92   H     H_    0.691044 0.538909 0.037345 0.100221
N1    N     N_1   0.845459 0.144566 0.522728 -0.337944
N2    N     N_1   0.154573 0.144607 0.477261 -0.337935
N3    N     N_1   0.345392 0.644643 0.522738 -0.337938
N4    N     N_1   0.654633 0.644675 0.477252 -0.337925
O1    O     O_R   0.769900 0.064540 0.196060 -0.522831
O2    O     O_R   0.433710 0.069580 0.694600 -0.523425
O3    O     O_R   0.066290 0.569580 0.305400 -0.523431
O4    O     O_R   0.933710 0.569580 0.694600 -0.523416
O5    O     O_R   0.680760 0.993330 0.302620 -0.506594
O6    O     O_R   0.319240 0.993330 0.697380 -0.506593
O7    O     O_R   0.180760 0.493330 0.302620 -0.506596
O8    O     O_R   0.819240 0.493330 0.697380 -0.506594
O9    O     O_3   0.668770 0.168760 0.250420 -0.239601
O10   O     O_3   0.331230 0.168760 0.749580 -0.239606
O11   O     O_3   0.168770 0.668760 0.250420 -0.239596
O12   O     O_R   0.230100 0.064540 0.803940 -0.522833
O13   O     O_3   0.831230 0.668760 0.749580 -0.239605
O14   O     O_R   0.750800 0.274080 0.199250 -0.506037
O15   O     O_R   0.249200 0.274080 0.800750 -0.506036
O16   O     O_R   0.250800 0.774080 0.199250 -0.506036
O17   O     O_R   0.749200 0.774080 0.800750 -0.506040
O18   O     O_R   0.669990 0.371670 0.194150 -0.519989
O19   O     O_R   0.330010 0.371670 0.805850 -0.519983
O20   O     O_R   0.169990 0.871670 0.194150 -0.519999
O21   O     O_R   0.830010 0.871670 0.805850 -0.519975
O22   O     O_R   0.574600 0.238480 0.197800 -0.500321
O23   O     O_R   0.269900 0.564540 0.196060 -0.522835
O24   O     O_R   0.425400 0.238480 0.802200 -0.500313
O25   O     O_R   0.074600 0.738480 0.197800 -0.500336
O26   O     O_R   0.925400 0.738480 0.802200 -0.500297
O27   O     O_R   0.566130 0.068680 0.194240 -0.525549
O28   O     O_R   0.433870 0.068680 0.805760 -0.525558
O29   O     O_R   0.066130 0.568680 0.194240 -0.525536
O30   O     O_R   0.933870 0.568680 0.805760 -0.525570
O31   O     O_R   0.680610 0.992490 0.199570 -0.505274
O32   O     O_R   0.319390 0.992490 0.800430 -0.505278
O33   O     O_R   0.180610 0.492490 0.199570 -0.505268
O34   O     O_R   0.730100 0.564540 0.803940 -0.522831
O35   O     O_R   0.819390 0.492490 0.800430 -0.505287
O36   O     O_R   0.770060 0.065440 0.307230 -0.517455
O37   O     O_R   0.229940 0.065440 0.692770 -0.517457
O38   O     O_R   0.270060 0.565440 0.307230 -0.517456
O39   O     O_R   0.729940 0.565440 0.692770 -0.517456
O40   O     O_R   0.750960 0.274920 0.302300 -0.503440
O41   O     O_R   0.249040 0.274920 0.697700 -0.503435
O42   O     O_R   0.250960 0.774920 0.302300 -0.503432
O43   O     O_R   0.749040 0.774920 0.697700 -0.503430
O44   O     O_R   0.670160 0.372580 0.305320 -0.523665
O45   O     O_R   0.574760 0.239320 0.300850 -0.503695
O46   O     O_R   0.329840 0.372580 0.694680 -0.523668
O47   O     O_R   0.170160 0.872580 0.305320 -0.523670
O48   O     O_R   0.829840 0.872580 0.694680 -0.523676
O49   O     O_R   0.425240 0.239320 0.699150 -0.503694
O50   O     O_R   0.074760 0.739320 0.300850 -0.503696
O51   O     O_R   0.925240 0.739320 0.699150 -0.503695
O52   O     O_R   0.566290 0.069580 0.305400 -0.523431

loop_
_geom_bond_atom_site_label_1
_geom_bond_atom_site_label_2
_ccdc_geom_bond_type
C99   C103  A    
C21   C26   A    
C34   C56   A    
Cr12  O5    S    
C82   C94   A    
C139  H45   S    
C100  C127  A    
C132  C150  A    
C142  C146  A    
C16   H30   S    
C51   H52   S    
C133  C151  A    
C7    H20   S    
C5    H18   S    
C172  O23   A    
C163  H11   S    
C120  H4    S    
C86   H39   S    
C65   C156  S    
C141  C154  A    
C133  H79   S    
Cr4   O35   S    
C29   C33   A    
C139  C152  A    
C101  C128  A    
C5    C179  A    
C79   C90   A    
Cr5   O37   S    
C52   H44   S    
Cr7   O39   S    
C121  O22   A    
C25   C60   S    
Cr4   O4    S    
C81   C86   A    
C141  C145  A    
C83   H36   S    
C119  C128  A    
C93   O19   A    
C104  O16   A    
C14   H28   S    
C130  C134  A    
C80   C83   A    
C2    H62   S    
Cr11  O13   S    
Cr7   O34   S    
C25   C29   A    
C74   C137  A    
C27   C31   A    
C9    C71   S    
C28   C32   A    
C47   C64   A    
Cr12  O52   S    
C17   C21   A    
C28   H55   S    
C111  H87   S    
C19   C23   A    
C142  H78   S    
C42   O48   A    
Cr10  O11   S    
C16   C20   A    
Cr11  O26   S    
C57   C97   A    
C92   C94   A    
C31   H59   S    
C45   H33   S    
C4    H19   S    
C172  O33   A    
C130  H75   S    
C89   N3    T    
Cr11  O48   S    
C131  C149  A    
C114  C150  S    
Cr8   O18   S    
C127  H6    S    
C40   O41   A    
C43   C61   A    
Cr6   O38   S    
C106  H73   S    
C49   C62   A    
Cr5   O15   S    
Cr6   O16   S    
C51   C64   A    
C87   N1    T    
Cr7   O13   S    
C22   C58   S    
C53   C58   A    
C171  O12   A    
C82   C85   A    
Cr1   O9    S    
C75   C126  A    
C128  H7    S    
Cr3   O3    S    
C6    H21   S    
C123  C159  S    
C77   C82   A    
C49   C53   A    
C119  H3    S    
C34   C87   S    
Cr4   O30   S    
C169  O31   A    
C48   C52   A    
C46   C96   A    
C35   C170  A    
C157  C162  A    
C161  C165  A    
C137  C170  A    
C122  C126  S    
Cr11  O21   S    
C57   C92   A    
C67   O3    A    
C123  O29   A    
C69   C160  S    
C97   C98   A    
Cr9   O49   S    
C85   C86   A    
C36   C88   S    
C23   C59   S    
Cr2   O32   S    
C170  H63   S    
C162  H10   S    
Cr3   O29   S    
C115  O21   A    
C40   O46   A    
C13   C57   A    
C134  H80   S    
C101  C172  S    
Cr5   O10   S    
C121  C137  S    
C24   H64   S    
C13   H65   S    
C174  C175  S    
C81   C92   A    
C139  C143  A    
Cr9   O24   S    
C104  C153  S    
C110  C114  A    
C51   C55   A    
C145  C150  A    
C132  C136  A    
C66   O49   A    
C50   C63   A    
C6    C158  A    
C17   H40   S    
C68   C98   A    
C54   C59   A    
C95   H68   S    
C120  C129  A    
C11   C33   A    
C67   O50   A    
C50   H51   S    
Cr5   O41   S    
Cr9   O10   S    
C165  C174  A    
C78   C84   A    
C68   C94   A    
C116  C120  A    
Cr6   O23   S    
C135  H81   S    
C29   H57   S    
C173  O35   A    
C43   H31   S    
C123  O25   A    
C169  O1    A    
C83   C84   A    
C131  H76   S    
C8    C12   A    
Cr10  O50   S    
C102  C107  A    
C23   C28   A    
C42   O43   A    
C37   C59   A    
C158  C163  A    
C38   C60   A    
C73   O39   A    
C156  C161  A    
C26   C30   A    
C1    O14   A    
C118  C127  A    
C145  H91   S    
C19   H42   S    
C2    C126  A    
C146  H92   S    
C101  C106  A    
C105  C109  A    
C6    C180  A    
C130  C147  A    
C140  H56   S    
C107  C111  A    
C34   C43   A    
Cr11  O51   S    
C109  H85   S    
C39   O40   A    
Cr4   O13   S    
C8    C70   S    
C112  C147  S    
C138  H83   S    
Cr5   O12   S    
Cr6   O11   S    
C74   H12   S    
C35   C79   A    
C143  H88   S    
Cr1   O14   S    
Cr8   O22   S    
C146  C151  A    
C176  C180  A    
C47   H35   S    
Cr6   O42   S    
C96   H66   S    
Cr2   O28   S    
C117  C125  A    
C13   C159  A    
C66   C157  S    
C10   C72   S    
C138  C155  A    
C76   C159  A    
Cr2   O10   S    
Cr3   O7    S    
C39   O44   A    
C102  C173  S    
C15   C19   A    
C39   C64   S    
C124  C148  S    
C166  C175  A    
C50   C54   A    
C40   C63   S    
C73   O8    A    
C69   O51   A    
C160  C164  A    
C54   H47   S    
C3    C7    A    
C112  C117  A    
C20   C25   A    
C72   O38   A    
C168  C177  A    
Cr12  O31   S    
C70   O5    A    
C162  C166  A    
Cr1   O40   S    
Cr7   O17   S    
C12   C17   A    
C41   O47   A    
C111  C116  A    
C44   H32   S    
C55   H48   S    
C174  C178  A    
C140  C153  A    
C133  C138  A    
C18   C22   A    
C55   C60   A    
Cr1   O1    S    
C91   N4    T    
C115  O17   A    
C41   C62   S    
Cr2   O6    S    
Cr3   O11   S    
Cr8   O44   S    
C11   C73   S    
C4    C178  A    
C132  H77   S    
C7    C160  A    
C38   C91   S    
C108  C112  A    
C53   H46   S    
C9    C14   A    
C136  C154  A    
C11   C16   A    
C164  C168  A    
C20   H43   S    
C134  C152  A    
C178  H15   S    
C107  H74   S    
C122  O24   A    
C141  H67   S    
C124  O26   A    
C84   H37   S    
C77   C148  A    
C97   H70   S    
C4    C156  A    
C171  O32   A    
C71   O37   A    
C5    C157  A    
C144  H90   S    
Cr8   O45   S    
Cr10  O47   S    
C77   H23   S    
C70   O36   A    
C41   O42   A    
C136  H82   S    
C85   H38   S    
C140  C144  A    
C108  H84   S    
C21   C56   S    
C46   C90   A    
C35   C95   A    
C131  C135  A    
C69   O4    A    
C37   C89   S    
Cr9   O46   S    
C164  H13   S    
C8    C30   A    
C105  H72   S    
C33   H61   S    
C117  H89   S    
C180  H17   S    
C118  H2    S    
C72   O7    A    
C65   O45   A    
C24   C68   A    
C74   C78   A    
C166  H24   S    
C110  H86   S    
C14   C18   A    
C95   C96   A    
C102  C129  A    
Cr4   O8    S    
C49   H50   S    
C18   H41   S    
C99   C125  A    
C2    C46   A    
C143  C147  A    
C100  C105  A    
C104  O20   A    
C10   C32   A    
C3    H16   S    
C161  H9    S    
C93   C154  S    
Cr9   O19   S    
C36   C58   A    
C10   C15   A    
Cr10  O20   S    
C173  O34   A    
C1    C155  S    
C115  C152  S    
C103  C108  A    
C142  C155  A    
C75   C80   A    
C12   H27   S    
C26   H53   S    
C109  C113  A    
C179  H14   S    
C125  H5    S    
C100  C171  S    
Cr12  O27   S    
C76   H34   S    
C113  C149  S    
C24   C148  A    
C27   H54   S    
Cr1   O36   S    
C78   C79   A    
C175  C179  A    
C44   C62   A    
C45   C63   A    
C30   H58   S    
C71   O6    A    
C15   H29   S    
C163  C167  A    
C144  C149  A    
C88   N2    T    
Cr2   O2    S    
C42   C61   S    
C38   C47   A    
Cr10  O25   S    
Cr8   O9    S    
C75   H1    S    
C176  C177  S    
Cr3   O33   S    
C106  C110  A    
Cr12  O9    S    
C93   O15   A    
C114  C119  A    
C48   H49   S    
C76   C81   A    
C99   C169  S    
C121  O27   A    
C1    O18   A    
C32   H60   S    
C122  O28   A    
C135  C153  A    
C22   C27   A    
C124  O30   A    
C3    C177  A    
C98   H69   S    
C48   C61   A    
C167  H25   S    
C67   C158  S    
C116  C151  S    
C80   C90   A    
C129  H8    S    
C36   C44   A    
C9    C31   A    
C113  C118  A    
Cr7   O43   S    
C165  H22   S    
C66   O2    A    
C103  H71   S    
C65   O52   A    
C168  H26   S    
C37   C45   A    
C52   C56   A    
C167  C176  A    
