data_mof_unit_50379.cif
_audit_creation_date              2012-12-10T18:09:33-0500
_audit_creation_method            fapswitch 2.2
_symmetry_space_group_name_H-M    P1
_symmetry_Int_Tables_number       1
_space_group_crystal_system       triclinic
_cell_length_a                    15.153492
_cell_length_b                    15.181555
_cell_length_c                    9.412858
_cell_angle_alpha                 89.991857
_cell_angle_beta                  90.000205
_cell_angle_gamma                 90.000141
_cell_volume                      2165.461586

loop_
_atom_site_label
_atom_site_type_symbol
_atom_type_description
_atom_site_fract_x
_atom_site_fract_y
_atom_site_fract_z
_atom_type_partial_charge
C1    C     C_R   0.120253 0.379920 0.499790 0.757548
C2    C     C_R   0.120255 0.620079 0.500210 0.757580
C3    C     C_R   0.620252 0.879919 0.499790 0.757551
C4    C     C_R   0.620254 0.120079 0.500210 0.757578
C5    C     C_3   0.092324 0.500447 0.083857 -0.189347
C6    C     C_3   0.092324 0.500346 0.916145 -0.189357
C7    C     C_3   0.592324 0.000389 0.083857 -0.189353
C8    C     C_3   0.592324 0.000287 0.916145 -0.189364
C9    C     C_R   0.880004 0.379832 0.500219 0.759312
C10   C     C_R   0.880002 0.620166 0.499781 0.759327
C11   C     C_R   0.380004 0.879831 0.500219 0.759313
C12   C     C_R   0.380003 0.120167 0.499781 0.759327
C13   C     C_3   0.786048 0.285373 0.655779 -0.379990
C14   C     C_3   0.845005 0.227282 0.423587 -0.384327
C15   C     C_3   0.845011 0.772724 0.576376 -0.384321
C16   C     C_3   0.786025 0.714605 0.344219 -0.379980
C17   C     C_3   0.286050 0.785371 0.655779 -0.379986
C18   C     C_3   0.345005 0.727282 0.423584 -0.384326
C19   C     C_3   0.345006 0.272719 0.576401 -0.384321
C20   C     C_3   0.286039 0.214619 0.344218 -0.379984
C21   C     C_3   0.214888 0.713823 0.655775 -0.377061
C22   C     C_3   0.272986 0.655367 0.423336 -0.384147
C23   C     C_3   0.272988 0.344634 0.576646 -0.384146
C24   C     C_3   0.214876 0.286166 0.344223 -0.376977
C25   C     C_3   0.714886 0.213825 0.655775 -0.377055
C26   C     C_3   0.772987 0.155367 0.423340 -0.384145
C27   C     C_3   0.772993 0.844639 0.576622 -0.384149
C28   C     C_3   0.714861 0.786152 0.344223 -0.376981
C29   C     C_3   0.727053 0.344777 0.424500 -0.384182
C30   C     C_3   0.727058 0.655228 0.575534 -0.384173
C31   C     C_3   0.227052 0.844777 0.424503 -0.384183
C32   C     C_3   0.227053 0.155223 0.575509 -0.384174
C33   C     C_3   0.811066 0.310842 0.500984 0.178415
C34   C     C_3   0.811063 0.689155 0.499014 0.178400
C35   C     C_3   0.311067 0.810842 0.500984 0.178415
C36   C     C_3   0.311064 0.189156 0.499014 0.178401
C37   C     C_3   0.189257 0.689005 0.500975 0.177978
C38   C     C_3   0.189254 0.310993 0.499024 0.177956
C39   C     C_3   0.689257 0.189005 0.500975 0.177977
C40   C     C_3   0.689253 0.810991 0.499024 0.177956
C41   C     C_3   0.155034 0.772874 0.424763 -0.384533
C42   C     C_3   0.155035 0.227127 0.575252 -0.384532
C43   C     C_3   0.655035 0.272874 0.424760 -0.384534
C44   C     C_3   0.655040 0.727132 0.575276 -0.384529
C45   C     C_3   0.955547 0.578421 0.083637 -0.187192
C46   C     C_3   0.955660 0.578494 0.916311 -0.186199
C47   C     C_3   0.956360 0.421101 0.083690 -0.186288
C48   C     C_3   0.956247 0.421174 0.916360 -0.187264
C49   C     C_3   0.455599 0.078450 0.083637 -0.187203
C50   C     C_3   0.455711 0.078524 0.916312 -0.186215
C51   C     C_3   0.456309 0.921131 0.083690 -0.186289
C52   C     C_3   0.456196 0.921204 0.916361 -0.187267
Cu1   Cu    Cu3+1 0.000100 0.500000 0.642410 0.882014
Cu2   Cu    Cu3+1 0.000100 0.500000 0.357590 0.882011
Cu3   Cu    Cu3+1 0.500100 0.000000 0.642410 0.882011
Cu4   Cu    Cu3+1 0.500100 0.000000 0.357590 0.882009
H1    H     H_    0.760982 0.344137 0.713968 0.153970
H2    H     H_    0.863382 0.243408 0.312067 0.155724
H3    H     H_    0.863400 0.756610 0.687895 0.155731
H4    H     H_    0.760952 0.655833 0.286057 0.153939
H5    H     H_    0.260984 0.844135 0.713970 0.153968
H6    H     H_    0.363380 0.743410 0.312064 0.155725
H7    H     H_    0.363385 0.256597 0.687921 0.155734
H8    H     H_    0.260971 0.155853 0.286038 0.153944
H9    H     H_    0.240172 0.654807 0.713082 0.152825
H10   H     H_    0.298451 0.595040 0.476642 0.137560
H11   H     H_    0.298451 0.404959 0.523328 0.137550
H12   H     H_    0.240152 0.345179 0.286900 0.152857
H13   H     H_    0.740169 0.154810 0.713085 0.152828
H14   H     H_    0.798451 0.095040 0.476648 0.137559
H15   H     H_    0.798451 0.904959 0.523284 0.137552
H16   H     H_    0.740134 0.845159 0.286882 0.152859
H17   H     H_    0.155966 0.738206 0.714565 0.155998
H18   H     H_    0.256837 0.637337 0.311698 0.155382
H19   H     H_    0.256845 0.362671 0.688284 0.155413
H20   H     H_    0.155949 0.261778 0.285448 0.155985
H21   H     H_    0.655963 0.238209 0.714562 0.155997
H22   H     H_    0.756838 0.137335 0.311701 0.155384
H23   H     H_    0.756858 0.862685 0.688259 0.155409
H24   H     H_    0.655930 0.761759 0.285466 0.155981
H25   H     H_    0.701790 0.404896 0.478634 0.138161
H26   H     H_    0.742793 0.363237 0.312883 0.155825
H27   H     H_    0.742812 0.636781 0.687152 0.155807
H28   H     H_    0.701789 0.595103 0.521426 0.138156
H29   H     H_    0.201790 0.904896 0.478640 0.138161
H30   H     H_    0.242791 0.863238 0.312886 0.155823
H31   H     H_    0.242798 0.136767 0.687126 0.155806
H32   H     H_    0.201788 0.095102 0.521382 0.138156
H33   H     H_    0.094955 0.798057 0.479382 0.137813
H34   H     H_    0.136216 0.757195 0.313279 0.157359
H35   H     H_    0.136225 0.242811 0.686736 0.157360
H36   H     H_    0.094953 0.201942 0.520645 0.137796
H37   H     H_    0.594955 0.298057 0.479375 0.137811
H38   H     H_    0.636219 0.257194 0.313276 0.157359
H39   H     H_    0.636239 0.742825 0.686762 0.157364
H40   H     H_    0.594953 0.701942 0.520688 0.137796
H41   H     H_    0.987302 0.639678 0.123627 0.130984
H42   H     H_    0.987659 0.639696 0.876563 0.130629
H43   H     H_    0.988892 0.360184 0.123457 0.130623
H44   H     H_    0.988532 0.360199 0.876350 0.130985
H45   H     H_    0.487394 0.139686 0.123629 0.130989
H46   H     H_    0.487751 0.139703 0.876561 0.130633
H47   H     H_    0.488802 0.860194 0.123456 0.130628
H48   H     H_    0.488443 0.860209 0.876351 0.130989
N1    N     N_3   0.001260 0.500000 0.143650 -0.106276
N2    N     N_3   0.001260 0.500000 0.856350 -0.106278
N3    N     N_3   0.501260 0.000000 0.143650 -0.106279
N4    N     N_3   0.501260 0.000000 0.856350 -0.106280
O1    O     O_R   0.091250 0.408820 0.620260 -0.594101
O2    O     O_R   0.091250 0.408820 0.379740 -0.595201
O3    O     O_R   0.091250 0.591180 0.620260 -0.595227
O4    O     O_R   0.091250 0.591180 0.379740 -0.594139
O5    O     O_R   0.591250 0.908820 0.620260 -0.594105
O6    O     O_R   0.591250 0.908820 0.379740 -0.595203
O7    O     O_R   0.591250 0.091180 0.620260 -0.595225
O8    O     O_R   0.591250 0.091180 0.379740 -0.594137
O9    O     O_R   0.908940 0.408800 0.620260 -0.596997
O10   O     O_R   0.908940 0.408800 0.379740 -0.596289
O11   O     O_R   0.908940 0.591200 0.620260 -0.596294
O12   O     O_R   0.908940 0.591200 0.379740 -0.597004
O13   O     O_R   0.408940 0.908800 0.620260 -0.596998
O14   O     O_R   0.408940 0.908800 0.379740 -0.596290
O15   O     O_R   0.408940 0.091200 0.620260 -0.596294
O16   O     O_R   0.408940 0.091200 0.379740 -0.597004
H49   H     H_    0.845211 0.260751 0.713690 0.154043
H50   H     H_    0.905300 0.201893 0.477342 0.137941
H51   H     H_    0.905299 0.798106 0.522596 0.137942
H52   H     H_    0.845179 0.739220 0.286281 0.154060
H53   H     H_    0.345213 0.760749 0.713688 0.154043
H54   H     H_    0.405300 0.701893 0.477337 0.137941
H55   H     H_    0.405299 0.298106 0.522640 0.137941
H56   H     H_    0.345199 0.239240 0.286299 0.154056
H57   H     H_    0.885898 0.579907 0.120705 0.134294
H58   H     H_    0.886062 0.580252 0.878951 0.134569
H59   H     H_    0.886776 0.418728 0.121017 0.134642
H60   H     H_    0.886609 0.419074 0.879328 0.134362
H61   H     H_    0.385951 0.079981 0.120704 0.134303
H62   H     H_    0.386115 0.080326 0.878952 0.134580
H63   H     H_    0.386725 0.918804 0.121021 0.134642
H64   H     H_    0.386558 0.919149 0.879324 0.134361
H65   H     H_    0.128896 0.559270 0.122266 0.133937
H66   H     H_    0.128979 0.559071 0.877596 0.133639
H67   H     H_    0.129501 0.442062 0.122462 0.133558
H68   H     H_    0.129418 0.441861 0.877682 0.133861
H69   H     H_    0.628933 0.059187 0.122271 0.133936
H70   H     H_    0.629016 0.058988 0.877591 0.133637
H71   H     H_    0.629462 0.941978 0.122459 0.133568
H72   H     H_    0.629379 0.941778 0.877685 0.133871

loop_
_geom_bond_atom_site_label_1
_geom_bond_atom_site_label_2
_ccdc_geom_bond_type
C16   C28   S    
C41   H33   S    
Cu3   Cu4   S    
Cu3   O13   S    
C31   H29   S    
Cu2   O12   S    
C9    O9    A    
C4    O7    A    
C30   C44   S    
C14   C33   S    
C47   H59   S    
C7    C8    S    
C49   N3    S    
C5    N1    S    
C45   C46   S    
C29   H25   S    
C2    O4    A    
C6    H66   S    
C26   H22   S    
C37   C41   S    
C25   H21   S    
C32   C36   S    
C38   C42   S    
C27   H23   S    
C19   C36   S    
C49   H45   S    
C5    C6    S    
Cu1   O9    S    
C26   C39   S    
C5    H67   S    
C13   H1    S    
C28   C40   S    
C51   H47   S    
C32   H32   S    
C21   H17   S    
C43   H38   S    
C47   H43   S    
Cu2   O2    S    
C42   H35   S    
C16   H4    S    
C23   H11   S    
C30   H27   S    
C22   H10   S    
C10   O11   A    
C1    O1    A    
C5    H65   S    
Cu1   N2    S    
C48   N2    S    
C20   C24   S    
C29   C33   S    
C19   H7    S    
C47   N1    S    
C24   C38   S    
C12   C36   S    
C18   C35   S    
C15   C34   S    
C13   H49   S    
Cu1   O3    S    
C41   H34   S    
C46   H42   S    
C31   H30   S    
C15   H51   S    
C29   C43   S    
C7    N3    S    
C9    C33   S    
C9    O10   A    
C13   C25   S    
C8    H72   S    
C20   H56   S    
C14   H2    S    
C8    N4    S    
C45   N1    S    
C7    H71   S    
C19   H55   S    
C48   H44   S    
Cu3   O15   S    
C2    O3    A    
C30   C34   S    
C17   H53   S    
C51   C52   S    
C3    O5    A    
C4    O8    A    
C24   H20   S    
C39   C43   S    
Cu3   O5    S    
Cu1   Cu2   S    
C32   H31   S    
C50   N4    S    
C17   C21   S    
Cu4   O14   S    
C20   H8    S    
C19   C23   S    
Cu4   N3    S    
C13   C33   S    
C44   H40   S    
C1    O2    A    
C46   H58   S    
C16   H52   S    
C15   C27   S    
C47   C48   S    
C12   O16   A    
C4    C39   S    
C27   C40   S    
C52   H64   S    
C16   C34   S    
C50   H62   S    
Cu4   O8    S    
Cu2   O4    S    
C10   C34   S    
C14   C26   S    
C6    N2    S    
C1    C38   S    
C11   O13   A    
C3    C40   S    
C50   H46   S    
Cu2   O10   S    
C26   H14   S    
C31   C35   S    
C18   H54   S    
C11   O14   A    
C25   H13   S    
C22   H18   S    
C17   H5    S    
C6    H68   S    
Cu4   O16   S    
C27   H15   S    
C49   H61   S    
Cu1   O1    S    
C52   H48   S    
C32   C42   S    
C31   C41   S    
Cu2   N1    S    
C21   H9    S    
C18   C22   S    
C15   H3    S    
C48   H60   S    
C8    H70   S    
C23   H19   S    
C3    O6    A    
Cu1   O11   S    
C23   C38   S    
C45   H57   S    
C14   H50   S    
Cu3   N4    S    
C11   C35   S    
C29   H26   S    
C44   H39   S    
C45   H41   S    
C28   H16   S    
C22   C37   S    
C2    C37   S    
C12   O15   A    
Cu3   O7    S    
C46   N2    S    
C43   H37   S    
C42   H36   S    
C30   H28   S    
C28   H24   S    
C10   O12   A    
C24   H12   S    
C20   C36   S    
C40   C44   S    
C21   C37   S    
C52   N4    S    
C51   N3    S    
C49   C50   S    
Cu4   O6    S    
C18   H6    S    
C17   C35   S    
C25   C39   S    
C7    H69   S    
C51   H63   S    
