data_mof_unit_24465.cif
_audit_creation_date              2013-03-05T15:40:53-0500
_audit_creation_method            fapswitch 2.2
_symmetry_space_group_name_H-M    P1
_symmetry_Int_Tables_number       1
_space_group_crystal_system       triclinic
_cell_length_a                    27.949935
_cell_length_b                    18.763481
_cell_length_c                    16.751231
_cell_angle_alpha                 89.820728
_cell_angle_beta                  63.104443
_cell_angle_gamma                 89.679527
_cell_volume                      7834.61029863

loop_
_atom_site_label
_atom_site_type_symbol
_atom_site_description
_atom_site_fract_x
_atom_site_fract_y
_atom_site_fract_z
_atom_type_partial_charge
O1    O     O_R   0.255040 0.869590 0.478480 -0.495074
O2    O     O_R   0.744960 0.130410 0.521520 -0.484490
O3    O     O_R   0.744960 0.869590 0.521520 -0.470593
O4    O     O_R   0.255040 0.130410 0.478480 -0.482927
O5    O     O_R   0.755040 0.369590 0.478480 -0.498672
O6    O     O_R   0.244960 0.630410 0.521520 -0.478434
O7    O     O_R   0.244960 0.369590 0.521520 -0.494164
O8    O     O_R   0.755040 0.630410 0.478480 -0.475241
O9    O     O_R   0.182050 0.796550 0.624440 -0.515451
O10   O     O_R   0.817950 0.203450 0.375560 -0.503418
O11   O     O_R   0.817950 0.796550 0.375560 -0.522652
O12   O     O_R   0.182050 0.203450 0.624440 -0.516444
O13   O     O_R   0.682050 0.296550 0.624440 -0.526324
O14   O     O_R   0.317950 0.703450 0.375560 -0.514478
O15   O     O_R   0.317950 0.296550 0.375560 -0.522062
O16   O     O_R   0.682050 0.703450 0.624440 -0.508199
Cu1   Cu    Cu3+1 0.209920 0.785290 0.495070 1.155936
Cu2   Cu    Cu3+1 0.790080 0.214710 0.504930 1.151322
Cu3   Cu    Cu3+1 0.790080 0.785290 0.504930 1.126594
Cu4   Cu    Cu3+1 0.209920 0.214710 0.495070 1.151394
Cu5   Cu    Cu3+1 0.709920 0.285290 0.495070 1.150965
Cu6   Cu    Cu3+1 0.290080 0.714710 0.504930 1.142364
Cu7   Cu    Cu3+1 0.290080 0.285290 0.504930 1.151502
Cu8   Cu    Cu3+1 0.709920 0.714710 0.495070 1.143201
C1    C     C_R   0.293921 0.726370 0.328971 0.838077
C2    C     C_R   0.703572 0.267962 0.671611 0.824381
C3    C     C_R   0.703196 0.732490 0.672002 0.845951
C4    C     C_R   0.296384 0.268130 0.328479 0.843522
C5    C     C_R   0.792869 0.223965 0.330324 0.876805
C6    C     C_R   0.203669 0.768008 0.671619 0.862510
C7    C     C_R   0.207229 0.223885 0.669554 0.856419
C8    C     C_R   0.796336 0.768213 0.328136 0.850637
O17   O     O_R   0.250530 0.763330 0.367210 -0.562228
O18   O     O_R   0.749470 0.236670 0.632790 -0.600430
O19   O     O_R   0.749470 0.763330 0.632790 -0.584809
O20   O     O_R   0.250530 0.236670 0.367210 -0.577420
O21   O     O_R   0.750530 0.263330 0.367210 -0.567207
O22   O     O_R   0.249470 0.736670 0.632790 -0.579276
O23   O     O_R   0.249470 0.263330 0.632790 -0.570242
O24   O     O_R   0.750530 0.736670 0.367210 -0.574298
O25   O     O_R   0.177260 0.690030 0.513710 -0.614419
O26   O     O_R   0.822740 0.309970 0.486290 -0.610161
O27   O     O_R   0.822740 0.690030 0.486290 -0.626534
O28   O     O_R   0.177260 0.309970 0.513710 -0.614525
O29   O     O_R   0.677260 0.190030 0.513710 -0.592673
O30   O     O_R   0.322740 0.809970 0.486290 -0.628193
O31   O     O_R   0.322740 0.190030 0.486290 -0.590967
O32   O     O_R   0.677260 0.809970 0.513710 -0.633717
C9    C     C_R   0.199118 0.630942 0.518234 0.869509
C10   C     C_R   0.799107 0.368825 0.486449 0.833573
C11   C     C_R   0.803068 0.631554 0.472943 0.842265
C12   C     C_R   0.196241 0.368059 0.528811 0.815899
C13   C     C_R   0.696430 0.131769 0.528140 0.888614
C14   C     C_R   0.303477 0.868294 0.472342 0.825469
C15   C     C_R   0.303646 0.131822 0.471640 0.885532
C16   C     C_R   0.696401 0.868209 0.528242 0.856884
H1    H     H_    0.533716 0.756053 0.532302 0.175083
H2    H     H_    0.465586 0.243994 0.470768 0.171358
H3    H     H_    0.463521 0.755524 0.482984 0.173352
H4    H     H_    0.535480 0.244520 0.520738 0.173161
H5    H     H_    0.002948 0.271850 0.631166 0.196945
H6    H     H_    0.985383 0.728780 0.398471 0.167399
H7    H     H_    0.917410 0.273753 0.623399 0.187296
H8    H     H_    0.064120 0.731808 0.423333 0.207094
C17   C     C_R   0.057964 0.621835 0.467721 0.073013
C18   C     C_R   0.928638 0.379285 0.564879 0.076624
C19   C     C_R   0.965088 0.620244 0.444933 0.092836
C20   C     C_R   0.026811 0.377609 0.575473 0.072124
C21   C     C_R   0.541321 0.129446 0.524527 0.090520
C22   C     C_R   0.457876 0.870609 0.478743 0.072726
C23   C     C_R   0.458982 0.128927 0.472247 0.094754
C24   C     C_R   0.540374 0.871119 0.530616 0.072404
C25   C     C_R   0.041994 0.682717 0.436693 -0.134732
C26   C     C_R   0.943277 0.319927 0.600549 -0.137207
C27   C     C_R   0.996567 0.681414 0.423433 -0.181129
C28   C     C_R   0.992163 0.318825 0.604994 -0.122829
C29   C     C_R   0.520166 0.193936 0.511423 -0.117104
C30   C     C_R   0.478915 0.806107 0.492117 -0.129223
C31   C     C_R   0.480558 0.193634 0.482412 -0.118143
C32   C     C_R   0.518698 0.806408 0.520741 -0.124057
C33   C     C_R   0.979640 0.559859 0.479492 0.030733
C34   C     C_R   0.011258 0.438285 0.543195 0.031260
C35   C     C_R   0.026983 0.560253 0.489341 0.025795
C36   C     C_R   0.962571 0.438684 0.536447 0.033379
C37   C     C_R   0.478468 0.064436 0.488610 0.024880
C38   C     C_R   0.520766 0.935626 0.514501 0.033094
C39   C     C_R   0.521286 0.064657 0.511354 0.023736
C40   C     C_R   0.477910 0.935408 0.491857 0.033881
C41   C     C_R   0.456062 0.999820 0.480070 -0.001960
C42   C     C_R   0.543220 0.000247 0.522892 -0.000858
C43   C     C_R   0.947332 0.499097 0.502936 -0.006731
C44   C     C_R   0.043686 0.499205 0.519451 -0.005710
C45   C     C_R   0.387302 0.934186 0.457912 -0.028943
C46   C     C_R   0.612290 0.065869 0.544142 -0.016627
C47   C     C_R   0.611963 0.934913 0.546354 -0.037626
C48   C     C_R   0.387744 0.065142 0.455345 -0.018681
C49   C     C_R   0.867986 0.437385 0.514073 -0.029675
C50   C     C_R   0.122898 0.562838 0.507883 -0.039415
C51   C     C_R   0.111555 0.435972 0.548320 -0.027126
C52   C     C_R   0.883577 0.561466 0.463633 -0.042977
C53   C     C_R   0.336204 0.934439 0.457089 -0.223161
C54   C     C_R   0.663651 0.065624 0.543944 -0.205089
C55   C     C_R   0.663539 0.934701 0.544813 -0.205811
C56   C     C_R   0.336433 0.065339 0.455784 -0.192675
C57   C     C_R   0.824889 0.435740 0.490685 -0.235242
C58   C     C_R   0.169941 0.564091 0.521471 -0.212851
C59   C     C_R   0.164417 0.434924 0.541761 -0.221754
C60   C     C_R   0.832651 0.563690 0.464782 -0.208541
C61   C     C_R   0.312733 0.000003 0.453200 0.571708
C62   C     C_R   0.687322 0.000045 0.547177 0.599913
C63   C     C_R   0.806602 0.499461 0.469576 0.574897
C64   C     C_R   0.190184 0.499794 0.536860 0.571982
C65   C     C_R   0.410276 0.999697 0.464152 0.066371
C66   C     C_R   0.589222 0.000367 0.538171 0.064266
C67   C     C_R   0.899657 0.499192 0.493379 0.070674
C68   C     C_R   0.092659 0.499385 0.525804 0.069141
C69   C     C_R   0.582219 0.871982 0.554219 -0.148219
C70   C     C_R   0.417432 0.128059 0.447928 -0.100927
C71   C     C_R   0.416507 0.870973 0.453963 -0.156248
C72   C     C_R   0.582939 0.129065 0.548746 -0.095297
C73   C     C_R   0.076613 0.376578 0.577517 -0.153771
C74   C     C_R   0.918753 0.619567 0.433953 -0.160092
C75   C     C_R   0.880905 0.379932 0.556562 -0.165249
C76   C     C_R   0.104730 0.622411 0.476685 -0.104400
H9    H     H_    0.589776 0.822853 0.580010 0.191268
H10   H     H_    0.410128 0.177195 0.421853 0.173365
H11   H     H_    0.409445 0.821144 0.429674 0.191112
H12   H     H_    0.590320 0.178895 0.572641 0.176056
H13   H     H_    0.086520 0.330156 0.605538 0.181376
H14   H     H_    0.911444 0.664178 0.399883 0.179579
H15   H     H_    0.853789 0.335964 0.586060 0.164522
H16   H     H_    0.126649 0.670096 0.453158 0.244019
C77   C     C_R   0.235666 0.787937 0.935123 -0.022845
C78   C     C_R   0.782347 0.232819 0.042165 -0.028758
C79   C     C_R   0.768834 0.785669 0.056795 -0.023258
C80   C     C_R   0.218543 0.231413 0.957090 -0.029553
C81   C     C_R   0.725944 0.272282 0.946629 -0.027148
C82   C     C_R   0.293329 0.752336 0.030475 -0.029881
C83   C     C_R   0.275012 0.271269 0.052305 -0.026929
C84   C     C_R   0.707737 0.755012 0.964758 -0.024429
C85   C     C_R   0.278334 0.738177 0.899438 0.070444
C86   C     C_R   0.733197 0.269636 0.084954 0.073811
C87   C     C_R   0.729751 0.731525 0.088148 0.064812
C88   C     C_R   0.267392 0.268473 0.914135 0.075457
C89   C     C_R   0.770087 0.225332 0.908088 0.067890
C90   C     C_R   0.247659 0.796583 0.068822 0.071571
C91   C     C_R   0.231309 0.224023 0.090889 0.067300
C92   C     C_R   0.748397 0.807125 0.930540 0.072196
C93   C     C_R   0.312419 0.729667 0.941294 -0.091224
C94   C     C_R   0.710952 0.300319 0.032405 -0.107372
C95   C     C_R   0.694514 0.723296 0.048696 -0.101280
C96   C     C_R   0.289685 0.299186 0.966468 -0.104978
C97   C     C_R   0.803579 0.216251 0.950531 -0.081787
C98   C     C_R   0.224766 0.823409 0.015243 -0.104186
C99   C     C_R   0.197758 0.214562 0.048587 -0.091171
C100  C     C_R   0.774727 0.828134 0.982752 -0.099421
C101  C     C_R   0.164277 0.856964 0.923487 -0.179942
C102  C     C_R   0.862744 0.185457 0.046377 -0.145027
C103  C     C_R   0.836450 0.857443 0.075315 -0.184021
C104  C     C_R   0.138206 0.183788 0.953252 -0.144824
C105  C     C_R   0.659215 0.348121 0.931416 -0.179489
C106  C     C_R   0.368211 0.692479 0.041246 -0.152874
C107  C     C_R   0.341303 0.347483 0.067444 -0.176046
C108  C     C_R   0.633508 0.691067 0.956899 -0.155473
C109  C     C_R   0.126429 0.862963 0.888166 -0.165836
C110  C     C_R   0.886897 0.157012 0.098648 -0.103791
C111  C     C_R   0.873903 0.863356 0.111468 -0.159954
C112  C     C_R   0.113772 0.156046 0.901067 -0.102491
C113  C     C_R   0.624856 0.360439 0.890373 -0.166861
C114  C     C_R   0.388688 0.659284 0.096653 -0.117893
C115  C     C_R   0.375242 0.360394 0.109257 -0.165275
C116  C     C_R   0.611848 0.659181 0.902555 -0.121180
C117  C     C_R   0.136421 0.825503 0.809801 0.551187
C118  C     C_R   0.864558 0.173538 0.189945 0.574281
C119  C     C_R   0.863725 0.826081 0.190144 0.550136
C120  C     C_R   0.135983 0.172959 0.809874 0.565061
C121  C     C_R   0.636528 0.326493 0.809075 0.545731
C122  C     C_R   0.364970 0.674613 0.188556 0.566181
C123  C     C_R   0.363297 0.326860 0.191048 0.545574
C124  C     C_R   0.633923 0.677200 0.811358 0.570120
C125  C     C_R   0.181025 0.780402 0.769394 -0.176088
C126  C     C_R   0.813164 0.203883 0.234680 -0.213171
C127  C     C_R   0.819734 0.780472 0.229449 -0.174003
C128  C     C_R   0.187202 0.203332 0.765104 -0.205686
C129  C     C_R   0.679989 0.279377 0.769705 -0.174323
C130  C     C_R   0.316172 0.711688 0.230611 -0.208782
C131  C     C_R   0.320211 0.279538 0.230210 -0.176716
C132  C     C_R   0.676239 0.726094 0.772195 -0.201461
C133  C     C_R   0.209078 0.759081 0.818649 -0.079991
C134  C     C_R   0.782952 0.215814 0.186286 -0.064323
C135  C     C_R   0.794157 0.757412 0.176829 -0.079716
C136  C     C_R   0.217538 0.214838 0.813270 -0.063804
C137  C     C_R   0.705367 0.253601 0.821301 -0.082506
C138  C     C_R   0.290557 0.734510 0.177409 -0.065703
C139  C     C_R   0.295501 0.253276 0.178122 -0.077855
C140  C     C_R   0.695637 0.760768 0.827981 -0.071852
C141  C     C_R   0.202822 0.801108 0.892510 -0.020067
C142  C     C_R   0.809675 0.211909 0.091609 -0.004236
C143  C     C_R   0.800326 0.799536 0.102228 -0.022249
C144  C     C_R   0.191099 0.210497 0.907886 -0.006951
C145  C     C_R   0.696493 0.291021 0.899937 -0.019869
C146  C     C_R   0.318090 0.727661 0.082996 -0.012454
C147  C     C_R   0.304318 0.290361 0.099089 -0.018624
C148  C     C_R   0.679412 0.734823 0.915906 -0.017078
C149  C     C_R   0.166451 0.905320 0.986875 0.283249
C150  C     C_R   0.888822 0.187625 0.950855 0.293265
C151  C     C_R   0.831167 0.909187 0.017828 0.289754
C152  C     C_R   0.112533 0.185458 0.048792 0.286002
C153  C     C_R   0.658569 0.390498 0.002363 0.277292
C154  C     C_R   0.394881 0.691079 0.945624 0.283206
C155  C     C_R   0.341890 0.389399 0.995860 0.276211
C156  C     C_R   0.610661 0.683482 0.051598 0.294714
C157  C     C_R   0.192188 0.884607 0.038325 0.520758
C158  C     C_R   0.857831 0.195887 0.904379 0.559637
C159  C     C_R   0.802665 0.893054 0.969332 0.519873
C160  C     C_R   0.143759 0.193563 0.094849 0.571121
C161  C     C_R   0.678186 0.361292 0.059198 0.521429
C162  C     C_R   0.364856 0.701823 0.897712 0.553636
C163  C     C_R   0.322261 0.360019 0.939321 0.523543
C164  C     C_R   0.643614 0.691486 0.094296 0.554464
C165  C     C_R   0.244065 0.698729 0.796199 0.318267
C166  C     C_R   0.727018 0.231718 0.227693 0.352132
C167  C     C_R   0.762427 0.694840 0.195717 0.318926
C168  C     C_R   0.273391 0.230667 0.771609 0.350745
C169  C     C_R   0.740174 0.192978 0.797143 0.306878
C170  C     C_R   0.237419 0.761756 0.214112 0.372916
C171  C     C_R   0.261427 0.192368 0.202196 0.318532
C172  C     C_R   0.730274 0.820689 0.800686 0.312439
C173  C     C_R   0.281311 0.692971 0.830824 -0.155389
C174  C     C_R   0.705064 0.267303 0.178338 -0.143532
C175  C     C_R   0.728881 0.684849 0.154675 -0.147881
C176  C     C_R   0.295282 0.266237 0.820704 -0.147122
C177  C     C_R   0.775964 0.184509 0.834274 -0.153101
C178  C     C_R   0.220672 0.802354 0.161649 -0.142942
C179  C     C_R   0.225912 0.183315 0.164748 -0.138126
C180  C     C_R   0.759368 0.838482 0.847454 -0.175544
H17   H     H_    0.308330 0.647682 0.811668 0.239048
H18   H     H_    0.663340 0.283642 0.211234 0.211738
H19   H     H_    0.705147 0.636793 0.169917 0.240953
H20   H     H_    0.336876 0.282599 0.787512 0.212537
H21   H     H_    0.803985 0.140268 0.812677 0.242234
H22   H     H_    0.180534 0.824717 0.192970 0.215300
H23   H     H_    0.198463 0.138797 0.186312 0.240161
H24   H     H_    0.790166 0.878068 0.817468 0.243148
O33   O     O_R   0.051640 0.926880 0.885090 -0.517176
O34   O     O_R   0.948360 0.073120 0.114910 -0.507994
O35   O     O_R   0.948360 0.926880 0.114910 -0.517248
O36   O     O_R   0.051640 0.073120 0.885090 -0.508173
O37   O     O_R   0.551640 0.426880 0.885090 -0.516249
O38   O     O_R   0.448360 0.573120 0.114910 -0.499116
O39   O     O_R   0.448360 0.426880 0.114910 -0.515964
O40   O     O_R   0.551640 0.573120 0.885090 -0.497790
Cu9   Cu    Cu3+1 0.495240 0.500000 0.924150 1.218432
Cu10  Cu    Cu3+1 0.504760 0.500000 0.075850 1.221611
Cu11  Cu    Cu3+1 0.995240 0.000000 0.924150 1.202506
Cu12  Cu    Cu3+1 0.004760 0.000000 0.075850 1.209375
C181  C     C_R   0.922990 0.908078 0.069542 0.856563
C182  C     C_R   0.071159 0.100592 0.935858 0.909242
C183  C     C_R   0.077026 0.907785 0.930513 0.853353
C184  C     C_R   0.929098 0.100886 0.063883 0.909041
C185  C     C_R   0.423412 0.407120 0.068965 0.845780
C186  C     C_R   0.571643 0.600176 0.935470 0.899751
C187  C     C_R   0.576562 0.407056 0.931052 0.845866
C188  C     C_R   0.429198 0.600945 0.063693 0.896103
O41   O     O_R   0.940620 0.926560 0.986760 -0.591220
O42   O     O_R   0.059380 0.073440 0.013240 -0.551235
O43   O     O_R   0.059380 0.926560 0.013240 -0.589032
O44   O     O_R   0.940620 0.073440 0.986760 -0.551306
O45   O     O_R   0.440620 0.426560 0.986760 -0.584704
O46   O     O_R   0.559380 0.573440 0.013240 -0.552644
O47   O     O_R   0.559380 0.426560 0.013240 -0.585100
O48   O     O_R   0.440620 0.573440 0.986760 -0.555384
F1    F     F_    0.265128 0.000220 0.449549 -0.583406
F2    F     F_    0.735212 0.999823 0.549841 -0.560042
F3    F     F_    0.762844 0.499294 0.454114 -0.579976
F4    F     F_    0.236323 0.500028 0.545326 -0.584077
F5    F     F_    0.103455 0.834244 0.770684 -0.619312
F6    F     F_    0.892797 0.158088 0.235995 -0.585685
F7    F     F_    0.895844 0.835630 0.230563 -0.624341
F8    F     F_    0.107708 0.158001 0.763957 -0.594789
F9    F     F_    0.606139 0.340535 0.766358 -0.620603
F10   F     F_    0.388880 0.650599 0.238461 -0.593508
F11   F     F_    0.393106 0.341522 0.234408 -0.621065
F12   F     F_    0.614845 0.644904 0.759092 -0.596715
N1    N     N_R   0.153149 0.979199 0.985984 0.141092
O49   O     O_R   0.136461 0.017445 0.058402 -0.280687
O50   O     O_R   0.167528 0.011080 0.909495 -0.410569
N2    N     N_R   0.946438 0.191103 0.901349 0.145195
O51   O     O_R   0.971359 0.165000 0.820848 -0.236030
O52   O     O_R   0.974004 0.224749 0.934458 -0.344301
N3    N     N_R   0.844468 0.982335 0.022429 0.143279
O53   O     O_R   0.860359 0.023165 0.952195 -0.288957
O54   O     O_R   0.830978 0.011208 0.100272 -0.406442
N4    N     N_R   0.054951 0.189300 0.098915 0.152314
O55   O     O_R   0.030381 0.162162 0.178921 -0.208694
O56   O     O_R   0.027043 0.223991 0.066775 -0.336572
N5    N     N_R   0.649250 0.466196 0.005253 0.148226
O57   O     O_R   0.630043 0.500727 0.080746 -0.256129
O58   O     O_R   0.666008 0.502048 0.930898 -0.416972
N6    N     N_R   0.452590 0.689423 0.897083 0.149665
O59   O     O_R   0.476675 0.661506 0.817480 -0.224445
O60   O     O_R   0.481293 0.720671 0.929842 -0.349762
N7    N     N_R   0.351152 0.465035 0.991869 0.153760
O61   O     O_R   0.370831 0.498853 0.915779 -0.258129
O62   O     O_R   0.334278 0.501560 0.065658 -0.395462
N8    N     N_R   0.553294 0.682701 0.105832 0.155890
O63   O     O_R   0.531886 0.651452 0.183640 -0.220602
O64   O     O_R   0.522276 0.716864 0.079521 -0.338369
F13   F     F_    0.192136 0.929483 0.101921 -0.604815
F14   F     F_    0.882456 0.194695 0.813441 -0.640713
F15   F     F_    0.794738 0.946497 0.921628 -0.614753
F16   F     F_    0.119355 0.191829 0.185760 -0.608674
F17   F     F_    0.673586 0.398916 0.131539 -0.601186
F18   F     F_    0.389388 0.695433 0.807144 -0.615321
F19   F     F_    0.326734 0.397458 0.866703 -0.600643
F20   F     F_    0.622253 0.680218 0.183977 -0.609729
N9    N     N_R   0.237369 0.638467 0.749093 0.148507
O65   O     O_R   0.190027 0.622252 0.757750 -0.341211
O66   O     O_R   0.277330 0.595383 0.704876 -0.278344
N10   N     N_R   0.690747 0.199891 0.311477 0.134005
O67   O     O_R   0.700395 0.136120 0.331620 -0.377051
O68   O     O_R   0.644606 0.229685 0.361428 -0.370934
N11   N     N_R   0.768708 0.636918 0.246901 0.143831
O69   O     O_R   0.815469 0.623021 0.242721 -0.351376
O70   O     O_R   0.729387 0.593005 0.289689 -0.271689
N12   N     N_R   0.309731 0.198694 0.687839 0.135375
O71   O     O_R   0.299954 0.135361 0.667448 -0.377199
O72   O     O_R   0.356035 0.227714 0.638218 -0.368772
N13   N     N_R   0.734558 0.135051 0.745739 0.156672
O73   O     O_R   0.687801 0.120284 0.750832 -0.335476
O74   O     O_R   0.774586 0.092023 0.701728 -0.259597
N14   N     N_R   0.195845 0.730065 0.291462 0.113760
O75   O     O_R   0.195226 0.661213 0.301367 -0.397984
O76   O     O_R   0.155603 0.768793 0.345771 -0.410570
N15   N     N_R   0.267542 0.134772 0.254032 0.146765
O77   O     O_R   0.314352 0.120612 0.249508 -0.360566
O78   O     O_R   0.227992 0.091448 0.297934 -0.274586
N16   N     N_R   0.729207 0.871407 0.736808 0.159298
O79   O     O_R   0.770877 0.910758 0.690159 -0.258076
O80   O     O_R   0.684280 0.885316 0.734097 -0.336754

loop_
_geom_bond_atom_site_label_1
_geom_bond_atom_site_label_2
_geom_bond_distance
_ccdc_geom_bond_type
C140  C172  1.420862 A    
O37   Cu9   1.960532 S    
Cu2   Cu5   2.664781 S    
N13   O74   1.301698 A    
C59   C64   1.400948 A    
N3    O53   1.301441 A    
C90   C178  1.391967 A    
C105  C145  1.416168 A    
N7    O62   1.301616 A    
C107  C147  1.418249 A    
C114  C122  1.403400 A    
C79   C143  1.425324 A    
C2    C129  1.483617 S    
C38   C40   1.410581 A    
C139  C147  1.413740 A    
Cu11  O44   1.966299 S    
Cu6   O22   1.961203 S    
C83   C96   1.405098 A    
C137  C145  1.413454 A    
C6    O22   1.283819 A    
C157  F13   1.359459 S    
C108  C148  1.415227 A    
C33   C35   1.405640 A    
C62   F2    1.359261 S    
O3    Cu3   1.957788 S    
N12   O71   1.301578 A    
C36   C43   1.410093 A    
C153  N5    1.439611 S    
C140  C148  1.416185 A    
C91   C99   1.420167 A    
C178  H22   1.083274 S    
C51   C73   1.418312 A    
C49   C57   1.425776 A    
C150  C158  1.410058 A    
C87   C95   1.421875 A    
H5    C28   1.083586 S    
C25   C27   1.384783 A    
C52   C67   1.417300 A    
C98   C157  1.403457 A    
C152  N4    1.441124 S    
O35   C181  1.302615 A    
C29   C31   1.395912 A    
C41   C65   1.420389 A    
C110  C118  1.400626 A    
N11   O69   1.301755 A    
C181  O41   1.291020 A    
C38   C42   1.404702 A    
C4    C131  1.485470 S    
C45   C53   1.434466 A    
C51   C68   1.416807 A    
N15   O78   1.301694 A    
C106  C154  1.428934 A    
C3    O19   1.294789 A    
N7    O61   1.301679 A    
C90   C98   1.407655 A    
C13   C54   1.497002 S    
C123  F11   1.359681 S    
O12   Cu4   1.954348 S    
C164  F20   1.358638 S    
N8    O63   1.301600 A    
O13   Cu5   1.954872 S    
O37   C187  1.302639 A    
C156  N8    1.441789 S    
C44   C68   1.420125 A    
C179  H23   1.082298 S    
H2    C31   1.083649 S    
C34   C36   1.415517 A    
C48   C56   1.430787 A    
H6    C27   1.084089 S    
C173  H17   1.081965 S    
C135  C167  1.421437 A    
N6    O59   1.301508 A    
C119  C127  1.397647 A    
C133  C141  1.411413 A    
C120  C128  1.404196 A    
C77   C141  1.415123 A    
C16   C55   1.495281 S    
O39   Cu10  1.969983 S    
O2    C13   1.310097 A    
C20   C73   1.407798 A    
C103  C151  1.418802 A    
C9    C58   1.487418 S    
H7    C26   1.083684 S    
C50   C58   1.432607 A    
C60   C63   1.394738 A    
C139  C171  1.427419 A    
C153  C161  1.404632 A    
C137  C169  1.427727 A    
N1    O50   1.301165 A    
Cu3   O19   1.961055 S    
C82   C146  1.418461 A    
C138  C170  1.418618 A    
C108  C156  1.423931 A    
C102  C142  1.413443 A    
C103  C111  1.431832 A    
C104  C112  1.431238 A    
C99   C160  1.407205 A    
C80   C144  1.413925 A    
N15   O77   1.301784 A    
C122  C130  1.401296 A    
O5    Cu5   1.967758 S    
C40   C41   1.404248 A    
C46   C54   1.434022 A    
C111  C181  1.489014 S    
C53   C61   1.406114 A    
N10   O68   1.301703 A    
O40   Cu9   1.969983 S    
O6    Cu6   1.967756 S    
C122  F10   1.359487 S    
C14   C53   1.497201 S    
C21   C29   1.403505 A    
C118  C126  1.403145 A    
C23   C31   1.403255 A    
C121  C129  1.399623 A    
C47   C69   1.419044 A    
C42   C66   1.420026 A    
C50   C76   1.417929 A    
O33   Cu11  1.960532 S    
C26   C28   1.401633 A    
C106  C146  1.411938 A    
C55   C62   1.407103 A    
N3    O54   1.301269 A    
O10   Cu2   1.954872 S    
O7    C12   1.311441 A    
C84   C148  1.425260 A    
C159  F15   1.358649 S    
Cu9   Cu10  2.672088 S    
C30   C32   1.395989 A    
C160  F16   1.358532 S    
C78   C97   1.407744 A    
Cu9   O48   1.966299 S    
C18   C26   1.406002 A    
Cu10  O47   1.966302 S    
C113  C187  1.486528 S    
C76   H16   1.056729 S    
C114  C188  1.486393 S    
C17   C76   1.381637 A    
C115  C185  1.491389 S    
C163  F19   1.358992 S    
C167  N11   1.440607 S    
C46   C72   1.420374 A    
C10   C57   1.468919 S    
H8    C25   1.077417 S    
C184  O44   1.289907 A    
C185  O45   1.288502 A    
O40   C186  1.309669 A    
C3    C132  1.501544 S    
C105  C113  1.429048 A    
O35   Cu12  1.969983 S    
O28   C12   1.289594 A    
O16   C3    1.308934 A    
C187  O47   1.289576 A    
O29   C13   1.284333 A    
N5    O58   1.301456 A    
H1    C32   1.083685 S    
C115  C123  1.402729 A    
H3    C30   1.083683 S    
C113  C121  1.402820 A    
Cu4   O28   1.962898 S    
C47   C55   1.430056 A    
Cu5   O29   1.970403 S    
C82   C93   1.406283 A    
C52   C60   1.415142 A    
Cu7   O31   1.962898 S    
C5    C126  1.486551 S    
C77   C98   1.403728 A    
Cu8   O32   1.962898 S    
O34   C184  1.304722 A    
N14   O75   1.301199 A    
C101  C109  1.430504 A    
C158  F14   1.358744 S    
C80   C99   1.407137 A    
C136  C144  1.415955 A    
C134  C166  1.424520 A    
C15   C56   1.495179 S    
C79   C100  1.418041 A    
C109  C183  1.490544 S    
N11   O70   1.301636 A    
C110  C184  1.485915 S    
C104  C152  1.427674 A    
Cu4   Cu7   2.677719 S    
O9    C6    1.304730 A    
O26   C10   1.283017 A    
O36   C182  1.308508 A    
O39   C185  1.306220 A    
O11   C8    1.311166 A    
C19   C33   1.410006 A    
N16   O80   1.301843 A    
O12   C7    1.303619 A    
O13   C2    1.302975 A    
C108  C116  1.435018 A    
C19   C27   1.393965 A    
C165  C173  1.405863 A    
C182  O42   1.288351 A    
C111  C119  1.401523 A    
C121  F9    1.359812 S    
C112  C120  1.400310 A    
C161  F17   1.358952 S    
C130  C138  1.435822 A    
C169  N13   1.441361 S    
C20   C28   1.405071 A    
C155  C163  1.406633 A    
C49   C67   1.407129 A    
O1    Cu1   1.967758 S    
C170  C178  1.391292 A    
C20   C34   1.407404 A    
O14   Cu6   1.954872 S    
C24   C32   1.403162 A    
C81   C145  1.410866 A    
C82   C90   1.407449 A    
O7    Cu7   1.957788 S    
O8    Cu8   1.957790 S    
C94   C161  1.403082 A    
C81   C94   1.405143 A    
C154  N6    1.441108 S    
C117  C125  1.398859 A    
C166  C174  1.398878 A    
C18   C75   1.402664 A    
N12   O72   1.301597 A    
C45   C71   1.420683 A    
C87   C175  1.406835 A    
C69   H9    1.076541 S    
C1    O17   1.285542 A    
C71   H11   1.075066 S    
O38   Cu10  1.960529 S    
C89   C177  1.401205 A    
C7    C128  1.487235 S    
C8    C127  1.494863 S    
O36   Cu11  1.969983 S    
O11   Cu3   1.954348 S    
C81   C89   1.409206 A    
C119  F7    1.359751 S    
C120  F8    1.359663 S    
N4    O55   1.301525 A    
C123  C131  1.400900 A    
C47   C66   1.414280 A    
C85   C173  1.402219 A    
C138  C146  1.417407 A    
C96   C163  1.404438 A    
C34   C44   1.403165 A    
C78   C142  1.410804 A    
N13   O73   1.301892 A    
O25   C9    1.281394 A    
N9    O66   1.301830 A    
C112  C182  1.490950 S    
C124  C132  1.406155 A    
C125  C133  1.426644 A    
C12   C59   1.492314 S    
C167  C175  1.404590 A    
N8    O64   1.301734 A    
C128  C136  1.427778 A    
C124  F12   1.359183 S    
C107  C115  1.433138 A    
C21   C39   1.400426 A    
C116  C124  1.405373 A    
C103  C143  1.414433 A    
C57   C63   1.403511 A    
C149  C157  1.402499 A    
C188  O48   1.288093 A    
Cu1   O17   1.961201 S    
C97   C158  1.406325 A    
Cu3   O27   1.962898 S    
C117  F5    1.359822 S    
C166  N10   1.438181 S    
C102  C150  1.427592 A    
C136  C168  1.424966 A    
C151  N3    1.435345 S    
C37   C41   1.404741 A    
C162  F18   1.358398 S    
Cu11  O41   1.973655 S    
C105  C153  1.425253 A    
C149  N1    1.434988 S    
C168  N12   1.438618 S    
N1    O49   1.301522 A    
C155  N7    1.439952 S    
C186  O46   1.288468 A    
C156  C164  1.407368 A    
C106  C114  1.431757 A    
C135  C143  1.420025 A    
O30   C14   1.283639 A    
C100  C159  1.412166 A    
C151  C159  1.405683 A    
C101  C149  1.421056 A    
C45   C65   1.415833 A    
C84   C95   1.412386 A    
C170  N14   1.422473 S    
Cu6   O30   1.970403 S    
Cu12  O43   1.966302 S    
O4    C15   1.311113 A    
C6    C125  1.483277 S    
C48   C65   1.414421 A    
C54   C62   1.406295 A    
C134  C142  1.416651 A    
C48   C70   1.419316 A    
C75   H15   1.079254 S    
C88   C176  1.398262 A    
C64   F4    1.359655 S    
C73   H13   1.080765 S    
C24   C38   1.400948 A    
C72   H12   1.075249 S    
C165  N9    1.441456 S    
C51   C59   1.431151 A    
C21   C72   1.394475 A    
C77   C85   1.413263 A    
Cu1   Cu6   2.664781 S    
C169  C177  1.404756 A    
C86   C94   1.407437 A    
Cu2   O26   1.970403 S    
Cu3   Cu8   2.677719 S    
C80   C88   1.408546 A    
C83   C147  1.413914 A    
N10   O67   1.301727 A    
O10   C5    1.299823 A    
O27   C11   1.294488 A    
O15   C4    1.306143 A    
C43   C67   1.412181 A    
C101  C141  1.418903 A    
C93   C162  1.407031 A    
O14   C1    1.309173 A    
O33   C183  1.301789 A    
C86   C174  1.397976 A    
C1    C130  1.500423 S    
Cu4   O20   1.961053 S    
Cu5   O21   1.961201 S    
C4    O20   1.290619 A    
C49   C75   1.422123 A    
C39   C42   1.404013 A    
C5    O21   1.288123 A    
C95   C164  1.409639 A    
C92   C100  1.431669 A    
C61   F1    1.359278 S    
C88   C96   1.410757 A    
C91   C179  1.401227 A    
C22   C30   1.403673 A    
N5    O57   1.301620 A    
C22   C40   1.400251 A    
C84   C92   1.412722 A    
C46   C66   1.415714 A    
C85   C93   1.423600 A    
C104  C144  1.415519 A    
C58   C64   1.401575 A    
C35   C44   1.409923 A    
C83   C91   1.410648 A    
O34   Cu12  1.960529 S    
C150  N2    1.441485 S    
N2    O52   1.301542 A    
C168  C176  1.399788 A    
C56   C61   1.406759 A    
C133  C165  1.427451 A    
C17   C35   1.393203 A    
C78   C86   1.407040 A    
C109  C117  1.402548 A    
C17   C25   1.405293 A    
C175  H19   1.081814 S    
C177  H21   1.082398 S    
C23   C37   1.400585 A    
C2    O18   1.285509 A    
C11   C60   1.486894 S    
C24   C69   1.393923 A    
C63   F3    1.359973 S    
N6    O60   1.301567 A    
C89   C97   1.417881 A    
O15   Cu7   1.954348 S    
O16   Cu8   1.954348 S    
C126  C134  1.427009 A    
C37   C39   1.410661 A    
H4    C29   1.083637 S    
C107  C155  1.425891 A    
Cu10  O46   1.973655 S    
C92   C180  1.409992 A    
O1    C14   1.310593 A    
O3    C16   1.310528 A    
C50   C68   1.414734 A    
C22   C71   1.394055 A    
O38   C188  1.305870 A    
C33   C43   1.399040 A    
Cu2   O18   1.961203 S    
O8    C11   1.303338 A    
O9    Cu1   1.954872 S    
C118  F6    1.359764 S    
C174  H18   1.083165 S    
Cu11  Cu12  2.672088 S    
C19   C74   1.388134 A    
Cu9   O45   1.973655 S    
O31   C15   1.290178 A    
O32   C16   1.290612 A    
Cu12  O42   1.973655 S    
C23   C70   1.393975 A    
C131  C139  1.425777 A    
C129  C137  1.425567 A    
O2    Cu2   1.967756 S    
C127  C135  1.432212 A    
O4    Cu4   1.957790 S    
C171  C179  1.404859 A    
C154  C162  1.412616 A    
N2    O51   1.301533 A    
C180  H24   1.076389 S    
N4    O56   1.301571 A    
C183  O43   1.292475 A    
Cu7   O23   1.961055 S    
C172  N16   1.440023 S    
C79   C87   1.411118 A    
Cu8   O24   1.961053 S    
C7    O23   1.292297 A    
C52   C74   1.403074 A    
C8    O24   1.290633 A    
O6    C9    1.307081 A    
C116  C186  1.497349 S    
N9    O65   1.301953 A    
O5    C10   1.297520 A    
Cu1   O25   1.970403 S    
C172  C180  1.402689 A    
C18   C36   1.402981 A    
C102  C110  1.426576 A    
N14   O76   1.300018 A    
C132  C140  1.434114 A    
C152  C160  1.411227 A    
N16   O79   1.301874 A    
C176  H20   1.083061 S    
C70   H10   1.076347 S    
C74   H14   1.081057 S    
C171  N15   1.441329 S    
