data_mof_unit_54296.cif
_audit_creation_date              2012-12-11T15:37:38-0500
_audit_creation_method            fapswitch 2.2
_symmetry_space_group_name_H-M    P1
_symmetry_Int_Tables_number       1
_space_group_crystal_system       triclinic
_cell_length_a                    17.391178
_cell_length_b                    24.342893
_cell_length_c                    14.94511
_cell_angle_alpha                 89.123304
_cell_angle_beta                  125.90631
_cell_angle_gamma                 90.670055
_cell_volume                      5124.12517818

loop_
_atom_site_label
_atom_site_type_symbol
_atom_type_description
_atom_site_fract_x
_atom_site_fract_y
_atom_site_fract_z
_atom_type_partial_charge
C1    C     C_R   0.850778 0.652401 0.906947 -0.131608
C2    C     C_R   0.181297 0.364046 0.092112 -0.126851
C3    C     C_R   0.145990 0.653471 0.091757 -0.146760
C4    C     C_R   0.810005 0.373086 0.907605 -0.110844
C5    C     C_R   0.350778 0.152401 0.906947 -0.131608
C6    C     C_R   0.681297 0.864046 0.092112 -0.126851
C7    C     C_R   0.645990 0.153471 0.091757 -0.146760
C8    C     C_R   0.310005 0.873086 0.907605 -0.110844
C9    C     C_3   0.422538 0.502400 0.368786 0.090886
C10   C     C_3   0.592924 0.502525 0.549168 0.096446
C11   C     C_3   0.922538 0.002400 0.368786 0.090886
C12   C     C_3   0.092924 0.002525 0.549168 0.096446
C13   C     C_R   0.655895 0.314046 0.900496 -0.158005
C14   C     C_R   0.204570 0.769365 0.100049 -0.151756
C15   C     C_R   0.332734 0.304723 0.098451 -0.167260
C16   C     C_R   0.785927 0.765062 0.898138 -0.163979
C17   C     C_R   0.155895 0.814046 0.900496 -0.158006
C18   C     C_R   0.704570 0.269365 0.100049 -0.151756
C19   C     C_R   0.832734 0.804723 0.098451 -0.167259
C20   C     C_R   0.285927 0.265062 0.898138 -0.163979
C21   C     C_R   0.103968 0.770306 0.900146 -0.187265
C22   C     C_R   0.756991 0.312771 0.100403 -0.173527
C23   C     C_R   0.888699 0.765090 0.098107 -0.167611
C24   C     C_R   0.230083 0.304777 0.898312 -0.181030
C25   C     C_R   0.603968 0.270306 0.900146 -0.187265
C26   C     C_R   0.256991 0.812771 0.100403 -0.173527
C27   C     C_R   0.388699 0.265090 0.098107 -0.167610
C28   C     C_R   0.730083 0.804777 0.898312 -0.181030
C29   C     C_R   0.134588 0.744129 0.999946 0.139036
C30   C     C_R   0.739011 0.331351 0.000610 0.140601
C31   C     C_R   0.858379 0.740530 0.998284 0.145450
C32   C     C_R   0.247490 0.320102 0.998684 0.144092
C33   C     C_R   0.634588 0.244129 0.999946 0.139036
C34   C     C_R   0.239011 0.831351 0.000610 0.140601
C35   C     C_R   0.358379 0.240530 0.998284 0.145450
C36   C     C_R   0.747489 0.820102 0.998684 0.144091
C37   C     C_R   0.105015 0.449149 0.627471 -0.150464
C38   C     C_R   0.123116 0.546672 0.543294 -0.199380
C39   C     C_R   0.118666 0.448033 0.545186 -0.169113
C40   C     C_R   0.096772 0.548140 0.613755 -0.225078
C41   C     C_R   0.605015 0.949149 0.627471 -0.150464
C42   C     C_R   0.623116 0.046672 0.543294 -0.199380
C43   C     C_R   0.618666 0.948033 0.545186 -0.169113
C44   C     C_R   0.596772 0.048140 0.613755 -0.225078
C45   C     C_R   0.113709 0.497299 0.491706 0.203993
C46   C     C_R   0.081486 0.498920 0.651295 0.201370
C47   C     C_R   0.613709 0.997299 0.491706 0.203993
C48   C     C_R   0.581486 0.998919 0.651295 0.201370
C49   C     C_R   0.903147 0.375323 0.092883 -0.137815
C50   C     C_R   0.047863 0.654141 0.909053 -0.000773
C51   C     C_R   0.088545 0.366826 0.907621 -0.176570
C52   C     C_R   0.946991 0.651929 0.091087 -0.126446
C53   C     C_R   0.403147 0.875323 0.092883 -0.137815
C54   C     C_R   0.547863 0.154141 0.909053 -0.000773
C55   C     C_R   0.588545 0.866826 0.907621 -0.176569
C56   C     C_R   0.446991 0.151928 0.091087 -0.126446
C57   C     C_R   0.049685 0.544559 0.305077 0.449304
C58   C     C_R   0.997542 0.454645 0.727321 0.429968
C59   C     C_R   0.024338 0.544701 0.754992 0.448216
C60   C     C_R   0.057155 0.453625 0.308161 0.432794
C61   C     C_R   0.549685 0.044559 0.305077 0.449303
C62   C     C_R   0.497542 0.954645 0.727321 0.429968
C63   C     C_R   0.524338 0.044701 0.754993 0.448215
C64   C     C_R   0.557155 0.953625 0.308161 0.432794
C65   C     C_R   0.736037 0.455228 0.704244 -0.187833
C66   C     C_R   0.268096 0.546552 0.248881 -0.126501
C67   C     C_R   0.270135 0.455412 0.256745 -0.171163
C68   C     C_R   0.736035 0.546774 0.708246 -0.133556
C69   C     C_R   0.236038 0.955228 0.704244 -0.187833
C70   C     C_R   0.768096 0.046552 0.248881 -0.126501
C71   C     C_R   0.770135 0.955412 0.256745 -0.171163
C72   C     C_R   0.236035 0.046774 0.708245 -0.133556
C73   C     C_R   0.884823 0.684026 0.998857 0.022769
C74   C     C_R   0.175393 0.349193 0.999473 0.049715
C75   C     C_R   0.109487 0.686490 0.000010 -0.018090
C76   C     C_R   0.813163 0.360629 0.000554 0.026562
C77   C     C_R   0.384823 0.184026 0.998857 0.022769
C78   C     C_R   0.675393 0.849193 0.999473 0.049714
C79   C     C_R   0.609487 0.186490 0.000010 -0.018090
C80   C     C_R   0.313163 0.860629 0.000554 0.026562
C81   C     C_R   0.075792 0.498443 0.374192 -0.246648
C82   C     C_R   0.037820 0.499187 0.710137 -0.243229
C83   C     C_R   0.575792 0.998443 0.374192 -0.246647
C84   C     C_R   0.537820 0.999187 0.710137 -0.243229
C85   C     C_R   0.683712 0.501490 0.652535 0.091846
C86   C     C_R   0.324556 0.501361 0.278973 0.083583
C87   C     C_R   0.183712 0.001490 0.652535 0.091845
C88   C     C_R   0.824556 0.001361 0.278973 0.083583
C89   C     C_3   0.515999 0.461488 0.525805 -0.237096
C90   C     C_3   0.499170 0.543643 0.391607 -0.241078
C91   C     C_3   0.490636 0.453586 0.408691 -0.243149
C92   C     C_3   0.524961 0.551341 0.509180 -0.240116
C93   C     C_3   0.015999 0.961488 0.525805 -0.237095
C94   C     C_3   0.999170 0.043644 0.391607 -0.241079
C95   C     C_3   0.990636 0.953586 0.408691 -0.243149
C96   C     C_3   0.024961 0.051341 0.509180 -0.240116
C97   C     C_3   0.447837 0.510112 0.484693 0.379253
C98   C     C_3   0.568793 0.494847 0.434215 0.380595
C99   C     C_3   0.947837 0.010112 0.484693 0.379253
C100  C     C_3   0.068794 0.994847 0.434215 0.380595
H1    H     H_    0.810504 0.665792 0.821705 0.085386
H2    H     H_    0.232497 0.350244 0.175698 0.080543
H3    H     H_    0.185341 0.666395 0.176647 0.100833
H4    H     H_    0.752643 0.365901 0.822496 0.089267
H5    H     H_    0.310504 0.165792 0.821705 0.085386
H6    H     H_    0.732497 0.850244 0.175698 0.080543
H7    H     H_    0.685341 0.166395 0.176647 0.100833
H8    H     H_    0.252643 0.865901 0.822496 0.089267
H9    H     H_    0.929321 0.370584 0.177903 0.160078
H10   H     H_    0.997505 0.668684 0.825249 0.113165
H11   H     H_    0.057373 0.355662 0.824040 0.158555
H12   H     H_    0.996622 0.666426 0.174191 0.147772
H13   H     H_    0.429321 0.870584 0.177903 0.160078
H14   H     H_    0.497505 0.168684 0.825249 0.113165
H15   H     H_    0.557373 0.855662 0.824040 0.158555
H16   H     H_    0.496622 0.166426 0.174191 0.147772
H17   H     H_    0.719509 0.413842 0.672637 0.092684
H18   H     H_    0.289960 0.589123 0.265262 0.103442
H19   H     H_    0.296099 0.414730 0.289034 0.091636
H20   H     H_    0.720271 0.589383 0.682497 0.093582
H21   H     H_    0.219509 0.913842 0.672637 0.092684
H22   H     H_    0.789960 0.089123 0.265262 0.103442
H23   H     H_    0.796099 0.914730 0.289034 0.091636
H24   H     H_    0.220271 0.089382 0.682497 0.093582
H25   H     H_    0.524617 0.428442 0.583077 0.132167
H26   H     H_    0.489735 0.576516 0.333673 0.133996
H27   H     H_    0.474855 0.414124 0.364629 0.129951
H28   H     H_    0.540103 0.590937 0.552622 0.132182
H29   H     H_    0.024617 0.928442 0.583077 0.132167
H30   H     H_    0.989735 0.076516 0.333673 0.133997
H31   H     H_    0.974855 0.914124 0.364628 0.129951
H32   H     H_    0.040103 0.090937 0.552622 0.132181
H33   H     H_    0.635549 0.330190 0.821692 0.107834
H34   H     H_    0.226182 0.752519 0.178880 0.109849
H35   H     H_    0.352967 0.319682 0.177283 0.106482
H36   H     H_    0.765119 0.749954 0.819212 0.108031
H37   H     H_    0.135549 0.830190 0.821692 0.107834
H38   H     H_    0.726181 0.252519 0.178880 0.109849
H39   H     H_    0.852967 0.819682 0.177283 0.106482
H40   H     H_    0.265119 0.249954 0.819212 0.108031
H41   H     H_    0.046834 0.753804 0.821330 0.116519
H42   H     H_    0.816703 0.327653 0.179280 0.119741
H43   H     H_    0.949284 0.750159 0.176542 0.105192
H44   H     H_    0.169520 0.319579 0.819518 0.118488
H45   H     H_    0.546834 0.253804 0.821330 0.116519
H46   H     H_    0.316703 0.827653 0.179280 0.119741
H47   H     H_    0.449284 0.250159 0.176542 0.105191
H48   H     H_    0.669520 0.819579 0.819518 0.118488
H49   H     H_    0.105064 0.410719 0.664745 0.162443
H50   H     H_    0.137054 0.585146 0.518845 0.192191
H51   H     H_    0.125360 0.408316 0.520199 0.188645
H52   H     H_    0.082899 0.588036 0.631165 0.189503
H53   H     H_    0.605064 0.910718 0.664745 0.162443
H54   H     H_    0.637054 0.085146 0.518845 0.192191
H55   H     H_    0.625360 0.908316 0.520199 0.188645
H56   H     H_    0.582899 0.088036 0.631165 0.189503
N1    N     N_R   0.892620 0.603790 0.941800 -0.041275
N2    N     N_R   0.107380 0.396210 0.058200 -0.042120
N3    N     N_R   0.107380 0.603790 0.058200 -0.048439
N4    N     N_R   0.892620 0.396210 0.941800 -0.041765
N5    N     N_R   0.392620 0.103790 0.941800 -0.041275
N6    N     N_R   0.607380 0.896210 0.058200 -0.042120
N7    N     N_R   0.607380 0.103790 0.058200 -0.048439
N8    N     N_R   0.392620 0.896210 0.941800 -0.041765
N9    N     N_R   0.952210 0.397600 0.057910 -0.042107
N10   N     N_R   0.047790 0.602400 0.942090 -0.045414
N11   N     N_R   0.047790 0.397600 0.942090 -0.045849
N12   N     N_R   0.952210 0.602400 0.057910 -0.037244
N13   N     N_R   0.452210 0.897600 0.057910 -0.042107
N14   N     N_R   0.547790 0.102400 0.942090 -0.045414
N15   N     N_R   0.547790 0.897600 0.942090 -0.045849
N16   N     N_R   0.452210 0.102400 0.057910 -0.037244
N17   N     N_R   0.026300 0.529110 0.206760 -0.114306
N18   N     N_R   0.973700 0.470890 0.793240 -0.138034
N19   N     N_R   0.973700 0.529110 0.793240 -0.117148
N20   N     N_R   0.026300 0.470890 0.206760 -0.128771
N21   N     N_R   0.526300 0.029110 0.206760 -0.114306
N22   N     N_R   0.473700 0.970890 0.793240 -0.138034
N23   N     N_R   0.473700 0.029110 0.793240 -0.117149
N24   N     N_R   0.526300 0.970890 0.206760 -0.128771
N25   N     N_R   0.818530 0.472270 0.792960 -0.043161
N26   N     N_R   0.181470 0.527730 0.207040 -0.043800
N27   N     N_R   0.181470 0.472270 0.207040 -0.061630
N28   N     N_R   0.818530 0.527730 0.792960 -0.039268
N29   N     N_R   0.318530 0.972270 0.792960 -0.043161
N30   N     N_R   0.681470 0.027730 0.207040 -0.043800
N31   N     N_R   0.681470 0.972270 0.207040 -0.061630
N32   N     N_R   0.318530 0.027730 0.792960 -0.039268
Ni1   Ni    Ni4+2 0.934150 0.565840 0.869060 0.203276
Ni2   Ni    Ni4+2 0.065850 0.434160 0.130940 0.198703
Ni3   Ni    Ni4+2 0.065850 0.565840 0.130940 0.219317
Ni4   Ni    Ni4+2 0.934150 0.434160 0.869060 0.186496
Ni5   Ni    Ni4+2 0.434150 0.065840 0.869060 0.203276
Ni6   Ni    Ni4+2 0.565850 0.934160 0.130940 0.198703
Ni7   Ni    Ni4+2 0.565850 0.065840 0.130940 0.219317
Ni8   Ni    Ni4+2 0.434150 0.934160 0.869060 0.186496
O1    O     O_3   0.050382 0.598630 0.331286 -0.647794
C101  C     C_3   0.963751 0.609031 0.316827 0.234183
H57   H     H_    0.947405 0.577377 0.358249 0.107861
H58   H     H_    0.903874 0.609954 0.227469 0.108849
C102  C     C_3   0.969631 0.664387 0.366530 -0.922592
H59   H     H_    0.989565 0.697046 0.331137 0.251136
H60   H     H_    0.899765 0.674558 0.348634 0.219830
H61   H     H_    0.023723 0.662988 0.457450 0.250652
O2    O     O_3   0.965936 0.407297 0.664322 -0.649445
C103  C     C_3   0.878262 0.389718 0.640810 0.275680
H62   H     H_    0.825522 0.423602 0.602073 0.106144
H63   H     H_    0.886880 0.375024 0.717046 0.095862
C104  C     C_3   0.839921 0.342451 0.559888 -0.921824
H64   H     H_    0.890585 0.307590 0.596566 0.256847
H65   H     H_    0.770700 0.328480 0.540526 0.210312
H66   H     H_    0.829480 0.356030 0.482163 0.266202
O3    O     O_3   0.069766 0.594835 0.775693 -0.651425
C105  C     C_3   0.169464 0.587988 0.854881 0.252904
H67   H     H_    0.199156 0.554105 0.834981 0.094752
H68   H     H_    0.187236 0.578851 0.938069 0.112913
C106  C     C_3   0.220653 0.640503 0.860820 -0.901913
H69   H     H_    0.195769 0.675741 0.883451 0.264686
H70   H     H_    0.298255 0.635702 0.924165 0.215889
H71   H     H_    0.207209 0.649313 0.779661 0.247833
O4    O     O_3   0.076963 0.399433 0.343086 -0.655921
C107  C     C_3   0.155761 0.381443 0.347392 0.259966
H72   H     H_    0.215693 0.411286 0.391374 0.091024
H73   H     H_    0.135209 0.374218 0.262943 0.117118
C108  C     C_3   0.190264 0.327091 0.410197 -0.940696
H74   H     H_    0.132395 0.296025 0.368681 0.264030
H75   H     H_    0.251452 0.312080 0.412460 0.213876
H76   H     H_    0.213147 0.332527 0.496243 0.252680
O5    O     O_3   0.550382 0.098629 0.331286 -0.647794
C109  C     C_3   0.463751 0.109031 0.316827 0.234184
H77   H     H_    0.447405 0.077377 0.358249 0.107861
H78   H     H_    0.403874 0.109954 0.227469 0.108849
C110  C     C_3   0.469631 0.164387 0.366530 -0.922592
H79   H     H_    0.489565 0.197046 0.331137 0.251135
H80   H     H_    0.399765 0.174558 0.348634 0.219830
H81   H     H_    0.523723 0.162988 0.457450 0.250652
O6    O     O_3   0.465936 0.907297 0.664322 -0.649446
C111  C     C_3   0.378262 0.889718 0.640810 0.275680
H82   H     H_    0.325522 0.923602 0.602072 0.106145
H83   H     H_    0.386879 0.875024 0.717046 0.095862
C112  C     C_3   0.339921 0.842450 0.559888 -0.921825
H84   H     H_    0.390585 0.807589 0.596568 0.256847
H85   H     H_    0.270701 0.828480 0.540526 0.210313
H86   H     H_    0.329482 0.856029 0.482164 0.266203
O7    O     O_3   0.569766 0.094835 0.775693 -0.651425
C113  C     C_3   0.669464 0.087988 0.854881 0.252905
H87   H     H_    0.699156 0.054105 0.834981 0.094752
H88   H     H_    0.687235 0.078851 0.938069 0.112913
C114  C     C_3   0.720653 0.140502 0.860820 -0.901914
H89   H     H_    0.695769 0.175741 0.883451 0.264686
H90   H     H_    0.798254 0.135702 0.924165 0.215889
H91   H     H_    0.707209 0.149313 0.779661 0.247833
O8    O     O_3   0.576963 0.899433 0.343086 -0.655921
C115  C     C_3   0.655761 0.881443 0.347392 0.259966
H92   H     H_    0.715693 0.911286 0.391374 0.091024
H93   H     H_    0.635208 0.874218 0.262943 0.117118
C116  C     C_3   0.690264 0.827091 0.410197 -0.940697
H94   H     H_    0.632395 0.796025 0.368681 0.264030
H95   H     H_    0.751452 0.812080 0.412460 0.213876
H96   H     H_    0.713147 0.832527 0.496242 0.252680
C117  C     C_3   0.379797 0.519062 0.515958 -1.019171
H97   H     H_    0.420706 0.522238 0.607043 0.254390
H98   H     H_    0.339307 0.557584 0.477235 0.255479
H99   H     H_    0.329647 0.484017 0.487555 0.246108
C118  C     C_3   0.640218 0.485980 0.408473 -1.042595
H100  H     H_    0.603208 0.486889 0.317676 0.258453
H101  H     H_    0.694967 0.518858 0.446823 0.254023
H102  H     H_    0.674511 0.445399 0.441352 0.250198
C119  C     C_3   0.879797 0.019062 0.515958 -1.019171
H103  H     H_    0.920706 0.022238 0.607043 0.254390
H104  H     H_    0.839307 0.057584 0.477235 0.255479
H105  H     H_    0.829647 0.984017 0.487555 0.246109
C120  C     C_3   0.140218 0.985980 0.408473 -1.042594
H106  H     H_    0.103208 0.986889 0.317676 0.258453
H107  H     H_    0.194967 0.018858 0.446822 0.254022
H108  H     H_    0.174511 0.945399 0.441352 0.250198

loop_
_geom_bond_atom_site_label_1
_geom_bond_atom_site_label_2
_ccdc_geom_bond_type
C16   C28   A    
C3    N3    A    
C10   C85   S    
C61   N21   A    
C69   N29   A    
C41   C43   A    
C102  H59   S    
C54   N14   A    
C51   N11   A    
C59   C82   A    
C70   C88   A    
C60   O4    S    
C120  H108  S    
N22   N23   A    
C15   C32   A    
C5    H5    S    
O2    C103  S    
C16   C31   A    
C40   C46   A    
N11   Ni4   S    
C105  H67   S    
C111  C112  S    
C114  H89   S    
O5    C109  S    
N12   Ni3   S    
C91   H27   S    
C71   H23   S    
C42   H54   S    
C24   H44   S    
C113  H88   S    
C112  H84   S    
C59   N19   A    
C19   C36   A    
N2    Ni2   S    
C32   C74   S    
O8    C115  S    
C64   N24   A    
N25   Ni4   S    
C103  H63   S    
C6    C78   A    
C15   H35   S    
C52   H12   S    
C98   C118  S    
C106  H71   S    
C96   C99   S    
C39   H51   S    
C50   H10   S    
C108  H76   S    
C63   N23   A    
C40   H52   S    
C109  C110  S    
C26   H46   S    
C116  H94   S    
C66   H18   S    
N18   Ni4   S    
C18   H38   S    
N7    N14   A    
N26   N27   A    
C72   N32   A    
C38   C45   A    
C115  H93   S    
N21   Ni7   S    
C34   C80   S    
N18   N19   A    
N5    N16   A    
C90   C92   S    
C26   C34   A    
N6    N15   A    
C20   C24   A    
C10   C89   S    
C114  H91   S    
C120  H107  S    
C50   N10   A    
C7    C79   A    
C51   C74   A    
C110  H81   S    
C101  H57   S    
C4    N4    A    
C47   C83   S    
C103  H62   S    
C89   C91   S    
C3    C75   A    
C110  H79   S    
C93   C99   S    
C119  H103  S    
C69   C87   A    
C97   C117  S    
C39   C45   A    
N7    Ni7   S    
C66   N26   A    
C10   C92   S    
C93   C95   S    
N23   Ni5   S    
C46   C82   S    
O7    C113  S    
C72   H24   S    
C95   H31   S    
C68   C85   A    
C102  H60   S    
C23   H43   S    
N8    N13   A    
C58   N18   A    
C21   C29   A    
C42   C44   A    
C93   H29   S    
C8    H8    S    
N1    N12   A    
C55   N15   A    
C118  H102  S    
C53   H13   S    
C92   C97   S    
C104  H64   S    
C41   H53   S    
C56   H16   S    
C4    C76   A    
C63   O7    S    
C111  H83   S    
C114  H90   S    
C28   H48   S    
C44   H56   S    
N3    Ni3   S    
N30   Ni7   S    
C65   H17   S    
C53   C80   A    
C43   H55   S    
C52   C73   A    
C8    N8    A    
N20   Ni2   S    
C117  H98   S    
C55   C78   A    
C95   C100  S    
C33   C79   S    
N29   N32   A    
C65   N25   A    
C14   H34   S    
C58   O2    S    
C27   C35   A    
C106  H69   S    
O3    C105  S    
N22   Ni8   S    
C35   C77   S    
C17   C21   A    
C56   C77   A    
C48   C84   S    
C89   C97   S    
C112  H85   S    
C92   H28   S    
C23   C31   A    
C7    N7    A    
C109  H78   S    
C67   H19   S    
C24   C32   A    
C64   C83   A    
N19   Ni1   S    
O4    C107  S    
C9    C86   S    
N14   Ni5   S    
C30   C76   S    
C60   C81   A    
C70   H22   S    
C15   C27   A    
C2    H2    S    
C69   H21   S    
C11   C88   S    
C2    N2    A    
N21   N24   A    
C37   H49   S    
N6    Ni6   S    
C101  C102  S    
C59   O3    S    
C108  H74   S    
C90   H26   S    
C49   C76   A    
N5    Ni5   S    
C94   H30   S    
N4    N9    A    
C14   C26   A    
C94   C96   S    
C110  H80   S    
N17   Ni3   S    
N4    Ni4   S    
C111  H82   S    
C67   N27   A    
C51   H11   S    
C57   N17   A    
C11   C94   S    
C27   H47   S    
C31   C73   S    
N32   Ni5   S    
C119  H104  S    
N31   Ni6   S    
C61   C83   A    
C91   C98   S    
C60   N20   A    
C102  H61   S    
C7    H7    S    
N2    N11   A    
C52   N12   A    
C25   H45   S    
N26   Ni3   S    
N29   Ni8   S    
C5    C77   A    
C16   H36   S    
N27   Ni2   S    
C1    H1    S    
C72   C87   A    
N24   Ni6   S    
C19   C23   A    
C49   H9    S    
C54   C79   A    
C118  H100  S    
N17   N20   A    
C3    H3    S    
C62   C84   A    
C113  H87   S    
C68   N28   A    
C67   C86   A    
C9    C97   S    
C22   C30   A    
C112  H86   S    
C57   O1    S    
C107  H73   S    
C18   C22   A    
C13   H33   S    
C49   N9    A    
C20   C35   A    
C104  H66   S    
C6    N6    A    
C57   C81   A    
C71   N31   A    
N15   Ni8   S    
C13   C25   A    
C105  C106  S    
C2    C74   A    
C9    C90   S    
C66   C86   A    
C117  H99   S    
C101  H58   S    
C61   O5    S    
N8    Ni8   S    
C65   C85   A    
N13   Ni6   S    
C29   C75   S    
C53   N13   A    
C106  H70   S    
C10   C98   S    
C63   C84   A    
C107  C108  S    
N3    N10   A    
C96   H32   S    
C100  C120  S    
C89   H25   S    
N10   Ni1   S    
C1    C73   A    
C5    N5    A    
C116  H96   S    
C115  H92   S    
C58   C82   A    
C62   N22   A    
N30   N31   A    
C105  H68   S    
C21   H41   S    
C109  H77   S    
C37   C39   A    
C118  H101  S    
C36   C78   S    
C50   C75   A    
C68   H20   S    
C38   C40   A    
C55   H15   S    
C103  C104  S    
C20   H40   S    
C12   C87   S    
C117  H97   S    
C62   O6    S    
C13   C30   A    
C22   H42   S    
N25   N28   A    
C54   H14   S    
C11   C99   S    
C1    N1    A    
C108  H75   S    
C41   C48   A    
C38   H50   S    
C4    H4    S    
C45   C81   S    
C42   C47   A    
C94   C100  S    
O1    C101  S    
C12   C93   S    
C18   C33   A    
N1    Ni1   S    
C12   C100  S    
N9    Ni2   S    
C70   N30   A    
C64   O8    S    
C71   C88   A    
C115  C116  S    
C11   C95   S    
C9    C91   S    
C28   C36   A    
C19   H39   S    
C17   C34   A    
C119  H105  S    
C99   C119  S    
C8    C80   A    
C104  H65   S    
N28   Ni1   S    
C12   C96   S    
N16   Ni7   S    
C17   H37   S    
C14   C29   A    
C116  H95   S    
C37   C46   A    
O6    C111  S    
C43   C47   A    
C107  H72   S    
C90   C98   S    
C56   N16   A    
C44   C48   A    
C25   C33   A    
C6    H6    S    
C113  C114  S    
C120  H106  S    
