data_mof_unit_23113.cif
_audit_creation_date              2013-03-05T16:34:52-0500
_audit_creation_method            fapswitch 2.2
_symmetry_space_group_name_H-M    P1
_symmetry_Int_Tables_number       1
_space_group_crystal_system       triclinic
_cell_length_a                    15.074187
_cell_length_b                    9.125321
_cell_length_c                    7.791022
_cell_angle_alpha                 90.131711
_cell_angle_beta                  90.000553
_cell_angle_gamma                 90.005639
_cell_volume                      1071.70518064

loop_
_atom_site_label
_atom_site_type_symbol
_atom_site_description
_atom_site_fract_x
_atom_site_fract_y
_atom_site_fract_z
_atom_type_partial_charge
O1    O     O_R   0.500000 0.288390 0.642760 -0.592465
O2    O     O_R   0.500000 0.711610 0.357240 -0.592391
O3    O     O_R   0.500000 0.711610 0.642760 -0.565348
O4    O     O_R   0.500000 0.288390 0.357240 -0.565345
C1    C     C_R   0.500238 0.219993 0.499879 0.873117
C2    C     C_R   0.500239 0.780007 0.500121 0.873284
O5    O     O_R   0.370260 0.500000 0.642800 -0.587146
O6    O     O_R   0.629740 0.500000 0.357200 -0.582968
O7    O     O_R   0.629740 0.500000 0.642800 -0.583032
O8    O     O_R   0.370260 0.500000 0.357200 -0.587950
C3    C     C_R   0.328387 0.499897 0.499977 0.928918
C4    C     C_R   0.671167 0.500006 0.500000 0.907311
Cu1   Cu    Cu3+1 0.500000 0.500000 0.669080 1.030359
Cu2   Cu    Cu3+1 0.500000 0.500000 0.330920 1.030191
N1    N     N_1   0.500000 0.500000 0.076820 -0.055568
N2    N     N_1   0.500000 0.500000 0.923180 -0.055484
C5    C     C_R   0.812429 0.630171 0.533058 0.416702
C6    C     C_R   0.186032 0.388935 0.412381 0.413362
C7    C     C_R   0.812416 0.369918 0.466707 0.416756
C8    C     C_R   0.186035 0.610933 0.587164 0.413787
C9    C     C_R   0.767131 0.500020 0.499986 -0.274842
C10   C     C_R   0.231623 0.499903 0.499852 -0.281106
C11   C     C_R   0.905361 0.373176 0.445326 -0.104718
C12   C     C_R   0.092819 0.621153 0.571301 -0.116759
C13   C     C_R   0.905405 0.627001 0.554109 -0.104897
C14   C     C_R   0.092780 0.378867 0.428025 -0.116784
C15   C     C_R   0.952384 0.500076 0.499688 -0.125080
C16   C     C_R   0.045994 0.500044 0.499638 -0.112399
C17   C     C_R   0.952225 0.253087 0.375320 0.382207
C18   C     C_R   0.045156 0.746285 0.628284 0.370728
C19   C     C_R   0.952345 0.747170 0.623830 0.381939
C20   C     C_R   0.045033 0.253830 0.370905 0.371133
C21   C     C_1   0.500437 0.065311 0.499834 -0.139213
C22   C     C_1   0.500438 0.934689 0.500166 -0.139332
Cl1   Cl    Cl    0.896764 0.106650 0.271009 -0.492377
Cl2   Cl    Cl    0.098491 0.910755 0.694342 -0.424000
Cl3   Cl    Cl    0.897000 0.894006 0.727582 -0.492292
Cl4   Cl    Cl    0.098198 0.089304 0.304596 -0.424162
O9    O     O_3   0.764940 0.759796 0.540859 -0.560516
C23   C     C_3   0.756600 0.814632 0.372218 -0.172289
H1    H     H_    0.712742 0.744097 0.292756 0.142032
H2    H     H_    0.822284 0.825825 0.308404 0.223487
H3    H     H_    0.725536 0.924526 0.377430 0.215871
O10   O     O_3   0.234670 0.287478 0.319510 -0.526432
C24   C     C_3   0.233211 0.328705 0.144938 -0.160223
H4    H     H_    0.262032 0.439365 0.126694 0.122326
H5    H     H_    0.164845 0.325915 0.091218 0.165317
H6    H     H_    0.274169 0.249975 0.070670 0.203618
O11   O     O_3   0.764969 0.240228 0.458982 -0.560331
C25   C     C_3   0.756574 0.185483 0.627658 -0.172197
H7    H     H_    0.712168 0.255515 0.706598 0.142094
H8    H     H_    0.822177 0.175253 0.692096 0.222796
H9    H     H_    0.726076 0.075134 0.622373 0.216610
O12   O     O_3   0.234648 0.711869 0.680874 -0.526331
C26   C     C_3   0.233002 0.669666 0.855116 -0.159845
H10   H     H_    0.276148 0.745281 0.929372 0.201935
H11   H     H_    0.259207 0.556986 0.872203 0.119633
H12   H     H_    0.164901 0.676621 0.909684 0.168311

loop_
_geom_bond_atom_site_label_1
_geom_bond_atom_site_label_2
_geom_bond_distance
_ccdc_geom_bond_type
C13   C19   1.412563 A    
C7    C11   1.411263 A    
C26   H10   1.109904 S    
C14   C20   1.419679 A    
C6    O10   1.383934 S    
C13   C15   1.421505 A    
C7    O11   1.383929 S    
C3    C10   1.458630 S    
C14   C16   1.424343 A    
O3    Cu1   1.942335 S    
C18   Cl2   1.777636 S    
O6    C4    1.275834 A    
O3    C2    1.275835 A    
C5    C13   1.411405 A    
C23   H2    1.112746 S    
C21   C22   1.191972 T    
Cu1   N2    1.979698 S    
C6    C10   1.399579 A    
C24   H4    1.108714 S    
O5    C3    1.279290 A    
C1    C21   1.411524 S    
O2    C2    1.274979 A    
O1    C1    1.274979 A    
C11   C17   1.412386 A    
C23   H1    1.110278 S    
C7    C9    1.393364 A    
C8    C10   1.399466 A    
C25   H7    1.110415 S    
C17   C20   1.399437 A    
C11   C15   1.421402 A    
C20   Cl4   1.777612 S    
C26   H11   1.109846 S    
C19   Cl3   1.772027 S    
O4    Cu2   1.942336 S    
C18   C19   1.399504 A    
O2    Cu2   1.941398 S    
O7    C4    1.275844 A    
C12   C18   1.419508 A    
C26   H12   1.112882 S    
C24   H6    1.109207 S    
C25   H9    1.107595 S    
O1    Cu1   1.941399 S    
O8    C3    1.278996 A    
N1    N2    1.197013 T    
O9    C23   1.412632 S    
C2    C22   1.411524 S    
O5    Cu1   1.966413 S    
O10   C24   1.412172 S    
C8    O12   1.383899 S    
O11   C25   1.412661 S    
C5    O9    1.383895 S    
C24   H5    1.112562 S    
C25   H8    1.113071 S    
C17   Cl1   1.771953 S    
O12   C26   1.412160 S    
O7    Cu1   1.966416 S    
Cu2   N1    1.979698 S    
O6    Cu2   1.966412 S    
Cu1   Cu2   2.634613 S    
C4    C9    1.446569 S    
C8    C12   1.413679 A    
C23   H3    1.107463 S    
C5    C9    1.393427 A    
C12   C16   1.424196 A    
O8    Cu2   1.966417 S    
O4    C1    1.275835 A    
C15   C16   1.411096 A    
C6    C14   1.413972 A    
