data_mof_unit_21453.cif
_audit_creation_date              2012-12-10T17:18:57-0500
_audit_creation_method            fapswitch 2.2
_symmetry_space_group_name_H-M    P1
_symmetry_Int_Tables_number       1
_space_group_crystal_system       triclinic
_cell_length_a                    10.320085
_cell_length_b                    10.345505
_cell_length_c                    13.898389
_cell_angle_alpha                 93.274694
_cell_angle_beta                  102.675117
_cell_angle_gamma                 94.811997
_cell_volume                      1438.25692054

loop_
_atom_site_label
_atom_site_type_symbol
_atom_type_description
_atom_site_fract_x
_atom_site_fract_y
_atom_site_fract_z
_atom_type_partial_charge
C1    C     C_R   0.047502 0.733789 0.488003 0.935841
C2    C     C_R   0.946424 0.264864 0.500068 0.931099
C3    C     C_R   0.418739 0.437785 0.124794 -0.238992
C4    C     C_R   0.505972 0.322827 0.891578 -0.234549
C5    C     C_R   0.288881 0.468769 0.092688 -0.250043
C6    C     C_R   0.640374 0.305178 0.924126 -0.241092
C7    C     C_2   0.058237 0.868476 0.463346 -0.395458
C8    C     C_2   0.913423 0.124972 0.481166 -0.396973
C9    C     C_2   0.951839 0.918695 0.408098 0.203311
C10   C     C_2   0.954182 0.059389 0.407789 0.210972
C11   C     C_2   0.436872 0.470422 0.527186 0.295978
C12   C     C_2   0.573064 0.467783 0.502146 0.278659
C13   C     C_R   0.093996 0.509399 0.685042 0.862712
C14   C     C_R   0.903647 0.483050 0.314926 0.841190
C15   C     C_R   0.138514 0.495148 0.790834 -0.060690
C16   C     C_R   0.843523 0.448760 0.210244 -0.064595
C17   C     C_R   0.113190 0.522628 0.959470 -0.218551
C18   C     C_R   0.846167 0.343416 0.050599 -0.205901
C19   C     C_R   0.066214 0.537138 0.859158 -0.193368
C20   C     C_R   0.913545 0.391236 0.146032 -0.221305
C21   C     C_R   0.251976 0.432038 0.822762 -0.278420
C22   C     C_R   0.707486 0.458321 0.178369 -0.272158
C23   C     C_R   0.305575 0.422745 0.922818 0.098812
C24   C     C_R   0.636352 0.402309 0.086349 0.097352
C25   C     C_R   0.234751 0.470054 0.992012 0.179081
C26   C     C_R   0.707877 0.349343 0.020074 0.176621
C27   C     C_R   0.434308 0.381075 0.955865 0.071513
C28   C     C_R   0.496870 0.406220 0.056818 0.071466
H1    H     H_    0.233793 0.499150 0.146555 0.144063
H2    H     H_    0.692745 0.261778 0.872839 0.147778
H3    H     H_    0.658193 0.511672 0.226427 0.161073
H4    H     H_    0.300111 0.394989 0.768449 0.156843
H5    H     H_    0.019088 0.381169 0.169986 0.159121
H6    H     H_    0.974931 0.582562 0.835343 0.161491
H7    H     H_    0.057926 0.557888 0.011826 0.149658
H8    H     H_    0.901710 0.301138 0.001074 0.147138
H9    H     H_    0.457145 0.438716 0.203231 0.148358
H10   H     H_    0.460428 0.288331 0.816092 0.146527
H11   H     H_    0.866679 0.073190 0.532560 0.124688
H12   H     H_    0.148772 0.930582 0.497580 0.128740
N1    N     N_2   0.322180 0.446120 0.460900 -0.052558
N2    N     N_2   0.677820 0.553880 0.539100 -0.046284
O1    O     O_R   0.935190 0.693030 0.507870 -0.589780
O2    O     O_R   0.064810 0.306970 0.492130 -0.582403
O3    O     O_R   0.142080 0.658430 0.482770 -0.595620
O4    O     O_R   0.857920 0.341570 0.517230 -0.604460
O5    O     O_R   0.969700 0.527180 0.651960 -0.597308
O6    O     O_R   0.030300 0.472820 0.348040 -0.615895
O7    O     O_R   0.176600 0.492580 0.626860 -0.609543
O8    O     O_R   0.823400 0.507420 0.373140 -0.619865
Zn1   Zn    Zn3+2 0.861850 0.523100 0.516760 0.927324
Zn2   Zn    Zn3+2 0.138150 0.476900 0.483240 0.924056
C29   C     C_3   0.001977 0.123486 0.325017 -0.834637
H13   H     H_    0.007234 0.049642 0.265093 0.226573
H14   H     H_    0.931118 0.192712 0.292602 0.230895
H15   H     H_    0.103496 0.174598 0.352063 0.252778
C30   C     C_3   0.829717 0.837597 0.346730 -0.830071
H16   H     H_    0.767267 0.898430 0.295607 0.226874
H17   H     H_    0.860114 0.759085 0.301093 0.222579
H18   H     H_    0.766641 0.795572 0.394560 0.256394
C31   C     C_3   0.587984 0.342147 0.446589 -0.841399
H19   H     H_    0.490035 0.291254 0.407782 0.202791
H20   H     H_    0.644488 0.358258 0.388907 0.264425
H21   H     H_    0.632202 0.273367 0.499726 0.244526
C32   C     C_3   0.439835 0.455961 0.633743 -0.879059
H22   H     H_    0.541072 0.440052 0.676098 0.210033
H23   H     H_    0.411077 0.545320 0.668071 0.255724
H24   H     H_    0.374661 0.366851 0.638053 0.239632
C33   C     C_3   0.659819 0.673392 0.591922 -0.705374
H25   H     H_    0.750057 0.742784 0.600080 0.234890
H26   H     H_    0.572981 0.719290 0.550510 0.192221
H27   H     H_    0.647024 0.654540 0.667200 0.204441
C34   C     C_3   0.322234 0.472085 0.359140 -0.684918
H28   H     H_    0.254241 0.547362 0.335918 0.243683
H29   H     H_    0.420008 0.512946 0.347933 0.172881
H30   H     H_    0.286521 0.381644 0.310347 0.198464

loop_
_geom_bond_atom_site_label_1
_geom_bond_atom_site_label_2
_ccdc_geom_bond_type
C4    H10   S    
C33   H27   S    
O5    Zn1   S    
C11   C12   S    
C8    H11   S    
C23   C27   A    
C31   H21   S    
C34   H28   S    
N2    C33   S    
N1    Zn2   S    
C9    C30   S    
C18   C26   A    
C15   C21   A    
N2    Zn1   S    
C16   C20   A    
O7    Zn2   S    
C17   C25   A    
C13   O5    A    
O2    Zn2   S    
C13   C15   S    
O8    Zn1   S    
C3    C5    A    
C1    O3    A    
C14   O8    A    
C29   H13   S    
C2    O4    A    
C15   C19   A    
C12   C31   S    
C34   H29   S    
O1    Zn1   S    
C30   H16   S    
C6    C26   A    
C18   H8    S    
C13   O7    A    
C20   H5    S    
C22   C24   A    
C4    C6    A    
C3    C28   A    
C17   C19   A    
C24   C26   A    
C11   N1    D    
C5    H1    S    
C33   H25   S    
C23   C25   A    
C21   C23   A    
C31   H19   S    
C21   H4    S    
C5    C25   A    
C30   H17   S    
C33   H26   S    
C22   H3    S    
C29   H14   S    
C12   N2    D    
C11   C32   S    
O6    Zn2   S    
C32   H24   S    
C34   H30   S    
C3    H9    S    
C18   C20   A    
C31   H20   S    
C32   H22   S    
C9    C10   S    
C29   H15   S    
C27   C28   A    
C7    C9    D    
C10   C29   S    
C14   O6    A    
C30   H18   S    
C16   C22   A    
C4    C27   A    
C17   H7    S    
O3    Zn2   S    
C6    H2    S    
C14   C16   S    
C1    C7    S    
C7    H12   S    
N1    C34   S    
O4    Zn1   S    
C1    O1    A    
C8    C10   D    
C2    C8    S    
C24   C28   A    
C2    O2    A    
C32   H23   S    
C19   H6    S    
