data_mof_unit_16420.cif
_audit_creation_date              2012-12-10T20:06:26-0500
_audit_creation_method            fapswitch 2.2
_symmetry_space_group_name_H-M    P1
_symmetry_Int_Tables_number       1
_space_group_crystal_system       triclinic
_cell_length_a                    19.290173
_cell_length_b                    18.429151
_cell_length_c                    10.754211
_cell_angle_alpha                 90.00003
_cell_angle_beta                  89.334171
_cell_angle_gamma                 90.000018
_cell_volume                      3822.88011455

loop_
_atom_site_label
_atom_site_type_symbol
_atom_type_description
_atom_site_fract_x
_atom_site_fract_y
_atom_site_fract_z
_atom_type_partial_charge
C1    C     C_R   0.365670 0.500018 0.502320 0.974880
C2    C     C_R   0.290460 0.499111 0.501759 -0.219200
C3    C     C_R   0.964046 0.475705 0.387976 -0.095044
C4    C     C_R   0.035855 0.476370 0.386035 -0.235111
C5    C     C_R   0.071874 0.478695 0.498111 0.146127
C6    C     C_R   0.928126 0.478695 0.501892 0.146127
C7    C     C_R   0.035953 0.475707 0.612026 -0.095044
C8    C     C_R   0.964145 0.476372 0.613967 -0.235112
C9    C     C_R   0.541259 0.725212 0.582054 0.634373
C10   C     C_R   0.458741 0.725212 0.417946 0.634377
C11   C     C_R   0.540005 0.802101 0.585097 -0.411208
C12   C     C_R   0.634330 0.500018 0.497680 0.974881
C13   C     C_R   0.459995 0.802101 0.414903 -0.411210
C14   C     C_R   0.500000 0.841171 0.500000 0.019911
C15   C     C_R   0.505508 0.500662 0.259694 0.916826
C16   C     C_R   0.494492 0.500662 0.740306 0.916826
C17   C     C_R   0.438591 0.961757 0.479285 -0.183332
C18   C     C_R   0.561409 0.961757 0.520715 -0.183331
C19   C     C_R   0.438581 0.037890 0.479339 -0.189838
C20   C     C_R   0.561419 0.037890 0.520661 -0.189838
C21   C     C_R   0.500000 0.077182 0.500000 0.123838
C22   C     C_R   0.500000 0.922521 0.500000 0.185380
C23   C     C_R   0.853187 0.488157 0.503596 -0.066088
C24   C     C_R   0.541823 0.197984 0.582513 -0.277042
C25   C     C_R   0.458177 0.197984 0.417487 -0.277042
C26   C     C_R   0.541030 0.274064 0.580939 0.028494
C27   C     C_R   0.458970 0.274064 0.419060 0.028493
C28   C     C_R   0.500000 0.158571 0.500000 0.122668
C29   C     C_R   0.531499 0.638018 0.114816 -0.017110
C30   C     C_R   0.468502 0.638019 0.885184 -0.017110
C31   C     C_R   0.517213 0.703552 0.056155 -0.163186
C32   C     C_R   0.482789 0.703552 0.943845 -0.163185
C33   C     C_R   0.488881 0.570745 0.938390 0.073989
C34   C     C_R   0.146812 0.488157 0.496406 -0.066087
C35   C     C_R   0.511119 0.570745 0.061610 0.073989
C36   C     C_R   0.510741 0.503391 0.126338 -0.071120
C37   C     C_R   0.489259 0.503391 0.873662 -0.071121
C38   C     C_R   0.504158 0.437760 0.062986 -0.212583
C39   C     C_R   0.495841 0.437760 0.937013 -0.212584
C40   C     C_R   0.741271 0.448130 0.575443 -0.246017
C41   C     C_R   0.258729 0.448129 0.424559 -0.246018
C42   C     C_R   0.812558 0.441851 0.576596 -0.234302
C43   C     C_R   0.187441 0.441850 0.423406 -0.234303
C44   C     C_3   0.642341 0.716069 0.698761 -0.301685
C45   C     C_R   0.822340 0.542957 0.431354 0.434460
C46   C     C_3   0.357660 0.716068 0.301238 -0.301682
C47   C     C_3   0.878661 0.650497 0.443478 -0.258120
C48   C     C_3   0.121340 0.650498 0.556520 -0.258121
C49   C     C_R   0.177660 0.542958 0.568647 0.434459
C50   C     C_R   0.749890 0.545720 0.421886 0.301023
C51   C     C_R   0.250110 0.545721 0.578114 0.301032
C52   C     C_R   0.709540 0.499111 0.498241 -0.219199
H1    H     H_    0.505270 0.385978 0.110687 0.170549
H2    H     H_    0.425808 0.170363 0.350940 0.134607
H3    H     H_    0.573134 0.304088 0.644750 0.121467
H4    H     H_    0.426866 0.304088 0.355249 0.121467
H5    H     H_    0.559743 0.641650 0.200434 0.227429
H6    H     H_    0.440258 0.641650 0.799566 0.227428
H7    H     H_    0.531426 0.754359 0.099507 0.151030
H8    H     H_    0.468576 0.754360 0.900493 0.151029
H9    H     H_    0.710570 0.412030 0.633559 0.174697
H10   H     H_    0.289429 0.412028 0.366444 0.174697
H11   H     H_    0.836067 0.400196 0.633363 0.168093
H12   H     H_    0.494729 0.385978 0.889312 0.170549
H13   H     H_    0.163932 0.400195 0.366641 0.168093
H14   H     H_    0.936468 0.475521 0.300795 0.170318
H15   H     H_    0.063171 0.478024 0.297496 0.152051
H16   H     H_    0.063532 0.475524 0.699208 0.170319
H17   H     H_    0.936828 0.478026 0.702507 0.152051
H18   H     H_    0.633661 0.755643 0.775269 0.164355
H19   H     H_    0.669443 0.741949 0.618271 0.144141
H20   H     H_    0.677152 0.673179 0.734640 0.201902
H21   H     H_    0.366340 0.755643 0.224730 0.164353
H22   H     H_    0.330557 0.741949 0.381727 0.144145
H23   H     H_    0.568907 0.831589 0.654238 0.154994
H24   H     H_    0.322848 0.673179 0.265358 0.201903
H25   H     H_    0.909781 0.633183 0.524767 0.153452
H26   H     H_    0.830584 0.678635 0.475420 0.140616
H27   H     H_    0.910153 0.690243 0.389843 0.194455
H28   H     H_    0.090218 0.633183 0.475233 0.153453
H29   H     H_    0.169416 0.678634 0.524574 0.140616
H30   H     H_    0.089850 0.690245 0.610155 0.194455
H31   H     H_    0.705043 0.701927 0.403937 0.336334
H32   H     H_    0.294957 0.701932 0.596071 0.336338
H33   H     H_    0.431093 0.831589 0.345762 0.154993
H34   H     H_    0.390089 0.933560 0.465020 0.134039
H35   H     H_    0.609911 0.933560 0.534980 0.134040
H36   H     H_    0.390024 0.065984 0.465235 0.134616
H37   H     H_    0.609976 0.065984 0.534766 0.134615
H38   H     H_    0.574191 0.170363 0.649060 0.134607
N1    N     N_R   0.500000 0.689440 0.500000 -0.150669
N2    N     N_R   0.500000 0.310560 0.500000 -0.094929
O1    O     O_R   0.398180 0.560840 0.499970 -0.533661
O2    O     O_3   0.420862 0.683431 0.335042 -0.577039
O3    O     O_3   0.863405 0.591309 0.365326 -0.569324
O4    O     O_3   0.136595 0.591310 0.634673 -0.569325
O5    O     O_2   0.764162 0.629502 0.214034 -0.240142
O6    O     O_2   0.661088 0.554082 0.234349 -0.342145
O7    O     O_3   0.668426 0.670108 0.370227 -0.567689
O8    O     O_2   0.235838 0.629504 0.785964 -0.240147
O9    O     O_2   0.338912 0.554084 0.765650 -0.342145
O10   O     O_3   0.331574 0.670109 0.629770 -0.567693
O11   O     O_R   0.601820 0.560840 0.500030 -0.533665
O12   O     O_R   0.398180 0.439210 0.499910 -0.641241
O13   O     O_R   0.601820 0.439210 0.500090 -0.641239
O14   O     O_R   0.500000 0.560830 0.316760 -0.592786
O15   O     O_R   0.500000 0.560830 0.683240 -0.592785
O16   O     O_R   0.500000 0.439200 0.316700 -0.646534
O17   O     O_R   0.500000 0.439200 0.683300 -0.646534
O18   O     O_3   0.579137 0.683432 0.664959 -0.577039
S1    S     S_3+6 0.711337 0.600208 0.304811 0.022706
S2    S     S_3+6 0.288663 0.600209 0.695187 0.022705
Zn1   Zn    Zn3+2 0.500000 0.581210 0.500000 1.099262
Zn2   Zn    Zn3+2 0.500000 0.418790 0.500000 0.953584

loop_
_geom_bond_atom_site_label_1
_geom_bond_atom_site_label_2
_ccdc_geom_bond_type
C51   S2    S    
C23   C45   A    
H32   O10   S    
O10   S2    S    
C35   C36   A    
C47   H27   S    
C3    C6    A    
C26   H3    S    
C9    N1    A    
C46   H24   S    
C7    C8    A    
O9    S2    D    
C39   H12   S    
C8    H17   S    
C23   C42   A    
C15   O14   A    
O11   Zn1   S    
C24   C26   A    
C38   C39   A    
O5    S1    D    
C11   C14   A    
C10   O2    S    
C2    C41   A    
C26   N2    A    
C48   H29   S    
C44   H19   S    
C1    C2    S    
O16   Zn2   S    
O15   Zn1   S    
C16   O15   A    
C17   C19   A    
C7    H16   S    
C49   C51   A    
C50   C52   A    
C44   H18   S    
C17   C22   A    
C16   C37   S    
C40   C42   A    
H31   O7    S    
C13   C14   A    
C41   C43   A    
C41   H10   S    
C12   C52   S    
C16   O17   A    
O14   Zn1   S    
C17   H34   S    
O13   Zn2   S    
C25   H2    S    
C12   O11   A    
C19   H36   S    
C5    C7    A    
C27   H4    S    
C6    C8    A    
C40   C52   A    
C33   C37   A    
C40   H9    S    
N1    Zn1   S    
C25   C28   A    
C15   O16   A    
C31   C32   A    
C46   O2    S    
C43   H13   S    
O7    S1    S    
C5    C34   S    
C27   N2    A    
O1    Zn1   S    
C9    C11   A    
C1    O12   A    
O17   Zn2   S    
O12   Zn2   S    
C1    O1    A    
C21   C28   S    
C29   H5    S    
C10   N1    A    
O8    S2    D    
C3    H14   S    
C47   H25   S    
C3    C4    A    
C45   O3    S    
C15   C36   S    
C46   H22   S    
C31   H7    S    
C9    O18   S    
C34   C49   A    
C47   O3    S    
O6    S1    D    
C48   O4    S    
C30   C33   A    
C19   C21   A    
C18   C22   A    
C34   C43   A    
C24   C28   A    
C4    C5    A    
C10   C13   A    
C24   H38   S    
C4    H15   S    
C25   C27   A    
C20   H37   S    
C29   C35   A    
C18   H35   S    
C48   H28   S    
C36   C38   A    
C29   C31   A    
C11   H23   S    
C30   C32   A    
C14   C22   S    
C12   O13   A    
C38   H1    S    
C45   C50   A    
C6    C23   S    
C30   H6    S    
C50   S1    S    
C33   C35   A    
C48   H30   S    
C44   H20   S    
C18   C20   A    
C49   O4    S    
C2    C51   A    
C20   C21   A    
C37   C39   A    
C13   H33   S    
C32   H8    S    
C47   H26   S    
N2    Zn2   S    
C42   H11   S    
C46   H21   S    
C44   O18   S    
