data_mof_unit_52176.cif
_audit_creation_date              2012-12-10T17:52:22-0500
_audit_creation_method            fapswitch 2.2
_symmetry_space_group_name_H-M    P1
_symmetry_Int_Tables_number       1
_space_group_crystal_system       triclinic
_cell_length_a                    19.154246
_cell_length_b                    10.628431
_cell_length_c                    9.91533
_cell_angle_alpha                 89.863395
_cell_angle_beta                  89.936231
_cell_angle_gamma                 91.612155
_cell_volume                      2017.75258766

loop_
_atom_site_label
_atom_site_type_symbol
_atom_type_description
_atom_site_fract_x
_atom_site_fract_y
_atom_site_fract_z
_atom_type_partial_charge
C1    C     C_R   0.501736 0.260709 0.500181 0.857618
C2    C     C_R   0.290095 0.514000 0.500086 -0.031401
C3    C     C_R   0.930632 0.573765 0.498010 0.287812
C4    C     C_R   0.071438 0.570084 0.498056 0.287373
C5    C     C_R   0.818032 0.555134 0.621050 -0.167014
C6    C     C_R   0.746319 0.533422 0.621672 -0.215561
C7    C     C_R   0.710265 0.517568 0.499674 -0.029003
C8    C     C_R   0.746650 0.524203 0.377059 -0.189083
C9    C     C_R   0.818334 0.545892 0.376416 -0.165076
C10   C     C_R   0.854581 0.560873 0.498424 0.091243
C11   C     C_R   0.618860 0.136726 0.623951 -0.175265
C12   C     C_R   0.365535 0.501315 0.500102 0.839209
C13   C     C_R   0.673759 0.073603 0.683614 -0.130832
C14   C     C_R   0.673910 0.942683 0.682990 -0.134400
C15   C     C_R   0.619150 0.874424 0.622739 -0.187527
C16   C     C_R   0.562590 0.936989 0.563220 0.094781
C17   C     C_R   0.562440 0.068890 0.563777 0.098103
C18   C     C_R   0.506396 0.128626 0.500183 -0.086390
C19   C     C_R   0.453450 0.062050 0.433235 -0.205590
C20   C     C_R   0.453590 0.933503 0.432778 -0.193812
C21   C     C_R   0.506668 0.871962 0.499273 -0.101620
C22   C     C_R   0.408103 0.335996 0.140436 -0.198551
C23   C     C_R   0.501935 0.739438 0.499819 0.875429
C24   C     C_R   0.362736 0.255111 0.070879 -0.289104
C25   C     C_R   0.361617 0.255173 0.930517 0.247287
C26   C     C_R   0.407908 0.336141 0.860635 -0.177443
C27   C     C_R   0.454496 0.419415 0.928107 0.113672
C28   C     C_R   0.454547 0.419430 0.072520 0.176293
C29   C     C_R   0.543526 0.577073 0.071188 -0.113368
C30   C     C_R   0.543522 0.577030 0.928071 -0.105341
C31   C     C_R   0.634508 0.502488 0.499895 0.829813
C32   C     C_R   0.254657 0.533395 0.621706 -0.204713
C33   C     C_R   0.183486 0.553674 0.620939 -0.164860
C34   C     C_R   0.146913 0.554919 0.498501 0.090537
C35   C     C_R   0.182430 0.535069 0.376919 -0.163737
C36   C     C_R   0.253554 0.514454 0.377742 -0.199899
H1    H     H_    0.281906 0.534058 0.717396 0.164731
H2    H     H_    0.621755 0.238409 0.623811 0.152894
H3    H     H_    0.716660 0.126491 0.729235 0.140891
H4    H     H_    0.716924 0.893842 0.728091 0.138886
H5    H     H_    0.622258 0.773019 0.621572 0.142125
H6    H     H_    0.411432 0.881599 0.383025 0.153908
H7    H     H_    0.579104 0.640045 0.124660 0.144768
H8    H     H_    0.405312 0.329846 0.247359 0.211435
H9    H     H_    0.328078 0.192132 0.127260 0.146652
H10   H     H_    0.406908 0.330158 0.753936 0.213743
H11   H     H_    0.157263 0.568026 0.716249 0.149539
H12   H     H_    0.579085 0.639995 0.874037 0.140025
H13   H     H_    0.155366 0.534580 0.281087 0.150286
H14   H     H_    0.279884 0.499876 0.282526 0.161303
H15   H     H_    0.844760 0.566086 0.716656 0.149027
H16   H     H_    0.719195 0.530001 0.717588 0.154875
H17   H     H_    0.719823 0.513284 0.281509 0.156204
H18   H     H_    0.845278 0.549511 0.280358 0.149131
H19   H     H_    0.411225 0.109883 0.383674 0.138872
N1    N     N_R   0.035660 0.568709 0.380239 -0.180109
N2    N     N_R   0.966465 0.570479 0.380221 -0.179747
N3    N     N_R   0.966486 0.578515 0.615725 -0.180577
N4    N     N_R   0.035705 0.576771 0.615745 -0.180134
N5    N     N_R   0.499340 0.498800 0.142780 -0.115475
N6    N     N_R   0.499320 0.498720 0.857170 -0.113212
O1    O     O_R   0.500000 0.316780 0.614690 -0.636982
O2    O     O_R   0.499990 0.316750 0.385360 -0.626526
O3    O     O_R   0.398140 0.500000 0.614700 -0.635949
O4    O     O_R   0.398130 0.499970 0.385370 -0.637332
O5    O     O_R   0.500010 0.683250 0.614640 -0.611749
O6    O     O_R   0.500000 0.683220 0.385310 -0.610066
O7    O     O_R   0.601870 0.500030 0.614630 -0.633281
O8    O     O_R   0.601860 0.500000 0.385300 -0.614375
Zn1   Zn    Zn3+2 0.500000 0.500020 0.653130 0.932135
Zn2   Zn    Zn3+2 0.500000 0.499980 0.346870 0.940252
N7    N     N_2   0.316291 0.169144 0.860076 -0.301568
H20   H     H_    0.291348 0.102569 0.920382 0.228095
C37   C     C_3   0.269964 0.224013 0.762242 -0.785231
H21   H     H_    0.235298 0.149140 0.718670 0.243480
H22   H     H_    0.299986 0.268022 0.677969 0.237174
H23   H     H_    0.237010 0.295168 0.811333 0.242300

loop_
_geom_bond_atom_site_label_1
_geom_bond_atom_site_label_2
_ccdc_geom_bond_type
N6    Zn1   S    
C16   C21   A    
C35   C36   A    
C2    C12   S    
C1    O1    A    
C7    C8    A    
C1    C18   S    
C37   H22   S    
C24   H9    S    
C23   O5    A    
C30   H12   S    
C34   C35   A    
C5    C6    A    
C12   O3    A    
C19   H19   S    
C15   C16   A    
N1    N2    A    
O1    Zn1   S    
C2    C32   A    
C18   C19   A    
C23   O6    A    
O8    Zn2   S    
C27   N6    A    
C22   H8    S    
C19   C20   A    
C8    C9    A    
C37   H23   S    
C35   H13   S    
O3    Zn1   S    
C9    C10   A    
C22   C28   A    
C13   C14   A    
C29   H7    S    
C1    O2    A    
C17   C18   A    
C28   N5    A    
C31   O7    A    
C4    C34   S    
C7    C31   S    
C37   H21   S    
C24   C25   A    
C15   H5    S    
N7    C37   S    
C16   C17   A    
N5    Zn2   S    
C25   C26   A    
O4    Zn2   S    
C11   H2    S    
C29   C30   A    
C29   N5    A    
C33   C34   A    
C26   C27   A    
C25   N7    S    
C32   H1    S    
C3    N2    A    
O2    Zn2   S    
C21   C23   S    
C33   H11   S    
C22   C24   A    
C36   H14   S    
C2    C36   A    
C11   C17   A    
N7    H20   S    
C8    H17   S    
C20   H6    S    
C6    C7    A    
C12   O4    A    
C32   C33   A    
N3    N4    A    
C5    C10   A    
C3    C10   S    
C11   C13   A    
O5    Zn1   S    
C4    N4    A    
O6    Zn2   S    
C13   H3    S    
C26   H10   S    
C14   H4    S    
C3    N3    A    
C31   O8    A    
C20   C21   A    
O7    Zn1   S    
C30   N6    A    
C27   C28   A    
C14   C15   A    
C5    H15   S    
C9    H18   S    
C6    H16   S    
C4    N1    A    
