data_mof_unit_56269.cif
_audit_creation_date              2012-12-11T16:51:33-0500
_audit_creation_method            fapswitch 2.2
_symmetry_space_group_name_H-M    P1
_symmetry_Int_Tables_number       1
_space_group_crystal_system       triclinic
_cell_length_a                    24.463721
_cell_length_b                    17.317892
_cell_length_c                    15.756824
_cell_angle_alpha                 89.769887
_cell_angle_beta                  129.14475
_cell_angle_gamma                 90.285893
_cell_volume                      5177.16923251

loop_
_atom_site_label
_atom_site_type_symbol
_atom_type_description
_atom_site_fract_x
_atom_site_fract_y
_atom_site_fract_z
_atom_type_partial_charge
C1    C     C_R   0.843382 0.867000 0.229420 -0.244700
C2    C     C_R   0.157607 0.868984 0.773516 -0.242400
C3    C     C_R   0.336811 0.379655 0.210994 -0.224096
C4    C     C_R   0.656461 0.367183 0.770945 -0.244422
C5    C     C_R   0.906524 0.136896 0.594673 -0.169193
C6    C     C_R   0.093817 0.135744 0.404009 -0.157730
C7    C     C_R   0.407862 0.637312 0.595727 -0.170948
C8    C     C_R   0.592051 0.637927 0.404365 -0.168792
C9    C     C_R   0.859737 0.182864 0.506290 -0.028228
C10   C     C_R   0.140346 0.182748 0.491383 -0.013785
C11   C     C_R   0.360764 0.683751 0.507724 -0.025736
C12   C     C_R   0.638983 0.684468 0.492416 -0.029181
C13   C     C_R   0.853408 0.107238 0.128716 -0.012093
C14   C     C_R   0.141166 0.140494 0.851567 0.062653
C15   C     C_R   0.353438 0.608147 0.129319 -0.030024
C16   C     C_R   0.647171 0.606509 0.871412 -0.011939
C17   C     C_R   0.776048 0.834261 0.597960 0.017481
C18   C     C_R   0.223260 0.832081 0.402555 0.021483
C19   C     C_R   0.270997 0.339157 0.594336 0.001828
C20   C     C_R   0.716286 0.321627 0.399054 0.031800
C21   C     C_R   0.759739 0.860199 0.500392 -0.008146
C22   C     C_R   0.239730 0.858167 0.500032 -0.008398
C23   C     C_R   0.258063 0.359855 0.497199 0.004550
C24   C     C_R   0.735816 0.353340 0.495926 -0.013662
C25   C     C_R   0.689736 0.852264 0.402941 -0.261533
C26   C     C_R   0.309702 0.850100 0.597466 -0.261274
C27   C     C_R   0.189273 0.348856 0.397962 -0.262419
C28   C     C_R   0.807086 0.350326 0.590891 -0.266448
C29   C     C_R   0.141991 0.299262 0.394270 0.155368
C30   C     C_R   0.854231 0.301439 0.594209 0.159876
C31   C     C_R   0.642678 0.802499 0.399742 0.154888
C32   C     C_R   0.356664 0.800759 0.600620 0.156506
C33   C     C_R   0.166749 0.258868 0.490941 0.073114
C34   C     C_R   0.826986 0.253926 0.502400 0.037121
C35   C     C_R   0.668894 0.758450 0.494459 0.043754
C36   C     C_R   0.330485 0.757049 0.505870 0.041790
C37   C     C_R   0.226555 0.287887 0.590538 0.125526
C38   C     C_R   0.760265 0.270102 0.404375 0.193375
C39   C     C_R   0.732660 0.781434 0.593687 0.183417
C40   C     C_R   0.266596 0.779685 0.406814 0.185226
C41   C     C_3   0.792860 0.735103 0.687262 -0.521825
C42   C     C_3   0.206412 0.733022 0.313649 -0.528544
C43   C     C_3   0.285133 0.247831 0.693624 -0.509680
C44   C     C_3   0.701604 0.216570 0.322350 -0.542567
C45   C     C_R   0.115911 0.899377 0.410994 -0.115554
C46   C     C_R   0.883896 0.899992 0.589105 -0.115265
C47   C     C_R   0.613841 0.396090 0.409402 -0.114038
C48   C     C_R   0.383534 0.399186 0.588559 -0.108450
C49   C     C_3   0.840738 0.795476 0.696053 0.336888
C50   C     C_3   0.158532 0.792934 0.304814 0.338136
C51   C     C_3   0.334300 0.305219 0.699781 0.358180
C52   C     C_3   0.652322 0.275008 0.312094 0.326958
C53   C     C_2   0.173031 0.778156 0.908307 0.408963
C54   C     C_2   0.827361 0.775979 0.094908 0.411040
C55   C     C_2   0.671244 0.274802 0.904132 0.410308
C56   C     C_2   0.314356 0.317985 0.046852 0.487154
C57   C     C_2   0.214842 0.729985 0.904823 0.021413
C58   C     C_2   0.785841 0.727077 0.099000 0.027020
C59   C     C_2   0.713404 0.226954 0.900878 0.029463
C60   C     C_2   0.243532 0.322842 0.980374 0.022888
C61   C     C_2   0.808571 0.135293 0.017681 -0.206403
C62   C     C_2   0.171306 0.208251 0.921815 -0.254746
C63   C     C_2   0.309580 0.638246 0.019603 -0.222802
C64   C     C_2   0.692273 0.633702 0.982689 -0.204095
C65   C     C_2   0.780261 0.203855 0.004212 -0.127934
C66   C     C_2   0.202934 0.261119 0.903734 -0.096530
C67   C     C_2   0.281421 0.706441 0.007854 -0.110813
C68   C     C_2   0.718806 0.703618 0.996242 -0.125253
C69   C     C_R   0.187888 0.894853 0.592205 -0.146020
C70   C     C_R   0.812033 0.894686 0.408071 -0.148255
C71   C     C_R   0.687217 0.393364 0.591302 -0.147821
C72   C     C_R   0.312180 0.394031 0.407443 -0.119453
C73   C     C_R   0.068830 0.870288 0.780502 0.498324
C74   C     C_R   0.931390 0.869554 0.220741 0.497843
C75   C     C_R   0.567953 0.368872 0.778573 0.501936
C76   C     C_R   0.425066 0.387355 0.203213 0.500935
C77   C     C_R   0.869206 0.831774 0.182939 -0.106520
C78   C     C_R   0.131569 0.833719 0.820055 -0.103262
C79   C     C_R   0.357680 0.358859 0.150579 -0.097646
C80   C     C_R   0.630099 0.331302 0.816704 -0.108883
C81   C     C_R   0.183212 0.880471 0.501812 0.055333
C82   C     C_R   0.816501 0.881267 0.498483 0.054110
C83   C     C_R   0.681010 0.377211 0.499921 0.056067
C84   C     C_R   0.316134 0.380093 0.497467 0.048789
C85   C     C_R   0.844214 0.148115 0.414722 0.434830
C86   C     C_R   0.151630 0.150591 0.582068 0.414300
C87   C     C_R   0.345507 0.649138 0.415795 0.430937
C88   C     C_R   0.654417 0.649316 0.584330 0.429573
C89   C     C_R   0.924503 0.098080 0.196354 -0.108886
C90   C     C_R   0.072551 0.115735 0.793305 -0.092751
C91   C     C_R   0.424410 0.598244 0.196453 -0.099451
C92   C     C_R   0.575960 0.597345 0.804022 -0.107145
C93   C     C_R   0.165657 0.107988 0.801256 0.278306
C94   C     C_R   0.832073 0.091905 0.189553 0.340137
C95   C     C_R   0.668107 0.592245 0.809966 0.340142
C96   C     C_R   0.331978 0.592837 0.190168 0.340414
H1    H     H_    0.793284 0.856968 0.210921 0.156754
H2    H     H_    0.208469 0.860820 0.794056 0.157877
H3    H     H_    0.286359 0.369698 0.191323 0.140590
H4    H     H_    0.706756 0.357751 0.790083 0.157703
H5    H     H_    0.794969 0.733200 0.759712 0.305597
H6    H     H_    0.204385 0.731355 0.241276 0.305608
H7    H     H_    0.281058 0.254031 0.759659 0.277948
H8    H     H_    0.695648 0.209909 0.246788 0.297286
H9    H     H_    0.797903 0.677890 0.660975 0.147147
H10   H     H_    0.201519 0.675643 0.340330 0.147620
H11   H     H_    0.293476 0.187720 0.679429 0.156705
H12   H     H_    0.702785 0.161260 0.359625 0.151598
H13   H     H_    0.877078 0.771953 0.682919 0.092654
H14   H     H_    0.122326 0.769155 0.318434 0.091022
H15   H     H_    0.372770 0.277874 0.693791 0.102477
H16   H     H_    0.621409 0.252278 0.336458 0.082533
H17   H     H_    0.802572 0.240037 0.075791 0.205331
H18   H     H_    0.208948 0.253372 0.842155 0.220723
H19   H     H_    0.303316 0.741268 0.080422 0.207684
H20   H     H_    0.695144 0.740834 0.925009 0.203013
H21   H     H_    0.787485 0.095404 0.950421 0.197730
H22   H     H_    0.165715 0.216493 0.984322 0.151093
H23   H     H_    0.289813 0.600212 0.951096 0.192745
H24   H     H_    0.715290 0.592841 0.049656 0.194389
H25   H     H_    0.099926 0.911600 0.331237 0.193028
H26   H     H_    0.899905 0.912935 0.668636 0.192174
H27   H     H_    0.595972 0.404236 0.327758 0.196942
H28   H     H_    0.399116 0.411961 0.667819 0.191504
H29   H     H_    0.235382 0.896515 0.676489 0.101490
H30   H     H_    0.764562 0.895523 0.323798 0.103401
H31   H     H_    0.735171 0.394189 0.675208 0.102394
H32   H     H_    0.265111 0.395373 0.322830 0.096916
H33   H     H_    0.956817 0.095691 0.171587 0.139721
H34   H     H_    0.039749 0.123547 0.816353 0.118274
H35   H     H_    0.456625 0.596059 0.171492 0.149052
H36   H     H_    0.543829 0.594431 0.829134 0.139641
H37   H     H_    0.928835 0.145923 0.678532 0.143358
H38   H     H_    0.069190 0.144118 0.318894 0.145984
H39   H     H_    0.433137 0.646719 0.680898 0.150208
H40   H     H_    0.566785 0.647748 0.319238 0.149751
H41   H     H_    0.673395 0.878604 0.327773 0.133409
H42   H     H_    0.326208 0.876312 0.672623 0.132922
H43   H     H_    0.174247 0.372261 0.322164 0.128828
H44   H     H_    0.824699 0.380318 0.664455 0.133548
N1    N     N_R   0.888400 0.921830 0.294620 -0.064439
N2    N     N_R   0.111600 0.921830 0.705380 -0.063657
N3    N     N_R   0.388400 0.421830 0.294620 -0.065062
N4    N     N_R   0.611600 0.421830 0.705380 -0.063958
N5    N     N_R   0.079940 0.922160 0.443410 -0.050421
N6    N     N_R   0.920060 0.922160 0.556590 -0.050148
N7    N     N_R   0.579940 0.422160 0.443410 -0.046397
N8    N     N_R   0.420060 0.422160 0.556590 -0.049486
N9    N     N_R   0.125650 0.922400 0.556620 -0.044842
N10   N     N_R   0.874350 0.922400 0.443380 -0.045320
N11   N     N_R   0.625650 0.422400 0.556620 -0.043615
N12   N     N_R   0.374350 0.422400 0.443380 -0.046880
N13   N     N_R   0.054230 0.922730 0.705400 -0.098536
N14   N     N_R   0.945770 0.922730 0.294600 -0.099517
N15   N     N_R   0.554230 0.422730 0.705400 -0.098841
N16   N     N_R   0.445770 0.422730 0.294600 -0.102058
N17   N     N_R   0.873790 0.077030 0.443380 -0.095961
N18   N     N_R   0.126210 0.077030 0.556620 -0.088432
N19   N     N_R   0.373790 0.577030 0.443380 -0.097566
N20   N     N_R   0.626210 0.577030 0.556620 -0.094648
N21   N     N_R   0.945200 0.076700 0.294600 -0.054429
N22   N     N_R   0.054800 0.076700 0.705400 -0.047527
N23   N     N_R   0.445200 0.576700 0.294600 -0.056571
N24   N     N_R   0.554800 0.576700 0.705400 -0.055057
N25   N     N_R   0.111030 0.077600 0.705380 -0.037398
N26   N     N_R   0.888970 0.077600 0.294620 -0.044768
N27   N     N_R   0.611030 0.577600 0.705380 -0.043459
N28   N     N_R   0.388970 0.577600 0.294620 -0.043936
N29   N     N_R   0.919490 0.077280 0.556590 -0.058765
N30   N     N_R   0.080510 0.077280 0.443410 -0.055448
N31   N     N_R   0.419490 0.577280 0.556590 -0.060848
N32   N     N_R   0.580510 0.577280 0.443410 -0.059297
Ni1   Ni    Ni4+2 0.882160 0.999430 0.370180 0.219700
Ni2   Ni    Ni4+2 0.117840 0.999430 0.629820 0.217790
Ni3   Ni    Ni4+2 0.382160 0.499430 0.370180 0.217119
Ni4   Ni    Ni4+2 0.617840 0.499430 0.629820 0.219159
Ni5   Ni    Ni4+2 0.012460 0.999430 0.370180 0.256795
Ni6   Ni    Ni4+2 0.987540 0.999430 0.629820 0.263555
Ni7   Ni    Ni4+2 0.512460 0.499430 0.370180 0.256744
Ni8   Ni    Ni4+2 0.487540 0.499430 0.629820 0.254687
N33   N     N_2   0.073956 0.285006 0.292612 -0.130987
H45   H     H_    0.067752 0.302937 0.224468 0.164136
C97   C     C_3   0.015632 0.307789 0.288924 -0.816954
H46   H     H_    0.965200 0.290295 0.209251 0.240428
H47   H     H_    0.015770 0.371466 0.297536 0.251220
H48   H     H_    0.018720 0.279195 0.355048 0.286635
N34   N     N_2   0.925168 0.294421 0.692457 -0.130415
H49   H     H_    0.934258 0.316307 0.761188 0.161205
C98   C     C_3   0.978172 0.318764 0.683786 -0.807994
H50   H     H_    0.031424 0.307518 0.762450 0.241654
H51   H     H_    0.973106 0.381577 0.665603 0.247544
H52   H     H_    0.973160 0.286212 0.618615 0.287682
N35   N     N_2   0.573196 0.791359 0.299552 -0.131011
H53   H     H_    0.565543 0.811157 0.230911 0.165767
C99   C     C_3   0.517319 0.814678 0.301642 -0.799433
H54   H     H_    0.465493 0.799606 0.222511 0.243147
H55   H     H_    0.519531 0.878082 0.314128 0.252941
H56   H     H_    0.521602 0.784424 0.367882 0.278010
N36   N     N_2   0.426175 0.789920 0.700755 -0.130116
H57   H     H_    0.433771 0.809046 0.769459 0.165607
C100  C     C_3   0.481953 0.814591 0.698711 -0.805760
H58   H     H_    0.533837 0.799716 0.777774 0.242334
H59   H     H_    0.479531 0.878105 0.686458 0.251300
H60   H     H_    0.477740 0.785099 0.632332 0.279182
Cl1   Cl    Cl    0.881526 0.853294 0.816199 -0.413896
Cl2   Cl    Cl    0.117562 0.850630 0.184276 -0.408003
Cl3   Cl    Cl    0.371646 0.370922 0.811371 -0.454843
Cl4   Cl    Cl    0.601489 0.322210 0.181955 -0.399478
N37   N     N_2   0.194737 0.702495 0.802708 -0.107146
H61   H     H_    0.142345 0.706641 0.734418 0.175877
C101  C     C_3   0.244906 0.709514 0.782779 -0.883105
H62   H     H_    0.222070 0.745274 0.708691 0.239656
H63   H     H_    0.256382 0.651303 0.768424 0.265599
H64   H     H_    0.295075 0.736949 0.852530 0.254513
N38   N     N_2   0.806199 0.699399 0.201350 -0.106333
H65   H     H_    0.858478 0.704550 0.269679 0.176479
C102  C     C_3   0.755730 0.704457 0.220793 -0.877676
H66   H     H_    0.777971 0.740096 0.294621 0.238129
H67   H     H_    0.744863 0.645669 0.235244 0.266491
H68   H     H_    0.705288 0.731108 0.150783 0.253151
N39   N     N_2   0.693852 0.200124 0.798889 -0.105230
H69   H     H_    0.641675 0.204941 0.730097 0.180454
C103  C     C_3   0.744790 0.206703 0.780480 -0.878700
H70   H     H_    0.722616 0.242352 0.706522 0.238851
H71   H     H_    0.756394 0.148351 0.766732 0.267624
H72   H     H_    0.794798 0.234087 0.850691 0.252129
N40   N     N_2   0.207567 0.385276 0.984645 -0.130556
H73   H     H_    0.156900 0.371859 0.953859 0.181119
C104  C     C_3   0.210290 0.456170 0.938631 -0.883039
H74   H     H_    0.181250 0.502232 0.944020 0.244639
H75   H     H_    0.185399 0.447759 0.851052 0.274281
H76   H     H_    0.265807 0.474915 0.984541 0.258856
Cl5   Cl    Cl    0.184380 0.794099 0.029649 -0.515311
Cl6   Cl    Cl    0.814744 0.792757 0.972541 -0.522412
Cl7   Cl    Cl    0.682112 0.289429 0.025320 -0.508565
Cl8   Cl    Cl    0.357968 0.250834 0.023555 -0.586982
Cl9   Cl    Cl    0.026054 0.862257 0.836432 -0.531094
Cl10  Cl    Cl    0.973255 0.862314 0.163378 -0.532966
Cl11  Cl    Cl    0.524233 0.359095 0.833037 -0.538410
Cl12  Cl    Cl    0.461739 0.406145 0.139124 -0.528459
Cl13  Cl    Cl    0.831032 0.211236 0.314720 -0.648474
Cl14  Cl    Cl    0.127299 0.219346 0.635209 -0.721594
Cl15  Cl    Cl    0.340816 0.713920 0.324165 -0.658377
Cl16  Cl    Cl    0.659402 0.713468 0.676358 -0.662755
N41   N     N_2   0.237285 0.106865 0.844163 -0.105266
H77   H     H_    0.271761 0.126415 0.923483 0.231647
C105  C     C_3   0.262096 0.036566 0.829921 -0.911412
H78   H     H_    0.318134 0.043897 0.866049 0.268753
H79   H     H_    0.231951 0.023276 0.742384 0.243414
H80   H     H_    0.258566 0.988129 0.872561 0.249999
N42   N     N_2   0.760309 0.091259 0.147116 -0.076157
H81   H     H_    0.724009 0.108851 0.066927 0.213770
C106  C     C_3   0.736106 0.025369 0.171329 -0.922634
H82   H     H_    0.681286 0.035679 0.139362 0.263087
H83   H     H_    0.768772 0.016776 0.260316 0.249679
H84   H     H_    0.736003 0.973425 0.130472 0.242306
N43   N     N_2   0.739365 0.593707 0.850445 -0.080080
H85   H     H_    0.775616 0.614022 0.929188 0.214525
C107  C     C_3   0.764337 0.526457 0.830744 -0.938302
H86   H     H_    0.819002 0.537009 0.861828 0.262598
H87   H     H_    0.731591 0.514843 0.742350 0.251227
H88   H     H_    0.764934 0.476068 0.874930 0.245764
N44   N     N_2   0.260761 0.597151 0.149988 -0.076485
H89   H     H_    0.224301 0.614673 0.069841 0.206972
C108  C     C_3   0.234089 0.536644 0.178349 -0.937206
H90   H     H_    0.182228 0.554299 0.153532 0.264427
H91   H     H_    0.269325 0.525885 0.266911 0.249755
H92   H     H_    0.226303 0.483101 0.134171 0.250020

loop_
_geom_bond_atom_site_label_1
_geom_bond_atom_site_label_2
_ccdc_geom_bond_type
C25   C31   A    
N28   Ni3   S    
C69   H29   S    
C26   C32   A    
C55   C59   D    
C8    H40   S    
C1    C77   A    
C100  H58   S    
C75   Cl11  S    
C103  H70   S    
C70   N10   A    
C76   C79   A    
N3    Ni3   S    
N38   H65   S    
C107  H88   S    
C3    C79   A    
C94   N42   S    
C94   N26   A    
C44   H8    S    
C103  H72   S    
N44   H89   S    
C39   C41   S    
N33   H45   S    
C102  H68   S    
C7    C11   A    
C74   N14   A    
C70   H30   S    
N39   H69   S    
C56   C79   S    
C29   N33   S    
C90   N22   A    
C45   N5    A    
C103  H71   S    
C64   C68   D    
C11   C36   S    
C92   H36   S    
C24   C83   S    
C4    C80   A    
C32   N36   S    
C7    N31   A    
N38   C102  S    
C6    N30   A    
C106  H82   S    
N16   Ni7   S    
C51   Cl3   S    
N1    N14   A    
N42   C106  S    
C27   C29   A    
C88   Cl16  S    
C52   H16   S    
C14   C62   S    
C57   N37   S    
C29   C33   A    
C50   H14   S    
C108  H90   S    
C89   H33   S    
N6    Ni6   S    
C95   N43   S    
N9    Ni2   S    
C17   C39   A    
C41   C49   S    
C98   H51   S    
C67   H19   S    
C101  H63   S    
C14   C90   A    
C18   C40   A    
C19   C37   A    
C9    C85   A    
C46   C82   A    
N12   Ni3   S    
C87   Cl15  S    
N18   Ni2   S    
C71   N11   A    
N40   H73   S    
C11   C87   A    
C72   N12   A    
C74   C77   A    
C28   H44   S    
C51   H15   S    
C73   C78   A    
C96   N28   A    
C47   C83   A    
C59   N39   S    
C75   C80   A    
C14   C93   A    
N21   N26   A    
N24   Ni8   S    
C86   Cl14  S    
C54   C77   S    
N17   N29   A    
C58   N38   S    
C92   N24   A    
C40   C42   S    
C93   N25   A    
N36   H57   S    
N8    Ni8   S    
N39   C103  S    
N19   Ni3   S    
N41   H77   S    
C90   H34   S    
N1    Ni1   S    
N20   Ni4   S    
C71   H31   S    
C85   N17   A    
C100  H59   S    
C57   C67   S    
C42   H6    S    
C89   N21   A    
C3    H3    S    
C71   C83   A    
C44   H12   S    
C48   H28   S    
N20   N32   A    
C47   N7    A    
C62   H22   S    
C23   C84   S    
C30   C34   A    
N30   Ni5   S    
C61   H21   S    
C22   C81   S    
N8    N12   A    
C56   Cl8   S    
C36   C40   A    
C104  H76   S    
C3    N3    A    
N42   H81   S    
N19   N31   A    
C97   H48   S    
C17   C49   S    
C15   C96   A    
C31   N35   S    
C62   C66   D    
C19   C23   A    
N18   N30   A    
C87   N19   A    
C91   N23   A    
N35   C99   S    
N25   Ni2   S    
C76   N16   A    
C17   C21   A    
C25   H41   S    
C48   C84   A    
C69   C81   A    
C91   H35   S    
C73   Cl9   S    
N43   C107  S    
C34   C38   A    
C74   Cl10  S    
C98   H52   S    
C35   C39   A    
C97   H46   S    
C63   C67   D    
C38   C44   S    
C104  H74   S    
C2    C78   A    
C75   N15   A    
N22   N25   A    
C20   C38   A    
C47   H27   S    
C101  H62   S    
C61   C65   D    
C104  H75   S    
C8    C12   A    
C12   C88   A    
C68   H20   S    
N4    Ni4   S    
C85   Cl13  S    
N37   H61   S    
C5    H37   S    
C105  H79   S    
C13   C61   S    
C43   H11   S    
C12   C35   S    
C86   N18   A    
C72   C84   A    
C22   C26   A    
C41   H9    S    
C42   C50   S    
C60   C66   S    
C50   Cl2   S    
N32   Ni7   S    
C58   C68   S    
N40   C104  S    
C107  H87   S    
C72   H32   S    
C16   C92   A    
C96   N44   S    
C23   C27   A    
N41   C105  S    
N23   Ni7   S    
C9    C34   S    
C2    N2    A    
C100  H60   S    
C31   C35   A    
N31   Ni8   S    
C27   H43   S    
C54   Cl6   S    
C1    H1    S    
C107  H86   S    
C53   Cl5   S    
N29   Ni6   S    
N43   H85   S    
N15   Ni8   S    
C18   C50   S    
C49   H13   S    
C54   C58   D    
C105  H80   S    
N44   C108  S    
C21   C25   A    
N13   Ni6   S    
C10   C86   A    
N26   Ni1   S    
C53   C57   D    
N11   Ni4   S    
C66   H18   S    
C13   C89   A    
C18   C22   A    
C65   H17   S    
N24   N27   A    
C45   C81   A    
C24   C28   A    
C49   Cl1   S    
C26   H42   S    
C43   H7    S    
C95   N27   A    
C5    N29   A    
C4    N4    A    
C106  H84   S    
C88   N20   A    
C105  H78   S    
C32   C36   A    
N6    N10   A    
N5    Ni5   S    
C102  H67   S    
C13   C94   A    
C64   H24   S    
C4    H4    S    
C93   N41   S    
C76   Cl12  S    
C60   N40   S    
C45   H25   S    
C30   N34   S    
C99   H56   S    
N4    N15   A    
C97   H47   S    
N23   N28   A    
C102  H66   S    
C69   N9    A    
N34   H49   S    
C6    H38   S    
C108  H91   S    
C59   C65   S    
C55   C80   S    
C16   C95   A    
C44   C52   S    
N3    N16   A    
C46   N6    A    
C43   C51   S    
C19   C51   S    
N7    N11   A    
C48   N8    A    
C28   C30   A    
N37   C101  S    
N2    Ni2   S    
C41   H5    S    
C53   C78   S    
C10   C33   S    
C55   Cl7   S    
N2    N13   A    
C98   H50   S    
C70   C82   A    
C108  H92   S    
C33   C37   A    
N22   Ni6   S    
C1    N1    A    
C6    C10   A    
C15   C91   A    
C99   H54   S    
C42   H10   S    
N7    Ni7   S    
N33   C97   S    
N10   Ni1   S    
C56   C60   D    
C21   C82   S    
C2    H2    S    
C20   C52   S    
N35   H53   S    
C106  H83   S    
N14   Ni5   S    
C73   N13   A    
N36   C100  S    
C63   H23   S    
C15   C63   S    
C46   H26   S    
C5    C9    A    
C16   C64   S    
C101  H64   S    
N21   Ni5   S    
N34   C98   S    
C20   C24   A    
C37   C43   S    
N5    N9    A    
C7    H39   S    
C8    N32   A    
N17   Ni1   S    
N27   Ni4   S    
C99   H55   S    
C52   Cl4   S    
