data_mof_unit_16224.cif
_audit_creation_date              2012-12-10T17:08:27-0500
_audit_creation_method            fapswitch 2.2
_symmetry_space_group_name_H-M    P1
_symmetry_Int_Tables_number       1
_space_group_crystal_system       triclinic
_cell_length_a                    18.438665
_cell_length_b                    18.438356
_cell_length_c                    34.312426
_cell_angle_alpha                 89.998149
_cell_angle_beta                  89.998495
_cell_angle_gamma                 90.004063
_cell_volume                      11665.4928971

loop_
_atom_site_label
_atom_site_type_symbol
_atom_type_description
_atom_site_fract_x
_atom_site_fract_y
_atom_site_fract_z
_atom_type_partial_charge
C1    C     C_R   0.000001 0.500001 0.894428 0.631446
C2    C     C_R   0.999422 0.567018 0.790910 -0.001677
C3    C     C_R   0.707606 0.755618 0.892142 0.041363
C4    C     C_R   0.769773 0.711234 0.891856 0.039990
C5    C     C_R   0.714022 0.228893 0.891673 0.043047
C6    C     C_R   0.230244 0.288779 0.891855 0.039988
C7    C     C_R   0.286038 0.771089 0.891675 0.043012
C8    C     C_R   0.739541 0.210390 0.391885 0.032993
C9    C     C_R   0.792304 0.744230 0.392131 0.041338
C10   C     C_R   0.260354 0.789724 0.391889 0.032928
C11   C     C_R   0.207739 0.255830 0.392130 0.041302
C12   C     C_R   0.269846 0.211362 0.391847 0.040014
C13   C     C_R   0.433048 0.999970 0.790842 0.053111
C14   C     C_R   0.213631 0.729259 0.391680 0.042838
C15   C     C_R   0.730182 0.788678 0.391847 0.040000
C16   C     C_R   0.786263 0.270856 0.391680 0.042914
C17   C     C_R   0.277075 0.777775 0.963154 0.000686
C18   C     C_R   0.222602 0.277750 0.963187 -0.002008
C19   C     C_R   0.722940 0.222223 0.963155 0.000677
C20   C     C_R   0.777402 0.722255 0.963189 -0.002004
C21   C     C_R   0.721108 0.773884 0.962911 -0.001976
C22   C     C_R   0.775362 0.277794 0.962953 -0.001686
C23   C     C_R   0.278894 0.226117 0.962910 -0.001976
C24   C     C_R   0.000587 0.432981 0.790913 -0.001668
C25   C     C_R   0.224657 0.722200 0.962951 -0.001682
C26   C     C_R   0.777126 0.277722 0.463148 0.000701
C27   C     C_R   0.722581 0.777719 0.463184 -0.001987
C28   C     C_R   0.222855 0.722305 0.463141 0.000708
C29   C     C_R   0.277427 0.222292 0.463187 -0.001982
C30   C     C_R   0.221162 0.273956 0.462911 -0.001931
C31   C     C_R   0.275289 0.777867 0.462942 -0.001639
C32   C     C_R   0.778853 0.726063 0.462909 -0.001943
C33   C     C_R   0.724693 0.222160 0.462947 -0.001665
C34   C     C_R   0.195720 0.697122 0.999030 0.033585
C35   C     C_R   0.066942 0.500295 0.290839 0.053175
C36   C     C_R   0.303030 0.195992 0.998953 0.034388
C37   C     C_R   0.804280 0.302880 0.999031 0.033599
C38   C     C_R   0.696969 0.804007 0.998953 0.034394
C39   C     C_R   0.803912 0.695687 0.999265 0.041318
C40   C     C_R   0.695656 0.196235 0.999221 0.042134
C41   C     C_R   0.196088 0.304312 0.999264 0.041316
C42   C     C_R   0.304340 0.803770 0.999221 0.042131
C43   C     C_R   0.695714 0.197127 0.499025 0.033575
C44   C     C_R   0.803022 0.695979 0.498952 0.034417
C45   C     C_R   0.304298 0.802859 0.499021 0.033551
C46   C     C_R   0.499453 0.067017 0.290911 -0.001690
C47   C     C_R   0.196973 0.304019 0.498954 0.034434
C48   C     C_R   0.303907 0.195688 0.499263 0.041334
C49   C     C_R   0.195658 0.696229 0.499210 0.042094
C50   C     C_R   0.696089 0.804309 0.499261 0.041326
C51   C     C_R   0.804343 0.303768 0.499216 0.042110
C52   C     C_R   0.223732 0.722848 0.035095 -0.021271
C53   C     C_R   0.276442 0.223117 0.035058 -0.019525
C54   C     C_R   0.776242 0.277173 0.035094 -0.021248
C55   C     C_R   0.723553 0.776878 0.035058 -0.019524
C56   C     C_R   0.773285 0.718762 0.034993 -0.013002
C57   C     C_R   0.933040 0.499826 0.290844 0.053166
C58   C     C_R   0.718223 0.227305 0.034946 -0.011813
C59   C     C_R   0.226711 0.281234 0.034993 -0.012977
C60   C     C_R   0.281755 0.772710 0.034947 -0.011825
C61   C     C_R   0.723700 0.222882 0.535091 -0.021229
C62   C     C_R   0.776462 0.723134 0.535057 -0.019532
C63   C     C_R   0.276343 0.777056 0.535086 -0.021248
C64   C     C_R   0.223502 0.276836 0.535059 -0.019519
C65   C     C_R   0.273247 0.218731 0.534990 -0.012992
C66   C     C_R   0.218300 0.727221 0.534938 -0.011817
C67   C     C_R   0.726731 0.781249 0.534988 -0.012999
C68   C     C_R   0.500549 0.932980 0.290914 -0.001714
C69   C     C_R   0.781725 0.272739 0.534944 -0.011813
C70   C     C_R   0.434655 0.012207 0.831635 -0.005042
C71   C     C_R   0.989757 0.434164 0.831790 -0.025645
C72   C     C_R   0.565345 0.987792 0.831634 -0.005043
C73   C     C_R   0.010256 0.565835 0.831787 -0.025643
C74   C     C_R   0.934618 0.512055 0.331639 -0.005030
C75   C     C_R   0.489714 0.934169 0.331791 -0.025621
C76   C     C_R   0.065376 0.488026 0.331631 -0.005018
C77   C     C_R   0.510290 0.065828 0.331788 -0.025618
C78   C     C_3   0.193309 0.694175 0.073491 -0.338415
C79   C     C_R   0.499999 0.999995 0.770343 -0.002369
C80   C     C_3   0.304125 0.191818 0.073461 -0.337057
C81   C     C_3   0.806631 0.305876 0.073490 -0.338462
C82   C     C_3   0.695865 0.808173 0.073461 -0.337056
C83   C     C_3   0.789414 0.678587 0.072788 -0.340708
C84   C     C_3   0.677561 0.211544 0.072625 -0.340467
C85   C     C_3   0.210581 0.321406 0.072787 -0.340753
C86   C     C_3   0.322404 0.788475 0.072627 -0.340465
C87   C     C_3   0.693249 0.194243 0.573487 -0.338486
C88   C     C_3   0.804176 0.691863 0.573459 -0.337062
C89   C     C_3   0.306843 0.805614 0.573486 -0.338475
C90   C     C_R   0.000003 0.500000 0.770438 0.020954
C91   C     C_3   0.195735 0.308067 0.573460 -0.337068
C92   C     C_3   0.289355 0.178533 0.572779 -0.340730
C93   C     C_3   0.177675 0.711427 0.572626 -0.340380
C94   C     C_3   0.710620 0.821444 0.572777 -0.340713
C95   C     C_3   0.822351 0.288521 0.572630 -0.340434
C96   C     C_2   0.230484 0.660255 0.858340 0.285631
C97   C     C_2   0.344777 0.239639 0.859256 0.336911
C98   C     C_2   0.769598 0.339729 0.858339 0.285524
C99   C     C_2   0.655233 0.760360 0.859258 0.336922
C100  C     C_2   0.800894 0.679243 0.855946 0.279863
C101  C     C_R   0.999989 0.500058 0.270344 -0.002373
C102  C     C_2   0.681657 0.198228 0.855749 0.266368
C103  C     C_2   0.199135 0.320781 0.855945 0.279869
C104  C     C_2   0.318430 0.801743 0.855752 0.266323
C105  C     C_2   0.730697 0.159993 0.358384 0.285875
C106  C     C_2   0.844629 0.739390 0.359230 0.336885
C107  C     C_2   0.269143 0.840163 0.358402 0.286151
C108  C     C_2   0.155434 0.260704 0.359223 0.336820
C109  C     C_2   0.300956 0.179368 0.355935 0.279902
C110  C     C_2   0.180998 0.698811 0.355767 0.266095
C111  C     C_2   0.699074 0.820677 0.355935 0.279883
C112  C     C_R   0.500000 0.000001 0.894383 0.447642
C113  C     C_R   0.500000 0.999999 0.270439 0.020950
C114  C     C_2   0.818827 0.301362 0.355764 0.266214
C115  C     C_2   0.371018 0.042237 0.853206 0.188776
C116  C     C_2   0.961854 0.368376 0.852383 0.171823
C117  C     C_2   0.628979 0.957761 0.853204 0.188788
C118  C     C_2   0.038168 0.631619 0.852376 0.171837
C119  C     C_2   0.870912 0.541929 0.353212 0.188698
C120  C     C_2   0.461767 0.868398 0.352382 0.171854
C121  C     C_2   0.129104 0.458171 0.353191 0.188682
C122  C     C_2   0.538236 0.131598 0.352376 0.171849
C123  C     C_3   0.699019 0.045385 0.790089 -0.333757
C124  C     C_R   0.632215 0.014753 0.769967 0.009605
C125  C     C_3   0.956441 0.700068 0.789728 -0.379701
C126  C     C_3   0.300985 0.954593 0.790102 -0.333778
C127  C     C_3   0.043577 0.299935 0.789733 -0.379696
C128  C     C_3   0.198859 0.546106 0.290100 -0.333919
C129  C     C_3   0.456538 0.200089 0.289731 -0.379692
C130  C     C_3   0.801088 0.454109 0.290108 -0.333823
C131  C     C_3   0.543476 0.799913 0.289738 -0.379703
C132  C     C_2   0.198912 0.534514 0.207427 0.272862
C133  C     C_2   0.470935 0.199843 0.207204 0.277012
C134  C     C_2   0.801038 0.465692 0.207440 0.272787
C135  C     C_R   0.986106 0.632486 0.769849 -0.042208
C136  C     C_2   0.529060 0.800153 0.207212 0.277004
C137  C     C_2   0.699064 0.033684 0.707429 0.272651
C138  C     C_2   0.970854 0.699830 0.707202 0.277016
C139  C     C_2   0.300933 0.966295 0.707441 0.272664
C140  C     C_2   0.029143 0.300169 0.707209 0.277008
C141  C     C_2   0.126041 0.449601 0.147067 0.287903
C142  C     C_2   0.553838 0.124596 0.147174 0.286698
C143  C     C_2   0.873967 0.550445 0.147048 0.287919
C144  C     C_2   0.446153 0.875401 0.147181 0.286695
C145  C     C_2   0.625870 0.949175 0.647054 0.287999
C146  C     C_R   0.367785 0.985230 0.769975 0.009635
C147  C     C_2   0.053801 0.624615 0.647173 0.286690
C148  C     C_2   0.374122 0.050805 0.647058 0.288002
C149  C     C_2   0.946194 0.375385 0.647181 0.286698
C150  C     C_R   0.013903 0.367514 0.769853 -0.042199
C151  C     C_R   0.132155 0.515268 0.269970 0.009754
C152  C     C_R   0.486166 0.132492 0.269850 -0.042228
C153  C     C_R   0.867817 0.484896 0.269976 0.009673
C154  C     C_R   0.513838 0.867506 0.269856 -0.042254
C155  C     C_R   0.132126 0.512126 0.228823 0.061568
C156  C     C_R   0.500001 1.000000 0.394429 0.631422
C157  C     C_R   0.490572 0.132377 0.228748 0.069312
C158  C     C_R   0.867846 0.488031 0.228828 0.061525
C159  C     C_R   0.509426 0.867620 0.228753 0.069296
C160  C     C_R   0.632180 0.011584 0.728821 0.061499
C161  C     C_R   0.990518 0.632374 0.728746 0.069342
C162  C     C_R   0.367818 0.988398 0.728828 0.061502
C163  C     C_R   0.009484 0.367626 0.728751 0.069348
C164  C     C_R   0.066490 0.497579 0.208704 0.043870
C165  C     C_R   0.503907 0.066399 0.208735 0.043515
C166  C     C_R   0.933491 0.502520 0.208704 0.043852
C167  C     C_R   0.000001 0.500002 0.394384 0.447636
C168  C     C_R   0.496088 0.933597 0.208738 0.043513
C169  C     C_R   0.566488 0.997294 0.708702 0.043820
C170  C     C_R   0.003883 0.566402 0.708735 0.043522
C171  C     C_R   0.433508 0.002689 0.708705 0.043817
C172  C     C_R   0.996116 0.433598 0.708737 0.043524
C173  C     C_R   0.999989 0.500052 0.229329 -0.018729
C174  C     C_R   0.499999 0.999998 0.229398 -0.008515
C175  C     C_R   0.499999 0.999993 0.729329 -0.018690
C176  C     C_R   0.000001 0.500000 0.729398 -0.008527
C177  C     C_R   0.064184 0.483817 0.168154 0.029807
C178  C     C_R   0.500000 0.000002 0.851865 -0.041900
C179  C     C_R   0.517887 0.063699 0.168207 0.026917
C180  C     C_R   0.935806 0.516229 0.168147 0.029819
C181  C     C_R   0.482107 0.936298 0.168211 0.026911
C182  C     C_R   0.564131 0.983574 0.668149 0.029785
C183  C     C_R   0.017865 0.563707 0.668207 0.026913
C184  C     C_R   0.435864 0.016410 0.668151 0.029779
C185  C     C_R   0.982130 0.436293 0.668210 0.026910
C186  C     C_R   0.999995 0.500003 0.147880 -0.031216
C187  C     C_R   0.499997 0.999998 0.147913 -0.032193
C188  C     C_R   0.499998 0.999995 0.647880 -0.031221
C189  C     C_R   0.000004 0.500000 0.852034 0.029413
C190  C     C_R   0.999997 0.500000 0.647913 -0.032198
C191  C     C_R   0.000000 0.500000 0.105529 0.452698
C192  C     C_R   0.499999 0.999998 0.105541 0.457162
C193  C     C_R   0.499999 0.999999 0.605529 0.452748
C194  C     C_R   0.999999 0.499999 0.605541 0.457163
C195  C     C_R   0.860446 0.640149 0.999618 0.496804
C196  C     C_R   0.359809 0.860448 0.999575 0.492288
C197  C     C_R   0.139554 0.359850 0.999617 0.496828
C198  C     C_R   0.640190 0.139555 0.999575 0.492286
C199  C     C_R   0.139504 0.640594 0.999492 0.505489
C200  C     C_R   0.999996 0.500015 0.351865 -0.041880
C201  C     C_R   0.640635 0.860484 0.999427 0.497006
C202  C     C_R   0.860497 0.359406 0.999493 0.505485
C203  C     C_R   0.359364 0.139516 0.999427 0.497017
C204  C     C_R   0.360447 0.140152 0.499615 0.496795
C205  C     C_R   0.859806 0.360450 0.499572 0.492288
C206  C     C_R   0.639552 0.859846 0.499614 0.496814
C207  C     C_R   0.140196 0.639547 0.499568 0.492296
C208  C     C_R   0.639500 0.140597 0.499490 0.505505
C209  C     C_R   0.140635 0.360487 0.499428 0.496980
C210  C     C_R   0.360503 0.859398 0.499488 0.505535
C211  C     C_R   0.500002 0.999999 0.352034 0.029435
C212  C     C_R   0.859364 0.639513 0.499427 0.497006
C213  C     C_R   0.203163 0.693003 0.926414 -0.137518
C214  C     C_R   0.309691 0.206917 0.926353 -0.143149
C215  C     C_R   0.796877 0.306985 0.926416 -0.137525
C216  C     C_R   0.690311 0.793082 0.926353 -0.143155
C217  C     C_R   0.805533 0.697723 0.927036 -0.135496
C218  C     C_R   0.698496 0.194240 0.926954 -0.140598
C219  C     C_R   0.194479 0.302288 0.927034 -0.135496
C220  C     C_R   0.301536 0.805754 0.926953 -0.140586
C221  C     C_R   0.703233 0.192925 0.426413 -0.137477
C222  C     C_R   0.566952 0.000021 0.790839 0.053109
C223  C     C_R   0.809601 0.706794 0.426351 -0.143097
C224  C     C_R   0.296714 0.807141 0.426407 -0.137430
C225  C     C_R   0.190436 0.293253 0.426352 -0.143106
C226  C     C_R   0.305560 0.197770 0.427032 -0.135499
C227  C     C_R   0.198288 0.694444 0.426936 -0.140602
C228  C     C_R   0.694454 0.802249 0.427030 -0.135514
C229  C     C_R   0.801662 0.305620 0.426943 -0.140596
C230  C     C_R   0.239370 0.710581 0.891872 0.033054
C231  C     C_R   0.292404 0.244386 0.892141 0.041364
C232  C     C_R   0.760692 0.289401 0.891871 0.033076
H1    H     H_    0.160482 0.653623 0.923764 0.169390
H2    H     H_    0.849948 0.665160 0.423371 0.138733
H3    H     H_    0.090881 0.278181 0.773494 0.189370
H4    H     H_    0.188522 0.563050 0.320437 0.155124
H5    H     H_    0.243795 0.506071 0.289420 0.171414
H6    H     H_    0.216994 0.596245 0.275091 0.171704
H7    H     H_    0.434784 0.189169 0.319094 0.177191
H8    H     H_    0.499158 0.242516 0.291274 0.124161
H9    H     H_    0.409245 0.221874 0.273497 0.189406
H10   H     H_    0.811417 0.437139 0.320442 0.155306
H11   H     H_    0.756186 0.494184 0.289437 0.171444
H12   H     H_    0.782905 0.403993 0.275096 0.171852
H13   H     H_    0.339428 0.846484 0.423745 0.169445
H14   H     H_    0.565232 0.810837 0.319100 0.177187
H15   H     H_    0.500863 0.757481 0.291286 0.124077
H16   H     H_    0.590771 0.778134 0.273502 0.189398
H17   H     H_    0.251814 0.516632 0.217398 0.125139
H18   H     H_    0.490750 0.252055 0.217188 0.124899
H19   H     H_    0.748159 0.483659 0.217402 0.125172
H20   H     H_    0.509246 0.747942 0.217201 0.124859
H21   H     H_    0.751878 0.015528 0.717391 0.125246
H22   H     H_    0.990643 0.752052 0.717187 0.124928
H23   H     H_    0.248119 0.984447 0.717406 0.125235
H24   H     H_    0.150097 0.334897 0.423374 0.138686
H25   H     H_    0.009352 0.247949 0.717197 0.124937
H26   H     H_    0.136112 0.461976 0.116653 0.098592
H27   H     H_    0.541425 0.135320 0.116835 0.101818
H28   H     H_    0.863859 0.537990 0.116648 0.098580
H29   H     H_    0.458561 0.864679 0.116841 0.101827
H30   H     H_    0.636075 0.961673 0.616667 0.098669
H31   H     H_    0.041401 0.635325 0.616831 0.101824
H32   H     H_    0.363919 0.038307 0.616671 0.098662
H33   H     H_    0.958597 0.364673 0.616839 0.101808
H34   H     H_    0.355233 0.166839 0.425512 0.148677
H35   H     H_    0.166032 0.645647 0.425371 0.120444
H36   H     H_    0.644774 0.833170 0.425510 0.148673
H37   H     H_    0.833922 0.354415 0.425383 0.120444
H38   H     H_    0.221379 0.713396 0.099981 0.151472
H39   H     H_    0.136368 0.712402 0.077012 0.179969
H40   H     H_    0.195899 0.633996 0.073975 0.145804
H41   H     H_    0.350066 0.165316 0.923363 0.138819
H42   H     H_    0.284343 0.219366 0.099990 0.149834
H43   H     H_    0.285619 0.134871 0.076527 0.179673
H44   H     H_    0.364291 0.194260 0.074382 0.149462
H45   H     H_    0.778532 0.286684 0.099979 0.151463
H46   H     H_    0.863569 0.287650 0.077029 0.179956
H47   H     H_    0.804046 0.366055 0.073956 0.145735
H48   H     H_    0.715639 0.780618 0.099991 0.149838
H49   H     H_    0.714375 0.865118 0.076528 0.179677
H50   H     H_    0.635698 0.805735 0.074381 0.149456
H51   H     H_    0.737904 0.664238 0.087676 0.149289
H52   H     H_    0.839561 0.346362 0.923768 0.169390
H53   H     H_    0.816781 0.625809 0.068641 0.138451
H54   H     H_    0.823428 0.712813 0.092147 0.173238
H55   H     H_    0.662584 0.263204 0.087175 0.147694
H56   H     H_    0.625089 0.183675 0.068367 0.139880
H57   H     H_    0.711726 0.178141 0.092318 0.174198
H58   H     H_    0.262089 0.335750 0.087675 0.149294
H59   H     H_    0.183219 0.374188 0.068639 0.138434
H60   H     H_    0.176561 0.287183 0.092146 0.173165
H61   H     H_    0.337339 0.736817 0.087193 0.147710
H62   H     H_    0.374900 0.816301 0.068366 0.139865
H63   H     H_    0.649932 0.834678 0.923363 0.138829
H64   H     H_    0.288249 0.821918 0.092304 0.174183
H65   H     H_    0.721307 0.213476 0.599977 0.151330
H66   H     H_    0.636309 0.212481 0.576994 0.179922
H67   H     H_    0.695829 0.134064 0.573984 0.145871
H68   H     H_    0.784410 0.719429 0.599986 0.149889
H69   H     H_    0.785679 0.634917 0.576540 0.179677
H70   H     H_    0.864342 0.694311 0.574366 0.149437
H71   H     H_    0.278829 0.786312 0.599977 0.151288
H72   H     H_    0.363789 0.787370 0.576958 0.179904
H73   H     H_    0.304257 0.865791 0.574021 0.145961
H74   H     H_    0.855242 0.666848 0.925515 0.148721
H75   H     H_    0.215448 0.280464 0.599988 0.149909
H76   H     H_    0.214235 0.365007 0.576564 0.179681
H77   H     H_    0.135566 0.305628 0.574341 0.149377
H78   H     H_    0.237834 0.164119 0.587637 0.149206
H79   H     H_    0.316784 0.125789 0.568630 0.138411
H80   H     H_    0.323302 0.212773 0.592163 0.173384
H81   H     H_    0.162832 0.763070 0.587231 0.147808
H82   H     H_    0.125127 0.683698 0.568364 0.139870
H83   H     H_    0.211799 0.677882 0.592267 0.174123
H84   H     H_    0.762135 0.835800 0.587654 0.149240
H85   H     H_    0.666234 0.145443 0.925410 0.120375
H86   H     H_    0.683254 0.874220 0.568621 0.138368
H87   H     H_    0.676613 0.787232 0.592147 0.173383
H88   H     H_    0.837275 0.236871 0.587205 0.147758
H89   H     H_    0.874853 0.316341 0.568375 0.139911
H90   H     H_    0.788188 0.321975 0.592295 0.174126
H91   H     H_    0.185338 0.622711 0.857815 0.089820
H92   H     H_    0.385882 0.197591 0.859249 0.129829
H93   H     H_    0.814699 0.377328 0.857836 0.089853
H94   H     H_    0.614113 0.802393 0.859255 0.129825
H95   H     H_    0.834349 0.630896 0.857901 0.102104
H96   H     H_    0.144774 0.333169 0.925512 0.148736
H97   H     H_    0.632540 0.165894 0.857641 0.091356
H98   H     H_    0.165688 0.369134 0.857899 0.102113
H99   H     H_    0.367523 0.834114 0.857652 0.091368
H100  H     H_    0.685406 0.122630 0.357797 0.089753
H101  H     H_    0.885634 0.697245 0.359199 0.129874
H102  H     H_    0.314580 0.877342 0.357734 0.089660
H103  H     H_    0.114472 0.302886 0.359182 0.129889
H104  H     H_    0.334381 0.130999 0.357886 0.102145
H105  H     H_    0.132064 0.666206 0.357728 0.091426
H106  H     H_    0.665636 0.869039 0.357888 0.102118
H107  H     H_    0.333791 0.854556 0.925408 0.120381
H108  H     H_    0.867868 0.333809 0.357700 0.091474
H109  H     H_    0.364378 0.032603 0.884184 0.100476
H110  H     H_    0.928179 0.330067 0.836641 0.125706
H111  H     H_    0.635622 0.967400 0.884181 0.100479
H112  H     H_    0.071845 0.669925 0.836630 0.125665
H113  H     H_    0.864301 0.532287 0.384192 0.100431
H114  H     H_    0.428073 0.830108 0.336637 0.125383
H115  H     H_    0.135712 0.467786 0.384174 0.100394
H116  H     H_    0.571936 0.169884 0.336629 0.125520
H117  H     H_    0.688724 0.062402 0.820418 0.155436
H118  H     H_    0.660515 0.153587 0.423758 0.169427
H119  H     H_    0.743815 0.005192 0.789428 0.171519
H120  H     H_    0.717324 0.095444 0.775062 0.171962
H121  H     H_    0.934692 0.689137 0.819090 0.177202
H122  H     H_    0.999040 0.742517 0.791271 0.124244
H123  H     H_    0.909136 0.721826 0.773493 0.189376
H124  H     H_    0.311284 0.937579 0.820432 0.155389
H125  H     H_    0.256185 0.994781 0.789442 0.171507
H126  H     H_    0.282683 0.904531 0.775080 0.171939
H127  H     H_    0.065332 0.310869 0.819093 0.177207
H128  H     H_    0.000983 0.257483 0.791282 0.124262
O1    O     O_3   0.000000 0.500000 0.999990 -0.448041
O2    O     O_R   1.000000 0.560750 0.412560 -0.559096
O3    O     O_R   0.439250 0.000000 0.412560 -0.523851
O4    O     O_R   1.000000 0.439250 0.412560 -0.559058
O5    O     O_R   1.000000 0.560690 0.087420 -0.545786
O6    O     O_R   0.439310 0.000000 0.087420 -0.541971
O7    O     O_R   1.000000 0.439310 0.087420 -0.545841
O8    O     O_R   0.560690 0.000000 0.087420 -0.541958
O9    O     O_R   0.500000 0.060690 0.587420 -0.545822
O10   O     O_R   0.939310 0.500000 0.587420 -0.541966
O11   O     O_R   0.500000 0.939310 0.587420 -0.545840
O12   O     O_3   0.500000 1.000000 0.999990 -0.439824
O13   O     O_R   0.060690 0.500000 0.587420 -0.541962
O14   O     O_R   0.853830 0.585440 0.977070 -0.551630
O15   O     O_R   0.414560 0.853830 0.977070 -0.547059
O16   O     O_R   0.146170 0.414560 0.977070 -0.551628
O17   O     O_R   0.585440 0.146170 0.977070 -0.547062
O18   O     O_R   0.146170 0.585440 0.977070 -0.550007
O19   O     O_R   0.585440 0.853830 0.977070 -0.552751
O20   O     O_R   0.853830 0.414560 0.977070 -0.550012
O21   O     O_R   0.414560 0.146170 0.977070 -0.552747
O22   O     O_R   0.353830 0.085440 0.477070 -0.551591
O23   O     O_3   0.500000 0.000000 0.499990 -0.448053
O24   O     O_R   0.914560 0.353830 0.477070 -0.547076
O25   O     O_R   0.646170 0.914560 0.477070 -0.551601
O26   O     O_R   0.085440 0.646170 0.477070 -0.547092
O27   O     O_R   0.646170 0.085440 0.477070 -0.549973
O28   O     O_R   0.085440 0.353830 0.477070 -0.552647
O29   O     O_R   0.353830 0.914560 0.477070 -0.549947
O30   O     O_R   0.914560 0.646170 0.477070 -0.552659
O31   O     O_R   0.085460 0.353830 0.022910 -0.536616
O32   O     O_R   0.646170 0.085460 0.022910 -0.538792
O33   O     O_R   0.914540 0.646170 0.022910 -0.536615
O34   O     O_3   0.000000 0.500000 0.499990 -0.439836
O35   O     O_R   0.353830 0.914540 0.022910 -0.538806
O36   O     O_R   0.914540 0.353830 0.022910 -0.542538
O37   O     O_R   0.353830 0.085460 0.022910 -0.544512
O38   O     O_R   0.085460 0.646170 0.022910 -0.542551
O39   O     O_R   0.646170 0.914540 0.022910 -0.544509
O40   O     O_R   0.585460 0.853830 0.522910 -0.536631
O41   O     O_R   0.146170 0.585460 0.522910 -0.538814
O42   O     O_R   0.414540 0.146170 0.522910 -0.536625
O43   O     O_R   0.853830 0.414540 0.522910 -0.538820
O44   O     O_R   0.414540 0.853830 0.522910 -0.542621
O45   O     O_R   0.060750 0.500000 0.912560 -0.523876
O46   O     O_R   0.853830 0.585460 0.522910 -0.544524
O47   O     O_R   0.585460 0.146170 0.522910 -0.542579
O48   O     O_R   0.146170 0.414540 0.522910 -0.544513
O49   O     O_2   0.276203 0.655247 0.832771 -0.408206
O50   O     O_2   0.347085 0.285459 0.833629 -0.407286
O51   O     O_2   0.723940 0.344665 0.832736 -0.408226
O52   O     O_2   0.652947 0.714552 0.833626 -0.407268
O53   O     O_2   0.792964 0.708178 0.824244 -0.441179
O54   O     O_2   0.710922 0.205402 0.824094 -0.461023
O55   O     O_2   0.207064 0.291847 0.824243 -0.441183
O56   O     O_R   0.500000 0.060750 0.912560 -0.559066
O57   O     O_2   0.289217 0.794517 0.824088 -0.461002
O58   O     O_2   0.776596 0.154715 0.332922 -0.408002
O59   O     O_2   0.847020 0.785237 0.333618 -0.407178
O60   O     O_2   0.223055 0.845688 0.333055 -0.407902
O61   O     O_2   0.153012 0.214848 0.333619 -0.407195
O62   O     O_2   0.293044 0.208316 0.324234 -0.441244
O63   O     O_2   0.209821 0.706486 0.324029 -0.460729
O64   O     O_2   0.706997 0.791738 0.324234 -0.441208
O65   O     O_2   0.789823 0.293924 0.324059 -0.460879
O66   O     O_2   0.326220 0.080061 0.836695 -0.510231
O67   O     O_R   0.939250 0.500000 0.912560 -0.523896
O68   O     O_2   0.977998 0.354597 0.886090 -0.543543
O69   O     O_2   0.673773 0.919930 0.836694 -0.510223
O70   O     O_2   0.022030 0.645401 0.886083 -0.543539
O71   O     O_2   0.826019 0.579643 0.336702 -0.510247
O72   O     O_2   0.477895 0.854608 0.386090 -0.543523
O73   O     O_2   0.174019 0.420504 0.336668 -0.510212
O74   O     O_2   0.522098 0.145393 0.386081 -0.543546
O75   O     O_2   0.195420 0.575713 0.179611 -0.504910
O76   O     O_2   0.429810 0.197791 0.179317 -0.503529
O77   O     O_2   0.804485 0.424439 0.179648 -0.504893
O78   O     O_R   0.500000 0.939250 0.912560 -0.559066
O79   O     O_2   0.570182 0.802203 0.179322 -0.503527
O80   O     O_2   0.695761 0.074950 0.679636 -0.504936
O81   O     O_2   0.929737 0.697759 0.679312 -0.503553
O82   O     O_2   0.304235 0.925029 0.679649 -0.504911
O83   O     O_2   0.070259 0.302238 0.679316 -0.503570
O84   O     O_2   0.164894 0.405279 0.163306 -0.496991
O85   O     O_2   0.599495 0.161908 0.163389 -0.502994
O86   O     O_2   0.835175 0.594852 0.163260 -0.497052
O87   O     O_2   0.400499 0.838089 0.163401 -0.503018
O88   O     O_2   0.664475 0.904592 0.663256 -0.497040
O89   O     O_R   0.560750 0.000000 0.412560 -0.523883
O90   O     O_2   0.099436 0.661950 0.663392 -0.502948
O91   O     O_2   0.335514 0.095385 0.663260 -0.497039
O92   O     O_2   0.900559 0.338052 0.663402 -0.502922
Zn1   Zn    Zn3+2 0.000000 0.586740 0.032740 0.942251
Zn2   Zn    Zn3+2 0.500000 0.913250 0.967240 0.911179
Zn3   Zn    Zn3+2 0.086750 0.500000 0.967240 0.966282
Zn4   Zn    Zn3+2 0.500000 0.086750 0.967240 0.911185
Zn5   Zn    Zn3+2 0.413250 0.000000 0.467240 0.966365
Zn6   Zn    Zn3+2 0.000000 0.413250 0.467240 0.911223
Zn7   Zn    Zn3+2 0.586750 0.000000 0.467240 0.966323
Zn8   Zn    Zn3+2 1.000000 0.586750 0.467240 0.911214
Zn9   Zn    Zn3+2 0.413260 0.000000 0.032740 0.931084
Zn10  Zn    Zn3+2 0.000000 0.413260 0.032740 0.942234
Zn11  Zn    Zn3+2 0.586740 0.000000 0.032740 0.931095
Zn12  Zn    Zn3+2 0.500000 0.086740 0.532740 0.942243
Zn13  Zn    Zn3+2 0.913260 0.500000 0.532740 0.931076
Zn14  Zn    Zn3+2 0.500000 0.913260 0.532740 0.942218
Zn15  Zn    Zn3+2 0.086740 0.500000 0.532740 0.931070
Zn16  Zn    Zn3+2 0.913250 0.500000 0.967240 0.966260

loop_
_geom_bond_atom_site_label_1
_geom_bond_atom_site_label_2
_ccdc_geom_bond_type
C128  H4    S    
C13   C79   A    
C149  H33   S    
C181  C187  A    
C185  C190  A    
O56   Zn4   S    
C141  O84   D    
C170  C176  A    
C68   C75   A    
C150  C163  A    
C43   C61   A    
C79   C222  A    
C81   H45   S    
C127  C150  S    
C191  O7    A    
O12   Zn4   S    
C13   C70   A    
C90   C176  A    
C80   H44   S    
C132  C155  S    
C2    C90   A    
C209  O28   A    
C118  H112  S    
C77   C122  S    
O35   Zn9   S    
C89   H72   S    
C136  C159  S    
C229  H37   S    
C38   C55   A    
O21   Zn4   S    
C67   C94   S    
C167  C200  S    
C151  C155  A    
C48   C65   A    
O27   Zn7   S    
O12   Zn9   S    
C27   C50   A    
C10   C224  A    
C25   C34   A    
C125  C135  S    
C127  H127  S    
C84   H56   S    
C8    C16   A    
O47   Zn12  S    
C199  O38   A    
C213  H1    S    
C144  H29   S    
C91   H77   S    
O22   Zn5   S    
C192  O8    A    
C40   C58   A    
C87   H65   S    
O46   Zn13  S    
O13   Zn15  S    
C88   H70   S    
C129  C152  S    
C95   H89   S    
C47   C64   A    
C60   C86   S    
C111  O64   D    
C35   C101  A    
C128  H5    S    
O18   Zn3   S    
C39   C195  S    
C96   H91   S    
C177  C186  A    
C212  O46   A    
C140  C163  S    
C114  O65   D    
C210  O44   A    
O23   Zn12  S    
C15   C111  S    
C208  O47   A    
C209  O48   A    
C123  H120  S    
O23   Zn14  S    
C39   C56   A    
C21   C216  A    
C164  C173  A    
C78   H39   S    
C163  C172  A    
C41   C59   A    
C83   H54   S    
C125  H121  S    
C124  C222  A    
C201  O39   A    
C147  H31   S    
C116  O68   D    
C56   C83   S    
C112  C178  S    
C194  O10   A    
C119  H113  S    
C152  C157  A    
C196  O35   A    
C137  C160  S    
C43   C208  S    
C81   H47   S    
C139  C162  S    
C82   H48   S    
C69   C95   S    
C24   C90   A    
C191  O5    A    
C46   C77   A    
C70   C115  S    
C127  H3    S    
C126  C146  S    
C180  C186  A    
C17   C25   A    
C25   C213  A    
C9    C15   A    
C145  O88   D    
C227  H35   S    
C124  C160  A    
C169  C182  A    
O12   Zn11  S    
C131  H16   S    
C20   C21   A    
C23   C36   A    
C104  O57   D    
C136  H20   S    
C107  H102  S    
C51   C69   A    
C64   C91   S    
O43   Zn13  S    
C193  O9    A    
C54   C81   S    
C7    C230  A    
C91   H75   S    
C123  H117  S    
C20   C217  A    
O19   Zn2   S    
C101  C173  A    
C96   O49   D    
O78   Zn2   S    
C72   C178  A    
C8    C105  S    
C123  C124  S    
C168  C174  A    
C85   H58   S    
C86   H61   S    
C129  H9    S    
C108  H103  S    
C219  H96   S    
C195  O14   A    
O34   Zn15  S    
C147  C183  S    
C116  H110  S    
C153  C158  A    
C122  O74   D    
C98   O51   D    
C52   C60   A    
C125  H123  S    
C207  O26   A    
C130  H12   S    
C21   C38   A    
C93   H81   S    
O4    Zn6   S    
C37   C202  S    
C94   H86   S    
C36   C53   A    
C228  H36   S    
C50   C67   A    
O1    Zn1   S    
C156  O89   A    
C22   C215  A    
C129  H7    S    
C156  C211  S    
C135  C161  A    
C103  O55   D    
C202  O36   A    
C29   C226  A    
C126  H126  S    
C132  H17   S    
C35   C76   A    
C49   C66   A    
C162  C171  A    
C132  O75   D    
C215  C232  A    
O9    Zn12  S    
C53   C80   S    
C41   C197  S    
C10   C14   A    
C157  C165  A    
C165  C174  A    
C201  O19   A    
C108  O61   D    
C59   C85   S    
C29   C30   A    
C131  H14   S    
O44   Zn14  S    
C193  O11   A    
C28   C49   A    
C26   C33   A    
C12   C226  A    
C172  C185  A    
C141  H26   S    
C63   C89   S    
C210  O29   A    
C182  C188  A    
C217  H74   S    
C148  H32   S    
C121  H115  S    
C187  C192  S    
C2    C73   A    
C24   C150  A    
O31   Zn10  S    
C7    C220  A    
C50   C206  S    
C134  C158  S    
O48   Zn15  S    
O33   Zn1   S    
C188  C193  S    
C168  C181  A    
C47   C209  S    
C149  O92   D    
C167  O4    A    
C165  C179  A    
C166  C180  A    
C37   C54   A    
C3    C4    A    
C82   H50   S    
C104  H99   S    
O26   Zn8   S    
C14   C110  S    
C85   H60   S    
C144  C181  S    
C73   C118  S    
C46   C113  A    
C131  C154  S    
C75   C120  S    
C220  H107  S    
C16   C114  S    
O32   Zn11  S    
C51   C205  S    
C57   C101  A    
C48   C204  S    
O34   Zn13  S    
C2    C135  A    
O89   Zn7   S    
C154  C159  A    
C26   C51   A    
C130  H10   S    
O23   Zn7   S    
C93   H83   S    
C206  O25   A    
C94   H84   S    
C71   C116  S    
C133  C157  S    
C142  H27   S    
O11   Zn14  S    
C19   C40   A    
C89   H71   S    
C31   C224  A    
C3    C99   S    
O1    Zn3   S    
C138  O81   D    
C11   C108  S    
C215  H52   S    
C112  O78   A    
C1    O67   A    
C126  H124  S    
C172  C176  A    
C113  C174  A    
C92   H79   S    
C1    C189  S    
C55   C56   A    
C149  C185  S    
C205  O43   A    
C197  O16   A    
O5    Zn1   S    
C204  O42   A    
O1    Zn10  S    
C197  O31   A    
C198  O32   A    
C146  C162  A    
C75   C211  A    
O1    Zn16  S    
C35   C151  A    
C141  C177  S    
C134  H19   S    
C92   H80   S    
C179  C187  A    
C214  C231  A    
C134  O77   D    
C128  H6    S    
C100  H95   S    
C86   H64   S    
C28   C227  A    
C117  O69   D    
C186  C191  S    
C17   C42   A    
C140  O83   D    
C123  H119  S    
C167  O2    A    
C202  O20   A    
C160  C169  A    
C88   H68   S    
C36   C203  S    
C78   H40   S    
C204  O22   A    
C1    O45   A    
C83   H53   S    
C68   C113  A    
C106  H101  S    
C63   C66   A    
C196  O15   A    
C122  H116  S    
C95   H88   S    
C52   C78   S    
C97   H92   S    
C143  O86   D    
C95   H90   S    
C26   C229  A    
O29   Zn5   S    
C109  O62   D    
C156  O3    A    
C81   H46   S    
C171  C184  A    
C107  O60   D    
C140  H25   S    
C114  H108  S    
C20   C39   A    
C105  O58   D    
C3    C216  A    
C97   O50   D    
C22   C37   A    
C57   C153  A    
C80   H43   S    
C194  O13   A    
C139  H23   S    
C223  H2    S    
C89   H73   S    
C5    C218  A    
C11   C225  A    
C216  H63   S    
C102  O54   D    
C169  C175  A    
C5    C232  A    
C19   C218  A    
C6    C103  S    
C71   C189  A    
C42   C196  S    
O7    Zn10  S    
C17   C220  A    
C131  H15   S    
O45   Zn3   S    
C127  H128  S    
C84   H55   S    
O38   Zn1   S    
C183  C190  A    
C32   C223  A    
C158  C166  A    
C120  H114  S    
C5    C102  S    
C166  C173  A    
C27   C32   A    
C87   H66   S    
C192  O6    A    
C100  O53   D    
C28   C31   A    
C88   H69   S    
O8    Zn11  S    
C203  O21   A    
C109  H104  S    
C34   C52   A    
C86   H62   S    
C15   C228  A    
C64   C65   A    
O67   Zn16  S    
O34   Zn6   S    
C205  O24   A    
C62   C88   S    
C138  C161  S    
C78   H38   S    
C110  H105  S    
C83   H51   S    
C125  H122  S    
O25   Zn7   S    
C115  H109  S    
C31   C45   A    
C94   H87   S    
C203  O37   A    
C138  H22   S    
C142  O85   D    
C73   C189  A    
C213  C230  A    
O41   Zn15  S    
C23   C214  A    
C65   C92   S    
C46   C152  A    
C8    C221  A    
C170  C183  A    
O15   Zn2   S    
C110  O63   D    
C16   C229  A    
C148  O91   D    
C99   O52   D    
O40   Zn14  S    
C53   C59   A    
C208  O27   A    
C92   H78   S    
C106  O59   D    
C74   C119  S    
C198  O17   A    
C40   C198  S    
C62   C67   A    
C76   C121  S    
O10   Zn13  S    
O14   Zn16  S    
O3    Zn5   S    
C68   C154  A    
C115  O66   D    
C27   C228  A    
C214  H41   S    
O16   Zn3   S    
C159  C168  A    
C112  O56   A    
C66   C93   S    
C34   C199  S    
C102  H97   S    
O39   Zn11  S    
C84   H57   S    
C49   C207  S    
C38   C201  S    
C72   C117  S    
C133  O76   D    
C221  H118  S    
C144  O87   D    
C96   C230  S    
O6    Zn9   S    
C61   C87   S    
C199  O18   A    
C91   H76   S    
C6    C231  A    
C30   C225  A    
C10   C107  S    
C13   C146  A    
C18   C219  A    
C136  O79   D    
C12   C109  S    
C85   H59   S    
C111  H106  S    
C29   C48   A    
C18   C23   A    
C33   C43   A    
C79   C175  A    
C30   C47   A    
C19   C22   A    
C118  O70   D    
O42   Zn12  S    
C76   C200  A    
C18   C41   A    
C42   C60   A    
C117  H111  S    
C190  C194  S    
C70   C178  A    
O20   Zn16  S    
C98   H93   S    
C44   C62   A    
C9    C106  S    
C171  C175  A    
C145  C182  S    
C45   C63   A    
C184  C188  A    
C44   C212  S    
C218  H85   S    
C57   C74   A    
O17   Zn4   S    
C58   C84   S    
O12   Zn2   S    
C130  H11   S    
C9    C223  A    
C128  C151  S    
C142  C179  S    
C148  C184  S    
C72   C222  A    
C93   H82   S    
C80   H42   S    
C32   C44   A    
C103  H98   S    
C137  O80   D    
O24   Zn6   S    
C143  C180  S    
C55   C82   S    
C226  H34   S    
C161  C170  A    
C99   H94   S    
C206  O40   A    
C7    C104  S    
C4    C100  S    
C129  H8    S    
C195  O33   A    
C98   C232  S    
C126  H125  S    
C147  O90   D    
C54   C58   A    
C61   C69   A    
O23   Zn5   S    
C105  H100  S    
C119  O71   D    
C120  O72   D    
C143  H28   S    
C74   C200  A    
O36   Zn10  S    
C11   C12   A    
O30   Zn8   S    
C155  C164  A    
C139  O82   D    
O28   Zn6   S    
C45   C210  S    
C87   H67   S    
C14   C227  A    
C207  O41   A    
C212  O30   A    
C97   C231  S    
C225  H24   S    
C130  C153  S    
O37   Zn9   S    
C77   C211  A    
O2    Zn8   S    
C6    C219  A    
C224  H13   S    
C4    C217  A    
O34   Zn8   S    
C145  H30   S    
C121  O73   D    
C82   H49   S    
C133  H18   S    
C137  H21   S    
C164  C177  A    
C24   C71   A    
C33   C221  A    
