data_mof_unit_63404.cif
_audit_creation_date              2013-03-05T16:28:44-0500
_audit_creation_method            fapswitch 2.2
_symmetry_space_group_name_H-M    P1
_symmetry_Int_Tables_number       1
_space_group_crystal_system       triclinic
_cell_length_a                    19.410592
_cell_length_b                    18.11971
_cell_length_c                    23.54757
_cell_angle_alpha                 89.989224
_cell_angle_beta                  90.195728
_cell_angle_gamma                 89.994347
_cell_volume                      8281.96853971

loop_
_atom_site_label
_atom_site_type_symbol
_atom_site_description
_atom_site_fract_x
_atom_site_fract_y
_atom_site_fract_z
_atom_type_partial_charge
O1    O     O_R   0.400190 0.561980 0.499990 -0.580789
O2    O     O_R   0.599810 0.438020 0.500010 -0.582489
O3    O     O_R   0.599810 0.561980 0.500010 -0.581773
O4    O     O_R   0.400190 0.438020 0.499990 -0.580627
C1    C     C_R   0.367495 0.500000 0.499904 0.816032
C2    C     C_R   0.632570 0.499994 0.500105 0.818267
O5    O     O_R   0.499980 0.561970 0.417880 -0.581420
O6    O     O_R   0.500020 0.438030 0.582120 -0.581825
O7    O     O_R   0.500020 0.561970 0.582120 -0.582824
O8    O     O_R   0.499980 0.438030 0.417880 -0.583581
C3    C     C_R   0.499842 0.500008 0.390797 0.838110
C4    C     C_R   0.500151 0.500000 0.609203 0.838193
Cu1   Cu    Cu3+1 0.500000 0.573360 0.500000 0.978647
Cu2   Cu    Cu3+1 0.500000 0.426640 0.500000 0.976580
C5    C     C_R   0.562031 0.498131 0.879966 0.638995
C6    C     C_R   0.437870 0.499300 0.120034 0.639207
N1    N     N_R   0.500689 0.499184 0.851716 -0.474302
N2    N     N_R   0.499220 0.499196 0.148284 -0.474340
C7    C     C_R   0.439254 0.499279 0.879373 0.631331
C8    C     C_R   0.560646 0.498117 0.120627 0.630721
C9    C     C_R   0.437160 0.498839 0.939313 -0.146585
C10   C     C_R   0.562733 0.497661 0.060687 -0.146636
C11   C     C_R   0.500274 0.498225 0.969855 -0.072759
C12   C     C_R   0.499618 0.498234 0.030145 -0.072758
C13   C     C_R   0.563959 0.497643 0.940061 -0.119445
C14   C     C_R   0.435934 0.498851 0.059939 -0.119335
C15   C     C_R   0.374022 0.499111 0.969230 0.268401
C16   C     C_R   0.625865 0.496753 0.030770 0.268280
C17   C     C_R   0.373136 0.499085 0.028751 0.227920
C18   C     C_R   0.626751 0.496705 0.971250 0.227880
O9    O     O_2   0.620358 0.497805 0.849200 -0.437316
O10   O     O_2   0.379546 0.500058 0.150800 -0.437810
O11   O     O_2   0.380715 0.500013 0.848341 -0.428441
O12   O     O_2   0.619188 0.497709 0.151659 -0.428136
C19   C     C_R   0.499175 0.433253 0.238964 -0.111846
C20   C     C_R   0.500580 0.433239 0.761056 -0.110828
H1    H     H_    0.499095 0.381397 0.216112 0.173616
H2    H     H_    0.500506 0.381382 0.783922 0.173969
C21   C     C_R   0.499352 0.433127 0.298136 -0.170286
C22   C     C_R   0.500427 0.433113 0.701883 -0.167468
H3    H     H_    0.499363 0.380689 0.320215 0.182276
H4    H     H_    0.500277 0.380677 0.679818 0.182927
C23   C     C_R   0.499549 0.500046 0.328275 -0.101933
C24   C     C_R   0.500424 0.500031 0.671725 -0.102135
C25   C     C_R   0.499427 0.567038 0.298158 -0.205232
C26   C     C_R   0.500726 0.567024 0.701823 -0.207685
H5    H     H_    0.499501 0.619278 0.320504 0.193065
H6    H     H_    0.500821 0.619265 0.679463 0.192778
C27   C     C_R   0.499250 0.567235 0.238885 0.329146
C28   C     C_R   0.500890 0.567221 0.761096 0.328755
C29   C     C_R   0.499162 0.500064 0.209175 0.258613
C30   C     C_R   0.500765 0.500050 0.790825 0.258531
C31   C     C_R   0.744690 0.433726 0.508149 -0.150058
C32   C     C_R   0.255570 0.436540 0.483102 -0.150422
C33   C     C_R   0.255588 0.563390 0.516360 -0.147878
C34   C     C_R   0.744706 0.566169 0.492485 -0.147366
H7    H     H_    0.717836 0.381981 0.514407 0.172830
H8    H     H_    0.282550 0.387144 0.469878 0.171019
H9    H     H_    0.282578 0.612838 0.529578 0.169846
H10   H     H_    0.717865 0.617961 0.486254 0.172435
C35   C     C_R   0.816446 0.433769 0.508353 -0.037236
C36   C     C_R   0.183806 0.436716 0.482674 -0.034637
C37   C     C_R   0.183832 0.563077 0.516780 -0.035154
C38   C     C_R   0.816459 0.566012 0.492293 -0.036206
H11   H     H_    0.844025 0.382394 0.514529 0.163687
H12   H     H_    0.156173 0.387669 0.469448 0.163835
H13   H     H_    0.156219 0.612066 0.530018 0.161848
H14   H     H_    0.844048 0.617342 0.486114 0.162886
C39   C     C_R   0.852422 0.499854 0.500286 0.205103
C40   C     C_R   0.147908 0.499850 0.499757 0.204564
C41   C     C_R   0.708232 0.499967 0.500253 -0.059949
C42   C     C_R   0.291957 0.499983 0.499778 -0.057366
C43   C     C_R   0.963670 0.510501 0.448676 0.225606
C44   C     C_R   0.036810 0.489497 0.551406 0.227393
C45   C     C_R   0.036109 0.509976 0.448477 0.227218
C46   C     C_R   0.964370 0.488996 0.551477 0.225860
C47   C     C_R   0.072377 0.499747 0.499876 -0.264116
C48   C     C_R   0.928042 0.499774 0.500146 -0.260664
C49   C     C_R   0.456919 0.720809 0.464457 0.009938
C50   C     C_R   0.543491 0.279195 0.535204 0.004178
C51   C     C_R   0.543098 0.720779 0.535533 0.007263
C52   C     C_R   0.456519 0.279218 0.464788 0.006422
H15   H     H_    0.423848 0.689600 0.436242 0.179488
H16   H     H_    0.576873 0.310405 0.563171 0.172644
H17   H     H_    0.576175 0.689549 0.563743 0.177778
H18   H     H_    0.423134 0.310445 0.436821 0.170339
C53   C     C_R   0.456180 0.798583 0.462749 0.204285
C54   C     C_R   0.544264 0.201423 0.536897 0.204781
C55   C     C_R   0.543854 0.798553 0.537232 0.205200
C56   C     C_R   0.455758 0.201446 0.463090 0.205618
C57   C     C_R   0.500017 0.838778 0.499991 -0.150429
C58   C     C_R   0.500014 0.161215 0.499993 -0.148942
N3    N     N_R   0.500000 0.683620 0.500000 -0.225013
N4    N     N_R   0.500000 0.316380 0.500000 -0.221328
C59   C     C_R   0.559381 0.961211 0.484561 -0.057239
C60   C     C_R   0.440659 0.038758 0.515439 -0.057024
C61   C     C_R   0.440654 0.961214 0.515423 -0.057797
C62   C     C_R   0.559375 0.038755 0.484547 -0.058097
H19   H     H_    0.605705 0.931999 0.472375 0.158859
H20   H     H_    0.394337 0.067962 0.527642 0.159347
H21   H     H_    0.394330 0.932005 0.527608 0.158835
H22   H     H_    0.605696 0.067957 0.472344 0.158499
C63   C     C_R   0.500017 0.078429 0.499993 0.179757
C64   C     C_R   0.500017 0.921551 0.499991 0.179501
N5    N     N_R   0.309490 0.499378 0.939523 0.192651
O13   O     O_R   0.279057 0.437351 0.927431 -0.233467
O14   O     O_R   0.278602 0.561558 0.928720 -0.216765
N6    N     N_R   0.690393 0.495859 0.060477 0.192667
O15   O     O_R   0.722060 0.557503 0.071527 -0.215610
O16   O     O_R   0.720044 0.433307 0.072314 -0.234388
N7    N     N_R   0.412107 0.835093 0.422245 0.137356
O17   O     O_R   0.432746 0.894269 0.396011 -0.273991
O18   O     O_R   0.354824 0.804109 0.406074 -0.298117
N8    N     N_R   0.588784 0.164926 0.577068 0.133886
O19   O     O_R   0.646331 0.195826 0.592681 -0.313326
O20   O     O_R   0.568348 0.105889 0.603595 -0.279057
N9    N     N_R   0.587949 0.835031 0.577720 0.137255
O21   O     O_R   0.567331 0.894208 0.603953 -0.274127
O22   O     O_R   0.645239 0.804025 0.593871 -0.303549
N10   N     N_R   0.411244 0.164974 0.422915 0.133809
O23   O     O_R   0.353700 0.195892 0.407292 -0.316353
O24   O     O_R   0.431682 0.105939 0.396398 -0.279712
Br1   Br    Br    0.282655 0.499166 0.063607 -0.170404
Br2   Br    Br    0.717221 0.495153 0.936394 -0.169831
Br3   Br    Br    0.499241 0.659760 0.199499 -0.322025
Br4   Br    Br    0.501259 0.659744 0.800457 -0.324418
N11   N     N_R   0.926371 0.523241 0.396721 0.167594
O25   O     O_R   0.941436 0.579600 0.364839 -0.237540
O26   O     O_R   0.877658 0.478352 0.380854 -0.291596
N12   N     N_R   0.074148 0.481460 0.603909 0.169765
O27   O     O_R   0.058609 0.522243 0.647504 -0.231413
O28   O     O_R   0.123138 0.432801 0.608632 -0.296613
N13   N     N_R   0.072728 0.518010 0.395841 0.170381
O29   O     O_R   0.056612 0.477209 0.352310 -0.231210
O30   O     O_R   0.121617 0.566697 0.390926 -0.288924
N14   N     N_R   0.927782 0.476262 0.603566 0.168294
O31   O     O_R   0.943267 0.419886 0.635381 -0.236860
O32   O     O_R   0.879306 0.521178 0.619624 -0.285944

loop_
_geom_bond_atom_site_label_1
_geom_bond_atom_site_label_2
_geom_bond_distance
_ccdc_geom_bond_type
C52   N4    1.359701 A    
C33   H9    1.083146 S    
C15   C17   1.401730 A    
C19   C21   1.393365 A    
N7    O17   1.301286 A    
C57   C64   1.499821 S    
C50   H16   1.081955 S    
O3    C2    1.290618 A    
C49   C53   1.409877 A    
N8    O19   1.301469 A    
C46   N14   1.438040 S    
C59   C62   1.405078 A    
C21   H3    1.083014 S    
C59   C64   1.406815 A    
O5    C3    1.291304 A    
N5    O14   1.300888 A    
C44   C46   1.406140 A    
O1    C1    1.290017 A    
C38   H14   1.083331 S    
C19   H1    1.082879 S    
C46   C48   1.410833 A    
C49   N3    1.359689 A    
C1    C42   1.466240 S    
C53   C57   1.420850 A    
N9    O22   1.301456 A    
C59   H19   1.082940 S    
C5    C13   1.415491 A    
C53   N7    1.439880 S    
C15   N5    1.432621 S    
C62   C63   1.406915 A    
C17   Br1   1.941164 S    
N6    O15   1.300891 A    
C36   C40   1.399275 A    
O7    Cu1   1.944667 S    
C58   C63   1.500060 S    
C31   C35   1.392819 A    
C54   C58   1.420900 A    
C24   C26   1.405768 A    
C27   C29   1.403970 A    
C44   C47   1.410362 A    
C33   C37   1.392909 A    
C28   C30   1.403961 A    
C43   C48   1.410900 A    
C34   C38   1.392788 A    
C3    C23   1.472235 S    
C28   Br4   1.915802 S    
C55   C57   1.420854 A    
C22   C24   1.405068 A    
C33   C42   1.404524 A    
C20   C30   1.399020 A    
C8    O12   1.348925 S    
C22   H4    1.083007 S    
C9    C15   1.415682 A    
C10   C16   1.415676 A    
Cu1   Cu2   2.658522 S    
C50   C54   1.409850 A    
C40   C47   1.466113 S    
C54   N8    1.439788 S    
C43   C45   1.406137 A    
C39   C48   1.467845 S    
O2    C2    1.290547 A    
N1    C30   1.433931 S    
N10   O24   1.301304 A    
N2    C29   1.433933 S    
C26   H6    1.083097 S    
C25   H5    1.083084 S    
C6    C14   1.415496 A    
C2    C41   1.468650 S    
C37   H13   1.083311 S    
C36   H12   1.083307 S    
C20   C22   1.393369 A    
N14   O32   1.301207 A    
O8    Cu2   1.944671 S    
C31   H7    1.083101 S    
O4    C1    1.289912 A    
C21   C23   1.405092 A    
C32   C36   1.392995 A    
C7    O11   1.348923 S    
C62   H22   1.082937 S    
C34   H10   1.083041 S    
Cu1   N3    1.997879 S    
C56   N10   1.439800 S    
N12   O28   1.301178 A    
N11   O26   1.301199 A    
C43   N11   1.438055 S    
C51   N3    1.359708 A    
C56   C58   1.420904 A    
C37   C40   1.399237 A    
C25   C27   1.395734 A    
O6    C4    1.291439 A    
C34   C41   1.405216 A    
C60   C61   1.405073 A    
N7    O18   1.301464 A    
C38   C39   1.399497 A    
C45   C47   1.410277 A    
C18   Br2   1.941165 S    
C9    C11   1.418501 A    
C19   C29   1.399006 A    
N13   O29   1.301268 A    
C10   C12   1.418499 A    
O1    Cu1   1.948333 S    
C8    C10   1.412201 A    
C50   N4    1.359676 A    
N11   O25   1.301263 A    
C31   C41   1.405290 A    
N10   O23   1.301461 A    
C32   H8    1.083246 S    
C35   C39   1.399492 A    
C13   C18   1.420942 A    
C5    N1    1.362054 A    
O6    Cu2   1.944744 S    
C7    C9    1.412198 A    
C12   C14   1.423494 A    
C55   N9    1.439879 S    
N14   O31   1.301241 A    
O3    Cu1   1.948293 S    
N8    O20   1.301288 A    
C45   N13   1.438276 S    
C5    O9    1.346213 S    
C6    O10   1.346210 S    
C27   Br3   1.915808 S    
N5    O13   1.300882 A    
C26   C28   1.395731 A    
C52   C56   1.409865 A    
C44   N12   1.438304 S    
N12   O27   1.301237 A    
C51   C55   1.409881 A    
C23   C25   1.405734 A    
C52   H18   1.081963 S    
N9    O21   1.301300 A    
C20   H2    1.082886 S    
C49   H15   1.081923 S    
C16   N6    1.432621 S    
C60   H20   1.082938 S    
C16   C18   1.401725 A    
N1    C7    1.360676 A    
N6    O16   1.300878 A    
N2    C8    1.360668 A    
C11   C13   1.423500 A    
O4    Cu2   1.948293 S    
O2    Cu2   1.948333 S    
O7    C4    1.291235 A    
C61   H21   1.082940 S    
C61   C64   1.406810 A    
O8    C3    1.291365 A    
C11   C12   1.419788 A    
C35   H11   1.083326 S    
O5    Cu1   1.944748 S    
C32   C42   1.404639 A    
C14   C17   1.420945 A    
C6    N2    1.362065 A    
C60   C63   1.406910 A    
N13   O30   1.301178 A    
C4    C24   1.472238 S    
Cu2   N4    1.997879 S    
C51   H17   1.081934 S    
