data_mof_unit_22855.cif
_audit_creation_date              2012-12-10T18:58:10-0500
_audit_creation_method            fapswitch 2.2
_symmetry_space_group_name_H-M    P1
_symmetry_Int_Tables_number       1
_space_group_crystal_system       triclinic
_cell_length_a                    11.061723
_cell_length_b                    10.838072
_cell_length_c                    9.571644
_cell_angle_alpha                 89.396532
_cell_angle_beta                  103.337751
_cell_angle_gamma                 90.990451
_cell_volume                      1116.37874329

loop_
_atom_site_label
_atom_site_type_symbol
_atom_type_description
_atom_site_fract_x
_atom_site_fract_y
_atom_site_fract_z
_atom_type_partial_charge
C1    C     C_R   0.500882 0.262578 0.500708 0.812923
C2    C     C_R   0.505916 0.129445 0.502827 -0.018511
C3    C     C_R   0.529813 0.065646 0.385691 -0.231270
C4    C     C_R   0.520370 0.937751 0.381731 -0.203814
C5    C     C_R   0.496363 0.871174 0.498906 -0.017564
C6    C     C_R   0.480119 0.935207 0.619410 -0.068109
C7    C     C_3   0.371070 0.930519 0.688394 0.298747
C8    C     C_3   0.372739 0.071223 0.684656 0.296278
C9    C     C_R   0.605620 0.528409 0.099605 0.089472
C10   C     C_R   0.406692 0.442695 0.050484 0.520827
C11   C     C_R   0.403465 0.450327 0.900031 -0.199419
C12   C     C_R   0.262287 0.498673 0.441119 0.748064
C13   C     C_R   0.605207 0.528097 0.953775 0.161537
C14   C     C_3   0.688920 0.637774 0.963952 -0.540730
C15   C     C_3   0.696074 0.635065 0.125698 0.303824
C16   C     C_R   0.496225 0.737522 0.498660 0.802637
C17   C     C_R   0.737372 0.499269 0.559126 0.851725
C18   C     C_2   0.125603 0.496688 0.407416 0.273893
C19   C     C_2   0.067063 0.487867 0.515635 -0.267970
C20   C     C_2   0.872885 0.496469 0.594040 -0.393488
C21   C     C_2   0.932108 0.489113 0.487861 -0.124856
C22   C     C_R   0.482645 0.062898 0.619561 -0.042881
Cu1   Cu    Cu3+1 0.499990 0.499980 0.640670 0.933767
Cu2   Cu    Cu3+1 0.500010 0.500020 0.359330 1.011859
H1    H     H_    0.879798 0.484184 0.377614 0.212505
H2    H     H_    0.397431 0.116596 0.791651 -0.020709
H3    H     H_    0.324735 0.412640 0.823314 0.138378
H4    H     H_    0.778677 0.616066 0.937098 0.166378
H5    H     H_    0.640726 0.719520 0.907082 0.216293
H6    H     H_    0.788082 0.606305 0.190636 0.110509
H7    H     H_    0.118853 0.479325 0.626499 0.142728
H8    H     H_    0.923962 0.500560 0.705527 0.155424
H9    H     H_    0.550267 0.114264 0.294415 0.148617
H10   H     H_    0.528752 0.891355 0.285653 0.206658
H11   H     H_    0.396200 0.892913 0.800265 0.017262
N1    N     N_R   0.500780 0.500930 0.148120 -0.201258
N2    N     N_R   0.500790 0.500890 0.852210 -0.186793
O1    O     O_R   0.500000 0.319640 0.618810 -0.578617
O2    O     O_R   0.500010 0.319680 0.381230 -0.577118
O3    O     O_R   0.320680 0.500000 0.575130 -0.625668
O4    O     O_R   0.320690 0.500040 0.337550 -0.514602
O5    O     O_R   0.499990 0.680320 0.618770 -0.594594
O6    O     O_R   0.500000 0.680360 0.381190 -0.537602
O7    O     O_R   0.679310 0.499960 0.662450 -0.576438
O8    O     O_R   0.679320 0.500000 0.424870 -0.585036
O9    O     O_3   0.320011 0.370824 0.099158 -0.582766
C23   C     C_3   0.333216 0.246094 0.062714 0.021385
H12   H     H_    0.432347 0.217896 0.092022 0.138254
H13   H     H_    0.296411 0.231837 0.946110 0.108613
C24   C     C_3   0.259945 0.160619 0.140939 -0.771218
H14   H     H_    0.283060 0.063211 0.125047 0.209158
H15   H     H_    0.283231 0.180373 0.257694 0.276742
H16   H     H_    0.158799 0.172118 0.096877 0.218434
O10   O     O_3   0.648516 0.742428 0.173578 -0.557644
C25   C     C_3   0.743903 0.834129 0.205049 0.043835
H17   H     H_    0.700078 0.926097 0.188729 0.146751
H18   H     H_    0.808954 0.832245 0.131661 0.143540
C26   C     C_3   0.816889 0.824090 0.361047 -0.792504
H19   H     H_    0.876343 0.741427 0.376719 0.248170
H20   H     H_    0.877741 0.906828 0.389103 0.206317
H21   H     H_    0.752785 0.817738 0.434553 0.246619
O11   O     O_3   0.057854 0.515653 0.267622 -0.598968
C27   C     C_3   0.062594 0.410425 0.182972 0.139156
H22   H     H_    0.123791 0.336213 0.239648 0.156646
H23   H     H_    0.097789 0.440107 0.088160 0.206820
C28   C     C_3   0.932791 0.355475 0.129170 -0.915662
H24   H     H_    0.869160 0.426531 0.070838 0.247901
H25   H     H_    0.936115 0.278425 0.054664 0.216511
H26   H     H_    0.896588 0.318940 0.220583 0.242913
O12   O     O_3   0.263423 0.880550 0.594639 -0.534525
C29   C     C_3   0.215769 0.777798 0.657603 0.092796
H27   H     H_    0.289871 0.716274 0.717835 0.160759
H28   H     H_    0.158822 0.722459 0.569181 0.175713
C30   C     C_3   0.131001 0.818158 0.753228 -0.864173
H29   H     H_    0.055346 0.876194 0.690703 0.257140
H30   H     H_    0.088966 0.735489 0.794024 0.218731
H31   H     H_    0.184608 0.871372 0.846235 0.229901
O13   O     O_3   0.270286 0.120709 0.584002 -0.534403
C31   C     C_3   0.177265 0.156549 0.653539 0.112110
H32   H     H_    0.199162 0.250625 0.697701 0.119395
H33   H     H_    0.167336 0.091864 0.741677 0.133576
C32   C     C_3   0.053391 0.159846 0.544370 -0.772305
H34   H     H_    0.027757 0.065886 0.501505 0.253169
H35   H     H_    0.979960 0.193065 0.596048 0.195934
H36   H     H_    0.059949 0.222715 0.454057 0.243921

loop_
_geom_bond_atom_site_label_1
_geom_bond_atom_site_label_2
_ccdc_geom_bond_type
C28   H25   S    
C25   H17   S    
C27   H23   S    
C8    H2    S    
C19   H7    S    
C17   C20   S    
C7    O12   S    
C7    C8    S    
C23   H13   S    
Cu2   N1    S    
Cu1   O5    S    
C30   H30   S    
C15   H6    S    
Cu2   O8    S    
C19   C21   S    
C17   O8    A    
C1    C2    S    
C5    C6    A    
C28   H26   S    
C3    H9    S    
C26   H20   S    
Cu1   O3    S    
C6    C22   A    
Cu2   O2    S    
C18   C19   D    
C11   N2    A    
C9    C13   A    
C5    C16   S    
O10   C25   S    
C30   H31   S    
C2    C22   A    
C9    N1    A    
C8    C22   S    
Cu1   Cu2   S    
O12   C29   S    
C13   N2    A    
C26   H21   S    
C28   H24   S    
C27   C28   S    
C13   C14   S    
C8    O13   S    
Cu2   O4    S    
C23   C24   S    
C4    H10   S    
C24   H16   S    
C30   H29   S    
C15   O10   S    
C31   H33   S    
O13   C31   S    
C18   O11   S    
C26   H19   S    
Cu1   N2    S    
Cu1   O7    S    
C31   H32   S    
C12   O3    A    
C10   O9    S    
O11   C27   S    
C31   C32   S    
C24   H15   S    
C23   H12   S    
C11   H3    S    
C24   H14   S    
C16   O6    A    
C1    O1    A    
C32   H35   S    
C25   H18   S    
C14   H5    S    
C3    C4    A    
Cu1   O1    S    
C16   O5    A    
C12   O4    A    
C29   H28   S    
C20   H8    S    
C21   H1    S    
O9    C23   S    
C7    H11   S    
C4    C5    A    
C29   C30   S    
C6    C7    S    
C32   H36   S    
C2    C3    A    
C9    C15   S    
C17   O7    A    
C29   H27   S    
C10   C11   A    
C1    O2    A    
C27   H22   S    
C20   C21   D    
C32   H34   S    
C25   C26   S    
C12   C18   S    
Cu2   O6    S    
C14   C15   S    
C10   N1    A    
C14   H4    S    
