data_mof_unit_54548.cif
_audit_creation_date              2012-12-10T19:33:12-0500
_audit_creation_method            fapswitch 2.2
_symmetry_space_group_name_H-M    P1
_symmetry_Int_Tables_number       1
_space_group_crystal_system       triclinic
_cell_length_a                    8.872614
_cell_length_b                    15.889774
_cell_length_c                    17.137952
_cell_angle_alpha                 94.935186
_cell_angle_beta                  93.511598
_cell_angle_gamma                 83.859368
_cell_volume                      2390.09859711

loop_
_atom_site_label
_atom_site_type_symbol
_atom_type_description
_atom_site_fract_x
_atom_site_fract_y
_atom_site_fract_z
_atom_type_partial_charge
C1    C     C_R   0.501543 0.490135 0.348810 0.855042
C2    C     C_R   0.495541 0.510371 0.651486 0.831071
C3    C     C_R   0.441081 0.756876 0.452144 0.353051
C4    C     C_R   0.548377 0.242678 0.551297 0.353930
C5    C     C_R   0.442123 0.845815 0.453979 0.117070
C6    C     C_R   0.519750 0.156397 0.554536 0.106737
C7    C     C_R   0.531154 0.888850 0.512680 0.165458
C8    C     C_R   0.451697 0.113285 0.488748 0.241234
C9    C     C_R   0.615231 0.839947 0.569490 0.088525
C10   C     C_R   0.387462 0.161389 0.427552 0.078858
C11   C     C_R   0.603892 0.750881 0.566941 -0.012780
C12   C     C_R   0.399811 0.249680 0.431002 -0.077318
C13   C     C_R   0.205708 0.522027 0.499892 0.773181
C14   C     C_R   0.794199 0.478120 0.500140 0.762379
C15   C     C_2   0.040156 0.534731 0.500209 0.160789
C16   C     C_2   0.959594 0.465949 0.500156 0.170247
C17   C     C_R   0.502284 0.486049 0.262564 -0.257186
C18   C     C_R   0.494261 0.516793 0.738506 -0.282125
C19   C     C_R   0.601585 0.532443 0.225839 0.155971
C20   C     C_R   0.468675 0.446155 0.779218 0.186000
C21   C     C_R   0.587358 0.534398 0.143915 -0.245956
C22   C     C_R   0.493989 0.450960 0.861022 -0.247715
C23   C     C_R   0.474258 0.493581 0.099021 0.196508
C24   C     C_R   0.535236 0.525563 0.903010 0.199648
C25   C     C_R   0.374721 0.449000 0.136078 0.132429
C26   C     C_R   0.552643 0.596988 0.863334 0.143098
C27   C     C_R   0.398440 0.438321 0.216855 0.409153
C28   C     C_R   0.521795 0.594489 0.781926 0.351507
Cu1   Cu    Cu3+1 0.492520 0.415770 0.496210 0.952389
Cu2   Cu    Cu3+1 0.507480 0.584230 0.503790 0.952889
H1    H     H_    0.479701 0.397271 0.893525 0.179654
H2    H     H_    0.663280 0.568269 0.114467 0.189762
H3    H     H_    0.665806 0.712398 0.609531 0.209946
H4    H     H_    0.341666 0.287050 0.386608 0.208092
N1    N     N_2   0.458248 0.494145 0.016193 -0.238605
N2    N     N_2   0.555113 0.530207 0.985719 -0.241805
N3    N     N_R   0.518730 0.710760 0.509500 -0.247729
N4    N     N_R   0.481270 0.289240 0.490500 -0.246471
N5    N     N_2   0.545245 0.978853 0.515082 -0.239166
N6    N     N_2   0.435343 0.023931 0.485361 -0.184959
O1    O     O_R   0.493000 0.421040 0.382520 -0.550100
O2    O     O_R   0.507000 0.578960 0.617480 -0.535464
O3    O     O_R   0.505640 0.563310 0.388930 -0.579612
O4    O     O_R   0.494360 0.436690 0.611070 -0.587010
O5    O     O_R   0.269980 0.445280 0.497530 -0.525749
O6    O     O_R   0.730020 0.554720 0.502470 -0.531681
O7    O     O_R   0.282610 0.587550 0.503940 -0.623895
O8    O     O_R   0.717390 0.412450 0.496060 -0.624301
O9    O     O_3   0.968270 0.617362 0.510397 -0.579800
C29   C     C_3   0.004660 0.668278 0.451728 0.091816
H5    H     H_    0.037425 0.630460 0.396360 0.109087
H6    H     H_    0.097615 0.706271 0.475152 0.172553
C30   C     C_3   0.869989 0.731536 0.432156 -0.802571
H7    H     H_    0.848501 0.777334 0.483577 0.244938
H8    H     H_    0.895824 0.767836 0.382937 0.186970
H9    H     H_    0.768001 0.698079 0.415014 0.284674
O10   O     O_3   0.031277 0.383340 0.491925 -0.570903
C31   C     C_3   0.000486 0.336532 0.554749 0.087729
H10   H     H_    0.908791 0.296208 0.534982 0.181784
H11   H     H_    0.968318 0.377372 0.608749 0.104222
C32   C     C_3   0.138954 0.277019 0.576577 -0.800915
H12   H     H_    0.239675 0.312656 0.587747 0.278444
H13   H     H_    0.118788 0.246421 0.630297 0.182170
H14   H     H_    0.160161 0.226798 0.528505 0.244506
N7    N     N_2   0.405349 0.374882 0.737781 -0.361030
H15   H     H_    0.313395 0.392278 0.700795 0.251622
C33   C     C_3   0.385939 0.300706 0.778043 -0.677890
H16   H     H_    0.301869 0.316902 0.823831 0.204377
H17   H     H_    0.496494 0.273917 0.804152 0.234703
H18   H     H_    0.341868 0.251788 0.735345 0.233785
N8    N     N_2   0.715656 0.574883 0.272012 -0.389873
H19   H     H_    0.768011 0.542259 0.317427 0.255897
C34   C     C_3   0.814059 0.624488 0.234554 -0.722860
H20   H     H_    0.884752 0.583109 0.192566 0.223059
H21   H     H_    0.891377 0.654440 0.279011 0.225400
H22   H     H_    0.745681 0.675946 0.204316 0.232792
N9    N     N_2   0.249282 0.415308 0.092537 -0.433747
H23   H     H_    0.262313 0.400945 0.033368 0.263549
C35   C     C_3   0.102699 0.459951 0.109303 -0.679161
H24   H     H_    0.012096 0.427420 0.075285 0.225199
H25   H     H_    0.096710 0.526268 0.092448 0.218209
H26   H     H_    0.081906 0.460410 0.172576 0.257719
N10   N     N_2   0.592012 0.673795 0.905099 -0.413252
H27   H     H_    0.562043 0.682473 0.962641 0.260476
C36   C     C_3   0.745825 0.692167 0.895918 -0.656828
H28   H     H_    0.763924 0.754988 0.926638 0.214729
H29   H     H_    0.767101 0.694463 0.832980 0.250985
H30   H     H_    0.827878 0.642912 0.921678 0.213990
O11   O     O_3   0.315395 0.384993 0.253130 -0.580480
C37   C     C_3   0.347342 0.299143 0.222926 0.095863
H31   H     H_    0.314358 0.288761 0.159770 0.172911
H32   H     H_    0.274644 0.260597 0.252451 0.150006
C38   C     C_3   0.513713 0.264007 0.237463 -0.894285
H33   H     H_    0.551954 0.276553 0.299671 0.274369
H34   H     H_    0.526309 0.194362 0.222330 0.208125
H35   H     H_    0.588053 0.293309 0.200031 0.239460
O12   O     O_3   0.512149 0.669570 0.745524 -0.557910
C39   C     C_3   0.363915 0.711042 0.753938 0.114324
H36   H     H_    0.347060 0.734006 0.816315 0.152787
H37   H     H_    0.275393 0.668110 0.733394 0.123883
C40   C     C_3   0.340464 0.787532 0.705356 -0.784123
H38   H     H_    0.336973 0.766120 0.642010 0.249158
H39   H     H_    0.230595 0.824892 0.718493 0.188764
H40   H     H_    0.433481 0.828816 0.719314 0.260803
N11   N     N_2   0.641646 0.282762 0.612178 -0.364821
H41   H     H_    0.686781 0.334138 0.595640 0.287868
C41   C     C_3   0.755348 0.234229 0.659368 -0.732909
H42   H     H_    0.838446 0.276507 0.687634 0.203742
H43   H     H_    0.818900 0.183125 0.622458 0.210384
H44   H     H_    0.702587 0.209052 0.708298 0.272665
N12   N     N_2   0.355250 0.716703 0.389213 -0.417087
H45   H     H_    0.297213 0.666561 0.398164 0.265630
C42   C     C_3   0.395080 0.723715 0.309347 -0.604591
H46   H     H_    0.395118 0.661244 0.275464 0.222265
H47   H     H_    0.508945 0.746496 0.307524 0.232884
H48   H     H_    0.308287 0.767919 0.280356 0.225675
N13   N     N_2   0.550378 0.115458 0.625457 -0.404100
H49   H     H_    0.647627 0.073896 0.627679 0.260708
C43   C     C_3   0.422593 0.089298 0.662694 -0.637801
H50   H     H_    0.438757 0.102176 0.727140 0.212505
H51   H     H_    0.415822 0.020094 0.649917 0.245177
H52   H     H_    0.313864 0.124114 0.642605 0.214154
N14   N     N_2   0.356257 0.889165 0.393753 -0.402269
H53   H     H_    0.407674 0.933868 0.367675 0.286048
C44   C     C_3   0.195983 0.909067 0.406125 -0.624682
H54   H     H_    0.138501 0.937533 0.353860 0.218441
H55   H     H_    0.178640 0.954629 0.458405 0.233358
H56   H     H_    0.142959 0.850588 0.414749 0.220606
N15   N     N_2   0.710362 0.881564 0.628025 -0.415747
H57   H     H_    0.759881 0.931756 0.609760 0.260944
C45   C     C_3   0.807444 0.832106 0.681996 -0.718209
H58   H     H_    0.871489 0.875206 0.722813 0.220734
H59   H     H_    0.890227 0.786974 0.649354 0.238631
H60   H     H_    0.738162 0.797545 0.717823 0.256231
N16   N     N_2   0.306451 0.121164 0.363395 -0.414452
H61   H     H_    0.339266 0.134868 0.309693 0.244399
C46   C     C_3   0.143459 0.132294 0.368887 -0.695231
H62   H     H_    0.089347 0.095898 0.318550 0.219446
H63   H     H_    0.100188 0.200480 0.367485 0.238355
H64   H     H_    0.111599 0.108249 0.423944 0.235844

loop_
_geom_bond_atom_site_label_1
_geom_bond_atom_site_label_2
_ccdc_geom_bond_type
C28   O12   S    
C38   H33   S    
C2    C18   S    
C34   H21   S    
C34   H20   S    
C30   H8    S    
C19   N8    S    
N12   H45   S    
C45   H60   S    
O12   C39   S    
C37   H31   S    
N16   H61   S    
C14   O6    A    
N9    H23   S    
C46   H63   S    
C24   N2    S    
N11   H41   S    
N14   H53   S    
C26   N10   S    
C25   N9    S    
C19   C21   A    
C24   C26   A    
N15   H57   S    
N13   C43   S    
C30   H9    S    
C31   H11   S    
C15   C16   D    
C32   H13   S    
C11   N3    A    
C17   C19   A    
C1    O3    A    
N1    N2    D    
C2    O4    A    
N7    C33   S    
Cu1   N4    S    
C44   H56   S    
C29   H6    S    
C41   H42   S    
C6    N13   S    
C18   C20   A    
C42   H48   S    
C31   C32   S    
C43   H51   S    
C40   H39   S    
C41   H43   S    
C21   H2    S    
N9    C35   S    
C46   H64   S    
C29   C30   S    
C22   H1    S    
C36   H29   S    
C33   H16   S    
C17   C27   A    
C40   H38   S    
Cu2   O7    S    
C11   H3    S    
C18   C28   A    
C10   N16   S    
C4    C6    A    
C3    N12   S    
N5    N6    D    
C5    C7    A    
C14   O8    A    
Cu1   O8    S    
C3    C5    A    
C31   H10   S    
C36   H28   S    
Cu2   N3    S    
Cu1   O5    S    
C33   H17   S    
C32   H14   S    
Cu1   Cu2   S    
N11   C41   S    
C20   N7    S    
C37   H32   S    
N10   H27   S    
C29   H5    S    
N12   C42   S    
C9    C11   A    
C10   C12   A    
C1    O1    A    
N10   C36   S    
C20   C22   A    
O9    C29   S    
C38   H35   S    
C23   N1    S    
C13   C15   S    
Cu1   O4    S    
C44   H54   S    
C41   H44   S    
C22   C24   A    
Cu2   O3    S    
C25   C27   A    
C12   H4    S    
C45   H58   S    
C37   C38   S    
C13   O7    A    
C42   H46   S    
C4    N11   S    
C36   H30   S    
N16   C46   S    
Cu1   O1    S    
C1    C17   S    
Cu2   O6    S    
C4    N4    A    
C45   H59   S    
C35   H26   S    
C6    C8    A    
C43   H50   S    
C35   H25   S    
C30   H7    S    
C9    N15   S    
C40   H40   S    
C39   C40   S    
C46   H62   S    
C5    N14   S    
C26   C28   A    
C33   H18   S    
C21   C23   A    
N8    H19   S    
N7    H15   S    
N13   H49   S    
C13   O5    A    
O10   C31   S    
C38   H34   S    
C2    O2    A    
C43   H52   S    
C27   O11   S    
C14   C16   S    
C16   O10   S    
C15   O9    S    
C12   N4    A    
C32   H12   S    
C39   H37   S    
N14   C44   S    
C35   H24   S    
C7    C9    A    
C23   C25   A    
C34   H22   S    
C3    N3    A    
C8    C10   A    
C39   H36   S    
N8    C34   S    
C44   H55   S    
C7    N5    S    
Cu2   O2    S    
C8    N6    S    
N15   C45   S    
O11   C37   S    
C42   H47   S    
