data_mof_unit_52616.cif
_audit_creation_date              2012-12-10T17:33:58-0500
_audit_creation_method            fapswitch 2.2
_symmetry_space_group_name_H-M    P1
_symmetry_Int_Tables_number       1
_space_group_crystal_system       triclinic
_cell_length_a                    10.645474
_cell_length_b                    12.043846
_cell_length_c                    12.89036
_cell_angle_alpha                 93.345725
_cell_angle_beta                  91.343947
_cell_angle_gamma                 86.145416
_cell_volume                      1645.83894572

loop_
_atom_site_label
_atom_site_type_symbol
_atom_type_description
_atom_site_fract_x
_atom_site_fract_y
_atom_site_fract_z
_atom_type_partial_charge
C1    C     C_R   0.498773 0.522055 0.700259 0.981108
C2    C     C_R   0.524132 0.450409 0.974199 0.031219
C3    C     C_R   0.480882 0.552139 0.025334 0.050653
C4    C     C_R   0.742244 0.500135 0.501964 0.964619
C5    C     C_R   0.471440 0.557241 0.131880 -0.261488
C6    C     C_R   0.545873 0.361164 0.136808 0.563936
C7    C     C_R   0.556962 0.356140 0.029420 -0.235950
C8    C     C_R   0.383020 0.956120 0.401922 -0.349556
C9    C     C_R   0.393268 0.840303 0.411029 0.480061
C10   C     C_R   0.550089 0.858025 0.543903 0.416180
C11   C     C_R   0.542774 0.975551 0.536434 -0.039802
C12   C     C_3   0.121695 0.498849 0.504356 -0.071723
C13   C     C_R   0.457905 0.024740 0.464498 -0.035948
C14   C     C_R   0.449518 0.141880 0.457414 -0.088904
C15   C     C_R   0.607077 0.160621 0.588887 0.507225
C16   C     C_R   0.502261 0.477781 0.299545 0.951506
C17   C     C_R   0.617613 0.045352 0.598634 -0.265347
C18   C     C_R   0.257974 0.499886 0.501890 0.934270
C19   C     C_3   0.937888 0.382913 0.529994 -0.387516
C20   C     C_3   0.081294 0.380438 0.528254 0.404842
C21   C     C_3   0.923757 0.529344 0.394230 0.216737
C22   C     C_3   0.922978 0.586300 0.586850 -0.478691
C23   C     C_3   0.068472 0.526835 0.395099 -0.596043
C24   C     C_3   0.878893 0.499353 0.502488 -0.091296
C25   C     C_3   0.498674 0.187788 0.177988 -0.274365
C26   C     C_3   0.500568 0.820124 0.026782 -0.265925
C27   C     C_3   0.148781 0.230555 0.626588 -0.198494
C28   C     C_3   0.067008 0.589613 0.585455 0.255991
C29   C     C_R   0.505782 0.463711 0.187880 -0.183003
C30   C     C_R   0.497521 0.535818 0.811450 -0.117302
C31   C     C_R   0.449744 0.647130 0.968951 0.540521
C32   C     C_R   0.456508 0.637704 0.861155 -0.209066
C33   C     C_R   0.533232 0.443526 0.867983 -0.194050
Cl1   Cl    Cl    0.705326 0.241541 0.668456 -0.663462
Cl2   Cl    Cl    0.293948 0.759946 0.331822 -0.619444
Cl3   Cl    Cl    0.651789 0.795594 0.636594 -0.643577
Cl4   Cl    Cl    0.867509 0.438306 0.290359 -0.589108
Cl5   Cl    Cl    0.134480 0.578108 0.713782 -0.537074
H1    H     H_    0.905493 0.316126 0.474292 0.209211
H2    H     H_    0.907169 0.364054 0.608592 0.251040
H3    H     H_    0.316458 0.992105 0.346318 0.189892
H4    H     H_    0.684936 0.011866 0.654733 0.226879
H5    H     H_    0.114330 0.321346 0.462668 0.077944
H6    H     H_    0.108165 0.464524 0.335363 0.228939
H7    H     H_    0.880220 0.670770 0.571829 0.218886
H8    H     H_    0.891113 0.565281 0.664554 0.248560
H9    H     H_    0.497486 0.151824 0.096571 0.152721
H10   H     H_    0.402464 0.221134 0.200702 0.146898
H11   H     H_    0.526917 0.118861 0.228881 0.197946
H12   H     H_    0.089390 0.673231 0.561252 0.143842
H13   H     H_    0.529505 0.843507 0.949026 0.176626
H14   H     H_    0.583296 0.784385 0.071028 0.167729
H15   H     H_    0.465084 0.897598 0.070417 0.197430
H16   H     H_    0.221330 0.196559 0.570590 0.145560
H17   H     H_    0.058361 0.191186 0.609846 0.160422
H18   H     H_    0.181980 0.208185 0.705332 0.203873
H19   H     H_    0.885462 0.615099 0.378176 0.154211
H20   H     H_    0.097388 0.609585 0.374197 0.238847
H21   H     H_    0.438922 0.635155 0.171574 0.258021
H22   H     H_    0.592530 0.279070 0.989498 0.168712
H23   H     H_    0.427250 0.708973 0.816766 0.201614
H24   H     H_    0.565931 0.364974 0.829336 0.216494
H25   H     H_    0.383856 0.180625 0.402863 0.131256
N1    N     N_R   0.523380 0.207800 0.519350 -0.121478
N2    N     N_R   0.476620 0.792180 0.480650 -0.159304
O1    O     O_R   0.506240 0.421700 0.658830 -0.588849
O2    O     O_3   0.403288 0.746088 0.018122 -0.585972
O3    O     O_3   0.133351 0.347805 0.625271 -0.535036
O4    O     O_R   0.491240 0.609310 0.646410 -0.582861
O5    O     O_R   0.692710 0.406190 0.506230 -0.572322
O6    O     O_R   0.677700 0.593810 0.493810 -0.600871
O7    O     O_R   0.508760 0.390690 0.353590 -0.584521
O8    O     O_R   0.493760 0.578300 0.341170 -0.596334
O9    O     O_R   0.322300 0.406190 0.506190 -0.625510
O10   O     O_R   0.307290 0.593810 0.493770 -0.591385
O11   O     O_3   0.586763 0.270062 0.192240 -0.552771
Zn1   Zn    Zn3+2 0.510020 0.374730 0.508290 1.033608
Zn2   Zn    Zn3+2 0.489980 0.625270 0.491710 1.048315

loop_
_geom_bond_atom_site_label_1
_geom_bond_atom_site_label_2
_ccdc_geom_bond_type
C23   H20   S    
C8    C13   A    
N1    Zn1   S    
C2    C7    A    
C16   O7    A    
C4    O5    A    
C27   H16   S    
C31   O2    S    
C12   C23   S    
C18   O10   A    
C12   C28   S    
C26   O2    S    
C32   H23   S    
C4    C24   S    
C27   H17   S    
C17   H4    S    
C27   O3    S    
C28   H12   S    
C19   C20   S    
C33   H24   S    
O9    Zn1   S    
O8    Zn2   S    
C25   H9    S    
C15   Cl1   S    
C18   O9    A    
C22   C28   S    
C13   C14   A    
O5    Zn1   S    
O4    Zn2   S    
C5    C29   A    
C5    H21   S    
C16   O8    A    
C8    H3    S    
C19   H2    S    
C27   H18   S    
C8    C9    A    
C16   C29   S    
C1    O4    A    
C23   H6    S    
C21   H19   S    
O7    Zn1   S    
C26   H14   S    
C31   C32   A    
C28   Cl5   S    
C15   N1    A    
C14   N1    A    
C12   C20   S    
C9    N2    A    
C1    O1    A    
C3    C31   A    
C25   H10   S    
C19   H1    S    
C2    C33   A    
C22   H8    S    
C21   C23   S    
C22   C24   S    
C26   H15   S    
C7    H22   S    
C20   H5    S    
C10   N2    A    
C15   C17   A    
O1    Zn1   S    
C11   C17   A    
N2    Zn2   S    
C30   C33   A    
C20   O3    S    
C3    C5    A    
C6    C29   A    
C6    O11   S    
C6    C7    A    
C25   O11   S    
C19   C24   S    
C26   H13   S    
C30   C32   A    
C11   C13   A    
C14   H25   S    
C1    C30   S    
C2    C3    A    
O6    Zn2   S    
O10   Zn2   S    
C25   H11   S    
C10   C11   A    
C22   H7    S    
C21   Cl4   S    
C21   C24   S    
C12   C18   S    
C9    Cl2   S    
C10   Cl3   S    
C4    O6    A    
