data_mof_unit_53986.cif
_audit_creation_date              2012-12-10T19:04:13-0500
_audit_creation_method            fapswitch 2.2
_symmetry_space_group_name_H-M    P1
_symmetry_Int_Tables_number       1
_space_group_crystal_system       triclinic
_cell_length_a                    10.626992
_cell_length_b                    10.814868
_cell_length_c                    9.583897
_cell_angle_alpha                 89.749633
_cell_angle_beta                  89.078932
_cell_angle_gamma                 90.971787
_cell_volume                      1101.16003941

loop_
_atom_site_label
_atom_site_type_symbol
_atom_type_description
_atom_site_fract_x
_atom_site_fract_y
_atom_site_fract_z
_atom_type_partial_charge
C1    C     C_R   0.498670 0.262482 0.500146 0.798332
C2    C     C_3   0.962197 0.493095 0.367224 -0.073133
C3    C     C_3   0.041710 0.395396 0.442561 -0.237441
C4    C     C_3   0.122563 0.500705 0.502565 -0.082698
C5    C     C_R   0.513517 0.063500 0.622640 0.140692
C6    C     C_R   0.489501 0.129105 0.500823 -0.099537
C7    C     C_R   0.451239 0.064260 0.381475 -0.201826
C8    C     C_R   0.451216 0.935233 0.381323 -0.170053
C9    C     C_R   0.488821 0.870641 0.500745 -0.094466
C10   C     C_R   0.512038 0.936154 0.623076 0.119843
C11   C     C_3   0.622968 0.930418 0.716462 -0.450717
C12   C     C_R   0.259439 0.500381 0.500987 0.823549
C13   C     C_3   0.626140 0.070591 0.713824 -0.437903
C14   C     C_R   0.560285 0.592374 0.071867 0.213341
C15   C     C_R   0.433604 0.414223 0.077868 -0.095477
C16   C     C_R   0.432848 0.412969 0.929942 0.072403
C17   C     C_R   0.560950 0.591992 0.924553 0.148080
C18   C     C_3   0.698618 0.621687 0.916982 -0.523723
C19   C     C_3   0.697309 0.623436 0.075112 0.425533
C20   C     C_R   0.498552 0.737516 0.499843 0.801757
C21   C     C_R   0.740529 0.499958 0.499109 0.821678
C22   C     C_3   0.036684 0.507474 0.631272 0.717532
C23   C     C_3   0.954418 0.401962 0.573298 -0.230046
C24   C     C_3   0.877329 0.499942 0.497970 -0.079236
C25   C     C_3   0.957686 0.605538 0.558257 -0.250331
C26   C     C_3   0.045002 0.598466 0.427566 -0.220630
Cu1   Cu    Cu3+1 0.499990 0.499980 0.640670 0.995666
Cu2   Cu    Cu3+1 0.500010 0.500020 0.359330 0.971889
H1    H     H_    0.914755 0.322159 0.633674 0.150824
H2    H     H_    0.706491 0.888344 0.665245 0.192583
H3    H     H_    0.605201 0.112038 0.817191 0.242922
H4    H     H_    0.710553 0.110380 0.658809 0.186729
H5    H     H_    0.381603 0.344142 0.137022 0.161617
H6    H     H_    0.754827 0.544713 0.873447 0.194116
H7    H     H_    0.719469 0.713320 0.868683 0.216451
H8    H     H_    0.754988 0.550500 0.123001 0.090905
H9    H     H_    0.920506 0.690905 0.606563 0.150971
H10   H     H_    0.084868 0.678638 0.367999 0.169822
H11   H     H_    0.930038 0.486449 0.257993 0.156655
H12   H     H_    0.079002 0.309672 0.395231 0.161467
H13   H     H_    0.425840 0.112799 0.287185 0.178114
H14   H     H_    0.426141 0.886656 0.286884 0.181202
H15   H     H_    0.596777 0.891811 0.820783 0.222285
N1    N     N_R   0.500800 0.500930 0.147930 -0.234854
N2    N     N_R   0.500800 0.500890 0.852020 -0.221193
O1    O     O_R   0.500000 0.319640 0.618810 -0.581065
O2    O     O_R   0.500010 0.319680 0.381230 -0.593113
O3    O     O_R   0.316850 0.499950 0.618770 -0.505685
O4    O     O_R   0.316860 0.499990 0.381190 -0.591885
O5    O     O_R   0.499990 0.680320 0.618770 -0.579945
O6    O     O_R   0.500000 0.680360 0.381190 -0.557750
O7    O     O_R   0.683140 0.500010 0.618810 -0.593146
O8    O     O_R   0.683150 0.500050 0.381230 -0.582843
C27   C     C_2   0.362441 0.308798 0.867674 0.875026
O9    O     O_2   0.274281 0.327117 0.790917 -0.531933
O10   O     O_R   0.389222 0.188165 0.909203 -0.813813
H16   H     H_    0.332643 0.124094 0.863775 0.332079
F1    F     F_    0.718809 0.740638 0.128040 -0.639949
F2    F     F_    0.076813 0.515543 0.767487 -0.639670

loop_
_geom_bond_atom_site_label_1
_geom_bond_atom_site_label_2
_ccdc_geom_bond_type
Cu1   O3    S    
C15   N1    A    
C4    C26   S    
C23   C24   S    
Cu2   O2    S    
C11   H15   S    
C6    C7    A    
C4    C12   S    
C4    C22   S    
Cu2   O4    S    
C9    C20   S    
C5    C13   S    
C17   N2    A    
C18   H7    S    
Cu1   O5    S    
C12   O3    A    
Cu2   O8    S    
Cu1   N2    S    
C7    H13   S    
C12   O4    A    
C8    C9    A    
C5    C10   A    
C2    C26   S    
C24   C25   S    
C21   O8    A    
C11   C13   S    
C14   C17   A    
C15   C16   A    
C23   H1    S    
Cu1   O1    S    
C14   C19   S    
C8    H14   S    
C3    H12   S    
C17   C18   S    
C20   O6    A    
C2    C3    S    
C19   H8    S    
C18   H6    S    
C19   F1    S    
C2    C24   S    
C5    C6    A    
Cu2   O6    S    
C16   C27   S    
C1    O1    A    
C10   C11   S    
C16   N2    A    
C3    C4    S    
C7    C8    A    
O10   H16   S    
Cu1   O7    S    
C14   N1    A    
C18   C19   S    
C9    C10   A    
C21   C24   S    
C22   F2    S    
C13   H3    S    
C22   C23   S    
C26   H10   S    
C20   O5    A    
C13   H4    S    
C25   H9    S    
C25   C26   S    
C27   O9    D    
C3    C23   S    
C2    H11   S    
Cu2   N1    S    
C21   O7    A    
C1    O2    A    
C1    C6    S    
C11   H2    S    
C15   H5    S    
C27   O10   S    
Cu1   Cu2   S    
C22   C25   S    
