data_mof_unit_20976.cif
_audit_creation_date              2012-12-11T15:43:19-0500
_audit_creation_method            fapswitch 2.2
_symmetry_space_group_name_H-M    P1
_symmetry_Int_Tables_number       1
_space_group_crystal_system       triclinic
_cell_length_a                    19.01004
_cell_length_b                    10.953347
_cell_length_c                    18.779855
_cell_angle_alpha                 89.987915
_cell_angle_beta                  89.90813
_cell_angle_gamma                 89.613386
_cell_volume                      3910.31422322

loop_
_atom_site_label
_atom_site_type_symbol
_atom_type_description
_atom_site_fract_x
_atom_site_fract_y
_atom_site_fract_z
_atom_type_partial_charge
C1    C     C_R   0.711414 0.329219 0.138607 0.567164
C2    C     C_R   0.269919 0.375687 0.854266 0.553770
C3    C     C_R   0.211415 0.829219 0.138607 0.567164
C4    C     C_R   0.769919 0.875687 0.854266 0.553770
C5    C     C_R   0.489753 0.396883 0.932396 -0.099270
C6    C     C_R   0.471323 0.380326 0.079242 -0.090661
C7    C     C_R   0.989753 0.896883 0.932396 -0.099270
C8    C     C_R   0.971323 0.880326 0.079242 -0.090661
C9    C     C_R   0.977722 0.001949 0.972621 -0.123467
C10   C     C_R   0.966774 0.993356 0.045585 -0.098911
C11   C     C_R   0.477722 0.501949 0.972621 -0.123466
C12   C     C_R   0.466774 0.493356 0.045585 -0.098911
C13   C     C_R   0.752724 0.906799 0.926691 -0.002331
C14   C     C_R   0.221218 0.843073 0.061831 0.017577
C15   C     C_R   0.252724 0.406799 0.926691 -0.002331
C16   C     C_R   0.721218 0.343073 0.061831 0.017577
C17   C     C_R   0.722598 0.817380 0.970605 -0.019209
C18   C     C_R   0.285555 0.818126 0.028613 -0.052634
C19   C     C_R   0.222598 0.317380 0.970605 -0.019209
C20   C     C_R   0.785555 0.318126 0.028613 -0.052634
C21   C     C_R   0.722458 0.829976 0.043822 0.063875
C22   C     C_R   0.295814 0.844828 0.957225 0.061967
C23   C     C_R   0.222458 0.329975 0.043822 0.063875
C24   C     C_R   0.795814 0.344828 0.957225 0.061967
C25   C     C_R   0.792911 0.010729 0.031404 -0.149121
C26   C     C_R   0.174408 0.904645 0.946744 -0.152536
C27   C     C_R   0.292911 0.510729 0.031404 -0.149121
C28   C     C_R   0.674408 0.404645 0.946744 -0.152536
C29   C     C_R   0.790522 0.001155 0.958286 -0.144787
C30   C     C_R   0.164213 0.877977 0.018854 -0.107495
C31   C     C_R   0.290522 0.501155 0.958286 -0.144787
C32   C     C_R   0.664213 0.377977 0.018854 -0.107495
C33   C     C_3   0.650040 0.765339 0.970869 -0.209157
C34   C     C_3   0.357860 0.858023 0.048480 -0.214564
C35   C     C_3   0.150040 0.265339 0.970869 -0.209157
C36   C     C_3   0.857860 0.358023 0.048480 -0.214564
C37   C     C_3   0.651047 0.776915 0.051552 0.245802
C38   C     C_3   0.368885 0.887505 0.970391 0.245324
C39   C     C_3   0.151047 0.276915 0.051552 0.245802
C40   C     C_3   0.868885 0.387505 0.970391 0.245324
C41   C     C_R   0.754106 0.930888 0.075079 -0.009389
C42   C     C_R   0.242210 0.898534 0.916818 -0.016914
C43   C     C_R   0.254106 0.430888 0.075079 -0.009389
C44   C     C_R   0.742210 0.398534 0.916818 -0.016914
C45   C     C_R   0.531062 0.155223 0.146939 0.525192
C46   C     C_R   0.468824 0.156357 0.853119 0.534181
C47   C     C_R   0.031062 0.655223 0.146939 0.525192
C48   C     C_R   0.968824 0.656357 0.853119 0.534181
C49   C     C_R   0.486776 0.164043 0.571280 0.017627
C50   C     C_R   0.497261 0.163519 0.422084 0.020290
C51   C     C_R   0.986776 0.664043 0.571280 0.017627
C52   C     C_R   0.997261 0.663519 0.422084 0.020290
C53   C     C_R   0.482691 0.056487 0.532492 0.005866
C54   C     C_R   0.486245 0.055206 0.459899 0.007706
C55   C     C_R   0.982691 0.556487 0.532492 0.005866
C56   C     C_R   0.986245 0.555206 0.459899 0.007707
C57   C     C_R   0.490922 0.274769 0.458877 -0.178902
C58   C     C_R   0.487029 0.275063 0.533582 -0.172106
C59   C     C_R   0.990922 0.774769 0.458877 -0.178902
C60   C     C_R   0.987029 0.775063 0.533582 -0.172106
C61   C     C_3   0.522194 0.939777 0.541307 -0.245345
C62   C     C_3   0.525926 0.936192 0.460935 -0.246977
C63   C     C_3   0.022194 0.439778 0.541307 -0.245345
C64   C     C_3   0.025926 0.436192 0.460935 -0.246976
C65   C     C_R   0.748800 0.922548 0.578257 -0.008686
C66   C     C_R   0.251320 0.942798 0.417180 0.000109
C67   C     C_R   0.248800 0.422548 0.578256 -0.008686
C68   C     C_R   0.751320 0.442799 0.417180 0.000109
C69   C     C_R   0.785330 0.016782 0.544684 -0.040685
C70   C     C_R   0.199850 0.009085 0.454603 -0.031933
C71   C     C_R   0.285330 0.516782 0.544684 -0.040685
C72   C     C_R   0.699850 0.509085 0.454603 -0.031933
C73   C     C_R   0.785823 0.023993 0.471640 0.086615
C74   C     C_R   0.207846 0.036534 0.525623 0.047433
C75   C     C_R   0.285823 0.523993 0.471640 0.086615
C76   C     C_R   0.707846 0.536534 0.525623 0.047433
C77   C     C_R   0.704694 0.857375 0.462647 -0.180623
C78   C     C_R   0.323919 0.947303 0.523170 -0.145469
C79   C     C_R   0.204694 0.357375 0.462647 -0.180623
C80   C     C_R   0.823919 0.447304 0.523170 -0.145469
C81   C     C_R   0.703902 0.849355 0.536873 -0.167008
C82   C     C_R   0.316402 0.922489 0.450132 -0.110656
C83   C     C_R   0.203902 0.349355 0.536873 -0.167009
C84   C     C_R   0.816402 0.422489 0.450132 -0.110656
C85   C     C_3   0.860747 0.055374 0.549383 -0.194611
C86   C     C_3   0.123945 0.978570 0.464199 -0.205929
C87   C     C_3   0.360747 0.555374 0.549383 -0.194610
C88   C     C_3   0.623945 0.478570 0.464199 -0.205929
C89   C     C_R   0.741938 0.969975 0.147534 0.542345
C90   C     C_R   0.257960 0.967188 0.851958 0.544062
C91   C     C_R   0.241938 0.469975 0.147534 0.542345
C92   C     C_R   0.757960 0.467188 0.851958 0.544062
C93   C     C_3   0.861885 0.055749 0.469017 0.256277
C94   C     C_3   0.132665 0.007056 0.541980 0.243322
C95   C     C_3   0.361885 0.555749 0.469017 0.256277
C96   C     C_3   0.632665 0.507056 0.541980 0.243322
C97   C     C_R   0.748856 0.941588 0.429347 -0.022329
C98   C     C_R   0.267825 0.998803 0.562203 -0.030484
C99   C     C_R   0.248856 0.441588 0.429347 -0.022329
C100  C     C_R   0.767825 0.498803 0.562203 -0.030484
C101  C     C_R   0.730304 0.381856 0.351379 0.564679
C102  C     C_R   0.270002 0.378901 0.647845 0.543071
C103  C     C_R   0.230304 0.881856 0.351379 0.564679
C104  C     C_R   0.770002 0.878901 0.647845 0.543071
C105  C     C_R   0.531466 0.156983 0.353049 0.545110
C106  C     C_R   0.466759 0.157033 0.645664 0.534676
C107  C     C_R   0.031466 0.656983 0.353049 0.545110
C108  C     C_R   0.966759 0.657033 0.645664 0.534676
C109  C     C_R   0.741500 0.972577 0.354913 0.545803
C110  C     C_R   0.272121 0.021642 0.638489 0.553585
C111  C     C_R   0.241500 0.472577 0.354913 0.545803
C112  C     C_R   0.772121 0.521642 0.638489 0.553585
C113  C     C_R   0.498187 0.169219 0.924973 -0.012043
C114  C     C_R   0.503577 0.161668 0.074157 -0.005003
C115  C     C_R   0.998187 0.669219 0.924973 -0.012043
C116  C     C_R   0.003577 0.661668 0.074157 -0.005003
C117  C     C_R   0.491761 0.280052 0.964770 0.024300
C118  C     C_R   0.488345 0.273843 0.040159 0.007078
C119  C     C_R   0.991761 0.780052 0.964770 0.024300
C120  C     C_R   0.988345 0.773843 0.040159 0.007078
C121  C     C_R   0.512434 0.055770 0.033211 -0.159611
C122  C     C_R   0.512595 0.060316 0.960329 -0.162592
C123  C     C_R   0.012434 0.555770 0.033211 -0.159611
C124  C     C_R   0.012595 0.560316 0.960329 -0.162592
Cr1   Cr    Cr6+3 0.772010 0.169670 0.250090 1.051970
Cr2   Cr    Cr6+3 0.227990 0.169670 0.749910 1.046639
Cr3   Cr    Cr6+3 0.272010 0.669670 0.250090 1.051970
Cr4   Cr    Cr6+3 0.727990 0.669670 0.749910 1.046639
Cr5   Cr    Cr6+3 0.615000 0.323260 0.249260 1.033311
Cr6   Cr    Cr6+3 0.385000 0.323260 0.750740 1.019377
Cr7   Cr    Cr6+3 0.115000 0.823260 0.249260 1.033311
Cr8   Cr    Cr6+3 0.885000 0.823260 0.750740 1.019377
Cr9   Cr    Cr6+3 0.616710 0.010760 0.250840 1.030366
Cr10  Cr    Cr6+3 0.383290 0.010760 0.749160 1.059975
Cr11  Cr    Cr6+3 0.116710 0.510760 0.250840 1.030366
Cr12  Cr    Cr6+3 0.883290 0.510760 0.749160 1.059975
H1    H     H_    0.521318 0.967672 0.057437 0.146651
H2    H     H_    0.518903 0.975318 0.931570 0.189761
H3    H     H_    0.021318 0.467672 0.057437 0.146651
H4    H     H_    0.018902 0.475318 0.931570 0.189761
H5    H     H_    0.495716 0.360450 0.430762 0.125614
H6    H     H_    0.487109 0.360897 0.561748 0.143651
H7    H     H_    0.995716 0.860450 0.430762 0.125614
H8    H     H_    0.987109 0.860897 0.561748 0.143651
H9    H     H_    0.989768 0.365516 0.564288 0.178355
H10   H     H_    0.080155 0.445505 0.440620 0.174536
H11   H     H_    0.489768 0.865516 0.564288 0.178355
H12   H     H_    0.580155 0.945505 0.440620 0.174536
H13   H     H_    0.573931 0.953486 0.567391 0.152813
H14   H     H_    0.495269 0.860292 0.437272 0.179350
H15   H     H_    0.073931 0.453486 0.567392 0.152813
H16   H     H_    0.995269 0.360291 0.437272 0.179350
H17   H     H_    0.671839 0.797121 0.431549 0.151018
H18   H     H_    0.371325 0.919178 0.550024 0.154204
H19   H     H_    0.171839 0.297121 0.431549 0.151018
H20   H     H_    0.871325 0.419178 0.550024 0.154204
H21   H     H_    0.672745 0.779125 0.561400 0.222877
H22   H     H_    0.359126 0.880431 0.421012 0.204199
H23   H     H_    0.172745 0.279125 0.561400 0.222877
H24   H     H_    0.859126 0.380431 0.421012 0.204199
H25   H     H_    0.896440 0.985602 0.571875 0.130344
H26   H     H_    0.114720 0.880162 0.454482 0.113723
H27   H     H_    0.396440 0.485602 0.571875 0.130344
H28   H     H_    0.614720 0.380163 0.454482 0.113723
H29   H     H_    0.866066 0.147797 0.573223 0.173057
H30   H     H_    0.088516 0.043008 0.435508 0.177861
H31   H     H_    0.366066 0.647797 0.573223 0.173057
H32   H     H_    0.588516 0.543009 0.435508 0.177861
H33   H     H_    0.895051 0.983287 0.444619 0.112544
H34   H     H_    0.125903 0.926752 0.577555 0.133906
H35   H     H_    0.395051 0.483287 0.444619 0.112544
H36   H     H_    0.625903 0.426752 0.577555 0.133906
H37   H     H_    0.501392 0.410033 0.876660 0.141367
H38   H     H_    0.461336 0.377211 0.135912 0.138620
H39   H     H_    0.001392 0.910033 0.876660 0.141367
H40   H     H_    0.961336 0.877211 0.135912 0.138620
H41   H     H_    0.976734 0.090348 0.946942 0.185788
H42   H     H_    0.955766 0.074739 0.076414 0.131004
H43   H     H_    0.476734 0.590348 0.946942 0.185788
H44   H     H_    0.455766 0.574739 0.076414 0.131004
H45   H     H_    0.821759 0.086580 0.053183 0.155328
H46   H     H_    0.130955 0.942225 0.916635 0.135860
H47   H     H_    0.321759 0.586580 0.053183 0.155328
H48   H     H_    0.630955 0.442225 0.916635 0.135860
H49   H     H_    0.819692 0.066232 0.926524 0.173586
H50   H     H_    0.113198 0.894095 0.042287 0.173320
H51   H     H_    0.319692 0.566232 0.926524 0.173586
H52   H     H_    0.613197 0.394095 0.042287 0.173320
H53   H     H_    0.149391 0.169312 0.951951 0.184040
H54   H     H_    0.891105 0.281104 0.067807 0.153775
H55   H     H_    0.649391 0.669311 0.951951 0.184040
H56   H     H_    0.391105 0.781104 0.067807 0.153775
H57   H     H_    0.611046 0.826535 0.944815 0.094888
H58   H     H_    0.357692 0.940380 0.083116 0.122664
H59   H     H_    0.111046 0.326535 0.944815 0.094888
H60   H     H_    0.857692 0.440380 0.083116 0.122664
H61   H     H_    0.611576 0.840643 0.074161 0.127555
H62   H     H_    0.375983 0.986118 0.958908 0.136197
H63   H     H_    0.111576 0.340643 0.074161 0.127555
H64   H     H_    0.875983 0.486118 0.958908 0.136197
O1    O     O_R   0.787520 0.042810 0.170440 -0.541440
O2    O     O_R   0.212480 0.042810 0.829560 -0.526548
O3    O     O_R   0.287520 0.542810 0.170440 -0.541440
O4    O     O_R   0.712480 0.542810 0.829560 -0.526548
O5    O     O_R   0.556610 0.252880 0.323980 -0.510122
O6    O     O_R   0.443390 0.252880 0.676020 -0.508208
O7    O     O_R   0.056610 0.752880 0.323980 -0.510122
O8    O     O_R   0.943390 0.752880 0.676020 -0.508208
O9    O     O_R   0.545950 0.051210 0.330860 -0.519112
O10   O     O_R   0.454050 0.051210 0.669140 -0.524305
O11   O     O_R   0.045950 0.551210 0.330860 -0.519112
O12   O     O_R   0.954050 0.551210 0.669140 -0.524305
O13   O     O_R   0.681390 0.959480 0.325510 -0.505811
O14   O     O_R   0.318610 0.959480 0.674490 -0.506975
O15   O     O_R   0.181390 0.459480 0.325510 -0.505811
O16   O     O_R   0.818610 0.459480 0.674490 -0.506975
O17   O     O_3   0.667900 0.167900 0.250060 -0.281766
O18   O     O_3   0.332100 0.167900 0.749940 -0.278410
O19   O     O_3   0.167900 0.667900 0.250060 -0.281766
O20   O     O_3   0.832100 0.667900 0.749940 -0.278410
O21   O     O_R   0.765640 0.292100 0.175020 -0.511030
O22   O     O_R   0.234360 0.292100 0.824980 -0.499534
O23   O     O_R   0.265640 0.792100 0.175020 -0.511030
O24   O     O_R   0.734360 0.792100 0.824980 -0.499534
O25   O     O_R   0.670190 0.408840 0.168540 -0.453001
O26   O     O_R   0.329810 0.408840 0.831460 -0.511116
O27   O     O_R   0.170190 0.908840 0.168540 -0.453001
O28   O     O_R   0.829810 0.908840 0.831460 -0.511116
O29   O     O_R   0.556620 0.251410 0.175160 -0.529607
O30   O     O_R   0.443380 0.251410 0.824840 -0.510353
O31   O     O_R   0.056620 0.751410 0.175160 -0.529606
O32   O     O_R   0.943380 0.751410 0.824840 -0.510353
O33   O     O_R   0.545960 0.049620 0.170320 -0.522566
O34   O     O_R   0.454040 0.049620 0.829680 -0.489940
O35   O     O_R   0.045960 0.549620 0.170320 -0.522566
O36   O     O_R   0.954040 0.549620 0.829680 -0.489940
O37   O     O_R   0.681390 0.958010 0.176690 -0.494285
O38   O     O_R   0.318610 0.958010 0.823310 -0.467143
O39   O     O_R   0.181390 0.458010 0.176690 -0.494285
O40   O     O_R   0.818610 0.458010 0.823310 -0.467143
O41   O     O_R   0.787510 0.044390 0.330970 -0.471376
O42   O     O_R   0.212490 0.044390 0.669030 -0.484586
O43   O     O_R   0.287510 0.544390 0.330970 -0.471376
O44   O     O_R   0.712490 0.544390 0.669030 -0.484586
O45   O     O_R   0.765630 0.293570 0.323840 -0.460432
O46   O     O_R   0.234370 0.293570 0.676160 -0.510378
O47   O     O_R   0.265630 0.793570 0.323840 -0.460432
O48   O     O_R   0.734370 0.793570 0.676160 -0.510378
O49   O     O_R   0.670190 0.410420 0.329080 -0.519876
O50   O     O_R   0.329810 0.410420 0.670920 -0.521208
O51   O     O_R   0.170190 0.910420 0.329080 -0.519876
O52   O     O_R   0.829810 0.910420 0.670920 -0.521208
F1    F     F_    0.873150 0.170030 0.440978 -0.654348
F2    F     F_    0.093774 0.108336 0.562409 -0.655706
F3    F     F_    0.373150 0.670030 0.440978 -0.654348
F4    F     F_    0.593774 0.608336 0.562409 -0.655706
F5    F     F_    0.653608 0.664479 0.085123 -0.618636
F6    F     F_    0.417891 0.811257 0.938423 -0.665647
F7    F     F_    0.153608 0.164479 0.085123 -0.618636
F8    F     F_    0.917891 0.311258 0.938423 -0.665647

loop_
_geom_bond_atom_site_label_1
_geom_bond_atom_site_label_2
_ccdc_geom_bond_type
C108  O12   A    
C89   O1    A    
C55   C56   A    
C88   C96   S    
C67   C83   A    
Cr10  O10   S    
C116  C123  A    
Cr5   O29   S    
Cr2   O46   S    
C85   H25   S    
C14   C18   A    
C87   H27   S    
C86   H30   S    
C73   C93   S    
C108  O8    A    
Cr7   O7    S    
Cr4   O24   S    
C27   H47   S    
C85   H29   S    
C84   H24   S    
Cr3   O19   S    
C123  C124  A    
C74   C98   A    
C22   C42   A    
C53   C54   A    
Cr2   O2    S    
C15   C19   A    
Cr6   O6    S    
Cr1   O1    S    
Cr11  O19   S    
C50   C54   A    
C45   O29   A    
C64   H16   S    
C59   H7    S    
C104  O52   A    
Cr2   O42   S    
C30   H50   S    
C13   C29   A    
C16   C20   A    
C110  O14   A    
C37   F5    S    
C111  O15   A    
Cr8   O52   S    
C5    C11   A    
C109  O13   A    
Cr8   O28   S    
C6    C12   A    
C82   H22   S    
C65   C69   A    
C107  O11   A    
Cr6   O30   S    
C11   H43   S    
C1    O25   A    
C22   C38   S    
Cr12  O16   S    
C123  H3    S    
Cr9   O9    S    
C2    O22   A    
C105  O9    A    
Cr7   O19   S    
Cr4   O4    S    
C121  H1    S    
C4    C13   S    
Cr6   O18   S    
C78   C82   A    
C1    O21   A    
Cr5   O17   S    
C86   C94   S    
C77   H17   S    
Cr12  O12   S    
C114  C121  A    
C85   C93   S    
C45   C114  S    
C87   H31   S    
C113  C122  A    
C20   C24   A    
C52   C107  S    
Cr7   O51   S    
C51   C108  S    
C104  O48   A    
C55   C63   S    
Cr11  O11   S    
C78   C98   A    
C50   C105  S    
C111  O43   A    
C105  O5    A    
C56   C64   S    
C69   C73   A    
C86   H26   S    
C37   H61   S    
C63   H9    S    
C9    C10   A    
Cr4   O20   S    
C107  O7    A    
C44   C92   S    
Cr3   O23   S    
C34   H58   S    
C112  O16   A    
C76   C96   S    
C65   C104  S    
C99   C111  S    
C59   C60   A    
C35   H53   S    
C62   H12   S    
C80   C100  A    
C25   C29   A    
C4    O24   A    
C46   O30   A    
Cr9   O17   S    
Cr8   O20   S    
C63   H15   S    
C10   H42   S    
C17   C33   S    
C98   C110  S    
C14   C30   A    
Cr8   O32   S    
C75   C99   A    
C72   C88   S    
C25   H45   S    
C80   H20   S    
C47   O35   A    
C67   C102  S    
Cr6   O50   S    
C40   F8    S    
C47   C116  S    
Cr11  O15   S    
Cr4   O44   S    
C100  C112  S    
C81   H21   S    
C90   O38   A    
C75   C95   S    
C80   C84   A    
C68   C84   A    
C89   O37   A    
C76   C100  A    
C28   C32   A    
Cr3   O43   S    
C68   C101  S    
C122  H2    S    
C94   F2    S    
C3    O27   A    
C25   C41   A    
C1    C16   S    
C32   H52   S    
C19   C23   A    
C78   H18   S    
C20   C36   S    
C6    H38   S    
C51   C55   A    
C88   H32   S    
C88   H28   S    
C27   C31   A    
C28   C44   A    
C43   C91   S    
C49   C58   A    
C116  C120  A    
C7    H39   S    
C42   C90   S    
Cr4   O48   S    
C35   C39   S    
C36   H60   S    
C70   C74   A    
C38   F6    S    
C52   C59   A    
C7    C119  A    
C66   C82   A    
Cr5   O5    S    
C101  O45   A    
C110  O42   A    
C13   C17   A    
C65   C81   A    
C109  O41   A    
C68   C72   A    
C93   H33   S    
C38   H62   S    
Cr10  O34   S    
C79   C99   A    
C83   H23   S    
C72   C76   A    
Cr7   O27   S    
Cr9   O33   S    
Cr1   O41   S    
C2    C15   S    
C18   C34   S    
Cr5   O25   S    
C96   F4    S    
C121  C122  A    
C114  C118  A    
C3    C14   S    
C39   F7    S    
C48   C115  S    
C71   C87   S    
C26   H46   S    
C47   O31   A    
C102  O46   A    
C12   H44   S    
C71   C75   A    
C73   C97   A    
C34   C38   S    
Cr12  O20   S    
C46   O34   A    
C102  O50   A    
C24   C44   A    
Cr2   O18   S    
C21   C41   A    
C51   C60   A    
Cr3   O47   S    
C53   C61   S    
C48   O32   A    
C70   C86   S    
Cr5   O49   S    
C95   F3    S    
C115  C124  A    
C36   C40   S    
C9    H41   S    
C2    O26   A    
Cr8   O8    S    
C33   C37   S    
C113  C117  A    
Cr7   O31   S    
C7    C9    A    
C8    C120  A    
C39   H63   S    
C87   C95   S    
C92   O40   A    
C3    O23   A    
C58   H6    S    
C62   H14   S    
C46   C113  S    
C64   H10   S    
C41   C89   S    
C18   C22   A    
C50   C57   A    
C5    H37   S    
C66   C103  S    
C69   C85   S    
C101  O49   A    
C124  H4    S    
C91   O39   A    
Cr11  O35   S    
C45   O33   A    
C106  O10   A    
C92   O4    A    
C106  O6    A    
C119  C120  A    
C8    H40   S    
C15   C31   A    
C49   C106  S    
C36   H54   S    
C35   H59   S    
C16   C32   A    
C79   H19   S    
C54   C62   S    
C115  C119  A    
Cr10  O14   S    
C57   H5    S    
C33   H55   S    
C93   F1    S    
Cr9   O13   S    
Cr12  O40   S    
C97   C109  S    
C61   H11   S    
C103  O51   A    
Cr11  O39   S    
Cr10  O18   S    
C117  C118  A    
C60   H8    S    
Cr1   O21   S    
C79   C83   A    
C57   C58   A    
C66   C70   A    
C95   H35   S    
C61   H13   S    
C49   C53   A    
C40   H64   S    
Cr12  O36   S    
C34   H56   S    
C48   O36   A    
C29   H49   S    
C67   C71   A    
C4    O28   A    
C26   C42   A    
C28   H48   S    
C61   C62   S    
C77   C81   A    
C103  O47   A    
C24   C40   S    
Cr1   O17   S    
Cr10  O38   S    
C33   H57   S    
C63   C64   S    
Cr9   O37   S    
C27   C43   A    
C112  O44   A    
C21   C37   S    
Cr6   O26   S    
C8    C10   A    
Cr1   O45   S    
C96   H36   S    
C5    C117  A    
C74   C94   S    
C91   O3    A    
C19   C35   S    
C77   C97   A    
Cr2   O22   S    
C31   H51   S    
C23   C43   A    
Cr3   O3    S    
C23   C39   S    
C94   H34   S    
C52   C56   A    
C11   C12   A    
C6    C118  A    
C90   O2    A    
C26   C30   A    
C17   C21   A    
