data_mof_unit_34916.cif
_audit_creation_date              2012-12-10T18:05:50-0500
_audit_creation_method            fapswitch 2.2
_symmetry_space_group_name_H-M    P1
_symmetry_Int_Tables_number       1
_space_group_crystal_system       triclinic
_cell_length_a                    12.599828
_cell_length_b                    13.220346
_cell_length_c                    14.982342
_cell_angle_alpha                 90.73855
_cell_angle_beta                  102.697289
_cell_angle_gamma                 82.276301
_cell_volume                      2412.19250103

loop_
_atom_site_label
_atom_site_type_symbol
_atom_type_description
_atom_site_fract_x
_atom_site_fract_y
_atom_site_fract_z
_atom_type_partial_charge
C1    C     C_R   0.438804 0.690966 0.487624 0.869235
C2    C     C_R   0.405837 0.542139 0.796021 -0.266457
C3    C     C_R   0.501551 0.502208 0.768563 -0.223419
C4    C     C_R   0.500703 0.500466 0.672817 0.949714
C5    C     C_R   0.596345 0.462685 0.831871 0.574429
C6    C     C_R   0.708561 0.059973 0.457584 -0.189828
C7    C     C_R   0.597844 0.200512 0.510639 -0.072060
C8    C     C_R   0.311421 0.831360 0.527976 -0.294303
C9    C     C_R   0.299493 0.927696 0.564689 -0.192356
C10   C     C_R   0.376929 0.993142 0.563408 0.609924
C11   C     C_R   0.461469 0.967580 0.513831 -0.065009
C12   C     C_R   0.591550 0.458767 0.109298 0.038121
C13   C     C_R   0.470540 0.870142 0.473957 0.018150
C14   C     C_R   0.539247 0.032932 0.504132 0.091890
C15   C     C_R   0.629126 0.996975 0.463652 0.163154
C16   C     C_R   0.561147 0.309136 0.510390 0.881352
C17   C     C_R   0.633899 0.901969 0.423086 -0.235751
C18   C     C_R   0.552113 0.842128 0.423481 -0.143333
C19   C     C_R   0.524999 0.135763 0.525482 -0.184108
C20   C     C_R   0.693263 0.161937 0.481704 -0.166469
C21   C     C_R   0.401357 0.799878 0.489072 -0.086204
C22   C     C_R   0.089045 0.343402 0.377096 -0.279630
C23   C     C_R   0.305039 0.584125 0.008692 -0.140802
C24   C     C_R   0.799011 0.631782 0.606291 0.049506
C25   C     C_R   0.903390 0.660982 0.627731 -0.207606
C26   C     C_R   0.985333 0.610949 0.587851 -0.157435
C27   C     C_R   0.962992 0.530673 0.526221 0.008849
C28   C     C_R   0.499104 0.499754 0.326979 0.988339
C29   C     C_R   0.855372 0.503375 0.507364 0.202733
C30   C     C_R   0.042366 0.476853 0.482368 -0.007788
C31   C     C_R   0.012609 0.396938 0.421415 0.155602
C32   C     C_R   0.906914 0.371000 0.405290 -0.216536
C33   C     C_R   0.829700 0.423699 0.447637 -0.123020
C34   C     C_R   0.307738 0.583544 0.916083 0.568537
C35   C     C_R   0.150756 0.498637 0.496260 -0.015569
C36   C     C_R   0.194599 0.368861 0.393738 0.062281
C37   C     C_R   0.590474 0.456683 0.201281 0.482723
C38   C     C_R   0.496991 0.499310 0.230602 -0.318696
C39   C     C_R   0.402061 0.542192 0.168643 0.516864
C40   C     C_R   0.399726 0.543107 0.074616 -0.139689
C41   C     C_R   0.496325 0.501644 0.045575 -0.074762
C42   C     C_1   0.203220 0.626394 0.032755 0.430036
C43   C     C_R   0.403416 0.543142 0.888110 -0.005141
C44   C     C_R   0.498224 0.502439 0.952720 -0.022854
C45   C     C_R   0.595097 0.461871 0.924246 0.029018
C46   C     C_R   0.688595 0.420319 0.988321 -0.168365
C47   C     C_R   0.686691 0.418380 0.080274 -0.145507
F1    F     F_    0.679674 0.410907 0.262201 -0.702750
F2    F     F_    0.372370 0.075103 0.618344 -0.681256
F3    F     F_    0.314368 0.585131 0.201495 -0.657354
F4    F     F_    0.216547 0.622435 0.853008 -0.680336
F5    F     F_    0.687999 0.421933 0.803217 -0.655189
H1    H     H_    0.698346 0.875713 0.387431 0.153724
H2    H     H_    0.181311 0.557078 0.541651 0.119203
H3    H     H_    0.734858 0.670793 0.636659 0.147053
H4    H     H_    0.064724 0.636723 0.606502 0.152011
H5    H     H_    0.920671 0.722467 0.674863 0.172662
H6    H     H_    0.749890 0.400901 0.431972 0.239426
H7    H     H_    0.333655 0.573024 0.745203 0.220655
H8    H     H_    0.763237 0.388860 0.967585 0.206788
H9    H     H_    0.760136 0.385553 0.128589 0.198562
H10   H     H_    0.750502 0.211903 0.470161 0.155969
H11   H     H_    0.778477 0.032190 0.428693 0.144610
H12   H     H_    0.450982 0.170386 0.543863 0.232406
H13   H     H_    0.257042 0.778076 0.538900 0.182027
H14   H     H_    0.234880 0.948539 0.601350 0.184680
H15   H     H_    0.554667 0.772123 0.385239 0.166390
H16   H     H_    0.255254 0.327867 0.360723 0.135682
H17   H     H_    0.883513 0.309831 0.359310 0.182441
H18   H     H_    0.067448 0.282364 0.330434 0.149309
N1    N     N_R   0.222190 0.444670 0.452360 -0.104757
N2    N     N_R   0.776970 0.554790 0.547140 -0.134880
N3    N     N_1   0.121572 0.660258 0.051649 -0.149971
O1    O     O_R   0.366740 0.627160 0.477250 -0.610868
O2    O     O_R   0.544830 0.662520 0.507680 -0.639831
O3    O     O_R   0.410940 0.482340 0.616930 -0.629883
O4    O     O_R   0.589030 0.517700 0.647360 -0.564221
O5    O     O_R   0.455170 0.337480 0.492320 -0.630802
O6    O     O_R   0.633260 0.372840 0.522750 -0.630743
O7    O     O_R   0.410970 0.482300 0.352640 -0.572504
O8    O     O_R   0.589060 0.517660 0.383070 -0.615682
Zn1   Zn    Zn3+2 0.381090 0.476390 0.479680 0.989147
Zn2   Zn    Zn3+2 0.618910 0.523610 0.520320 0.980524

loop_
_geom_bond_atom_site_label_1
_geom_bond_atom_site_label_2
_ccdc_geom_bond_type
C1    C21   S    
C33   H6    S    
C27   C29   A    
C45   C46   A    
C24   H3    S    
C34   F4    S    
C37   C38   A    
C23   C42   S    
C13   C18   A    
C1    O1    A    
C38   C39   A    
C11   C14   A    
O4    Zn2   S    
C23   C40   A    
C29   C33   A    
C12   C37   A    
C9    H14   S    
C6    C15   A    
C8    C9    A    
C5    F5    S    
C9    C10   A    
C19   H12   S    
C36   N1    A    
N1    Zn1   S    
C35   N1    A    
C8    H13   S    
C35   H2    S    
C25   H5    S    
O1    Zn1   S    
C12   C47   A    
O8    Zn2   S    
C8    C21   A    
C22   C31   A    
C1    O2    A    
C24   C25   A    
O7    Zn1   S    
O3    Zn1   S    
C39   C40   A    
C2    H7    S    
C25   C26   A    
C5    C45   A    
C6    H11   S    
C43   C44   A    
C12   C41   A    
O5    Zn1   S    
C31   C32   A    
C28   C38   S    
C2    C43   A    
C23   C34   A    
C17   C18   A    
C26   C27   A    
C13   C21   A    
C37   F1    S    
C30   C35   A    
C7    C16   S    
C7    C19   A    
C41   C44   A    
C3    C4    S    
C17   H1    S    
C6    C20   A    
C44   C45   A    
C24   N2    A    
C15   C17   A    
C46   C47   A    
C40   C41   A    
C42   N3    T    
C46   H8    S    
C28   O8    A    
C14   C19   A    
C34   C43   A    
C3    C5    A    
C26   H4    S    
C47   H9    S    
C36   H16   S    
C32   H17   S    
C22   C36   A    
C16   O6    A    
C32   C33   A    
C29   N2    A    
C2    C3    A    
C18   H15   S    
C4    O4    A    
O6    Zn2   S    
C11   C13   A    
O2    Zn2   S    
C30   C31   A    
C16   O5    A    
C20   H10   S    
C28   O7    A    
C4    O3    A    
N2    Zn2   S    
C10   C11   A    
C39   F3    S    
C7    C20   A    
C14   C15   A    
C10   F2    S    
C22   H18   S    
C27   C30   A    
