data_mof_unit_39365.cif
_audit_creation_date              2013-03-05T15:43:08-0500
_audit_creation_method            fapswitch 2.2
_symmetry_space_group_name_H-M    P1
_symmetry_Int_Tables_number       1
_space_group_crystal_system       triclinic
_cell_length_a                    6.954032
_cell_length_b                    13.928415
_cell_length_c                    17.946958
_cell_angle_alpha                 112.338782
_cell_angle_beta                  95.549493
_cell_angle_gamma                 90.483856
_cell_volume                      1598.39579709

loop_
_atom_site_label
_atom_site_type_symbol
_atom_site_description
_atom_site_fract_x
_atom_site_fract_y
_atom_site_fract_z
_atom_type_partial_charge
O1    O     O_R   0.484560 0.544530 0.414330 -0.560560
O2    O     O_R   0.197040 0.638810 0.585080 -0.559926
O3    O     O_R   0.026800 0.455470 0.585670 -0.547180
C1    C     C_R   0.374696 0.679318 0.607592 0.823654
O4    O     O_R   0.155000 0.556150 0.414940 -0.557536
O5    O     O_R   0.984450 0.372220 0.414320 -0.563045
C2    C     C_R   0.317888 0.565241 0.386747 0.847742
O6    O     O_R   0.526900 0.627780 0.585680 -0.559743
O7    O     O_3   0.339170 0.439750 0.499990 -0.287790
V1    V     V_3+5 0.064350 0.511180 0.500000 1.133553
O8    O     O_R   0.654880 0.361190 0.414920 -0.561192
C3    C     C_R   0.816999 0.324513 0.386504 0.838983
O9    O     O_R   0.696930 0.443850 0.585060 -0.575893
C4    C     C_R   0.872121 0.429544 0.610247 0.830263
V2    V     V_3+5 0.564340 0.488820 0.500000 1.122325
O10   O     O_3   0.839390 0.560250 0.500010 -0.274898
C5    C     C_R   0.043290 0.871363 0.830102 -0.106124
C6    C     C_R   0.900018 0.390997 0.676918 -0.097858
C7    C     C_R   0.945822 0.824765 0.687672 -0.100274
C8    C     C_R   0.011081 0.796894 0.751987 -0.056312
C9    C     C_R   0.027287 0.976464 0.843280 -0.124219
C10   C     C_R   0.982568 0.008560 0.777309 0.071415
C11   C     C_R   0.931593 0.930174 0.699029 -0.003748
C12   C     C_R   0.986669 0.115267 0.786618 0.040505
C13   C     C_R   0.938069 0.142446 0.717798 -0.006712
C14   C     C_R   0.879192 0.062172 0.642447 -0.077074
C15   C     C_R   0.874219 0.958079 0.632925 -0.073774
C16   C     C_R   0.041783 0.195679 0.862510 -0.089923
C17   C     C_R   0.043415 0.298803 0.871890 -0.113857
C18   C     C_R   0.993956 0.326480 0.806084 0.054968
C19   C     C_R   0.945195 0.249569 0.727277 0.059416
C20   C     C_R   0.987874 0.431719 0.819673 -0.065876
C21   C     C_R   0.929006 0.462731 0.756671 -0.060710
C22   C     C_R   0.906898 0.284210 0.662014 -0.131324
H1    H     H_    0.883515 0.231030 0.599623 0.071122
H2    H     H_    0.899666 0.543245 0.771221 0.085621
H3    H     H_    0.083561 0.357885 0.931788 0.061560
H4    H     H_    0.917661 0.763943 0.627972 0.106094
H5    H     H_    0.050838 0.030279 0.905373 0.032363
H6    H     H_    0.833989 0.078468 0.589522 0.136819
H7    H     H_    0.085743 0.182056 0.916622 0.065058
H8    H     H_    0.019914 0.490256 0.880242 0.110331
H9    H     H_    0.114320 0.223224 0.308841 0.113865
H10   H     H_    0.834369 0.034795 0.194116 0.115685
C23   C     C_2   0.135416 0.037083 0.184046 -0.217146
C24   C     C_2   0.972822 0.077717 0.217302 -0.078437
H11   H     H_    0.674911 0.178150 0.295006 0.072240
C25   C     C_2   0.813138 0.221148 0.318669 -0.217125
C26   C     C_2   0.975828 0.180362 0.285588 -0.078967
H12   H     H_    0.273608 0.080136 0.207649 0.067255
C27   C     C_R   0.412306 0.789046 0.667974 -0.149161
C28   C     C_R   0.533892 0.477345 0.824980 -0.107948
C29   C     C_R   0.533004 0.898346 0.803749 -0.060220
C30   C     C_R   0.495690 0.800973 0.744375 -0.074487
C31   C     C_R   0.380111 0.878871 0.648490 -0.110142
C32   C     C_R   0.432700 0.984704 0.708573 0.044535
C33   C     C_R   0.501150 0.988194 0.787806 0.063947
C34   C     C_R   0.424210 0.086842 0.699537 -0.075716
C35   C     C_R   0.473601 0.182483 0.771481 0.006568
C36   C     C_R   0.524892 0.175076 0.846336 -0.070580
C37   C     C_R   0.540659 0.081279 0.853774 -0.104785
C38   C     C_R   0.374716 0.103277 0.625422 0.319795
C39   C     C_R   0.366607 0.202840 0.624725 -0.123376
C40   C     C_R   0.416773 0.291466 0.692683 -0.029586
C41   C     C_R   0.473752 0.284595 0.767650 0.062861
C42   C     C_R   0.414971 0.387338 0.684243 -0.033527
C43   C     C_R   0.476181 0.478482 0.749006 -0.057131
C44   C     C_R   0.529995 0.381135 0.835001 -0.101279
H13   H     H_    0.587117 0.081939 0.913489 0.058080
H14   H     H_    0.573154 0.385212 0.895369 0.034333
H15   H     H_    0.481524 0.550567 0.739577 0.076245
H16   H     H_    0.327688 0.210589 0.567243 0.121492
H17   H     H_    0.590010 0.903340 0.863629 0.095618
H18   H     H_    0.526521 0.733798 0.759182 0.071164
H19   H     H_    0.557532 0.241587 0.901896 0.063658
H20   H     H_    0.369784 0.391523 0.626286 0.131121
H21   H     H_    0.334691 0.668436 0.195414 0.115351
H22   H     H_    0.615282 0.592386 0.308709 0.116361
C45   C     C_2   0.314831 0.602917 0.319421 -0.195192
C46   C     C_2   0.476963 0.612177 0.286009 -0.070592
H23   H     H_    0.772613 0.636797 0.206933 0.069829
C47   C     C_2   0.634701 0.656654 0.183950 -0.218111
C48   C     C_2   0.472933 0.648324 0.217916 -0.077211
H24   H     H_    0.176892 0.622579 0.296306 0.074842
O11   O     O_R   0.421600 0.630430 0.917010 -0.547555
O12   O     O_R   0.793840 0.702190 0.087630 -0.560829
O13   O     O_R   0.964010 0.886170 0.088190 -0.560923
C49   C     C_R   0.631180 0.693461 0.116119 0.841967
O14   O     O_R   0.751460 0.619510 0.917500 -0.572079
O15   O     O_R   0.921330 0.802900 0.916840 -0.563190
C50   C     C_R   0.573748 0.579543 0.893607 0.802823
O16   O     O_R   0.464290 0.713700 0.088350 -0.560508
O17   O     O_3   0.609200 0.818520 0.002630 -0.280888
V3    V     V_3+5 0.884140 0.747190 0.002530 1.112444
O18   O     O_R   0.251150 0.814630 0.917340 -0.561198
C51   C     C_R   0.075915 0.836325 0.897774 0.808009
O19   O     O_R   0.293530 0.897310 0.087470 -0.562928
C52   C     C_R   0.131485 0.933842 0.116061 0.838000
V4    V     V_3+5 0.384070 0.769710 0.002370 1.122422
O20   O     O_3   0.109180 0.698190 0.002460 -0.280636
C53   C     C_1   0.808586 0.880360 0.553722 0.380260
N1    N     N_1   0.756277 0.817769 0.490575 -0.229532
C54   C     C_1   0.285873 0.850884 0.567618 0.329014
N2    N     N_1   0.211210 0.821390 0.501814 -0.211475
N3    N     N_R   0.344703 0.024135 0.546579 0.063587
O21   O     O_R   0.494962 0.990042 0.508350 -0.381655
O22   O     O_R   0.179987 0.018864 0.503579 -0.370292
C55   C     C_1   0.079981 0.695628 0.737271 0.270861
N4    N     N_1   0.148736 0.617386 0.727447 -0.306067

loop_
_geom_bond_atom_site_label_1
_geom_bond_atom_site_label_2
_geom_bond_distance
_ccdc_geom_bond_type
C34   C38   1.443737 A    
C31   C32   1.475045 A    
C13   C19   1.435892 A    
O17   V3    2.161940 S    
C4    C6    1.484187 S    
O2    C1    1.313866 A    
O18   C51   1.305253 A    
C1    O6    1.291888 A    
C5    C8    1.386147 A    
O19   C52   1.309605 A    
O11   C50   1.292496 A    
C38   N3    1.419225 S    
C23   C24   1.356296 D    
C55   N4    1.151676 T    
N3    O22   1.302885 A    
C24   C26   1.486266 S    
C14   C15   1.393608 A    
C38   C39   1.393111 A    
C16   C17   1.381003 A    
C23   C52   1.488768 S    
O5    C3    1.291916 A    
C45   H24   1.086763 S    
O18   V4    2.009316 S    
H21   C48   1.086820 S    
V2    O10   2.148475 S    
O13   V3    1.993389 S    
C31   C54   1.438628 S    
C16   H7    1.075270 S    
C21   H2    1.076563 S    
O12   C49   1.308620 A    
C32   C33   1.437748 A    
C22   H1    1.077571 S    
O14   V3    1.994915 S    
O12   V3    2.006565 S    
C30   H18   1.083234 S    
O8    V2    2.007373 S    
V4    O20   2.148533 S    
O1    V2    2.005753 S    
C11   C15   1.406869 A    
O14   C50   1.313557 A    
O7    V1    2.161994 S    
O17   V4    1.700409 S    
C27   C31   1.435212 A    
C28   C44   1.418582 A    
C3    C25   1.488721 S    
O13   C52   1.291988 A    
C42   C43   1.384666 A    
C35   C36   1.398552 A    
O9    C4    1.301659 A    
C46   C48   1.486286 S    
O19   V4    2.007286 S    
H10   C24   1.086847 S    
O15   V3    2.003670 S    
C19   C22   1.430752 A    
C1    C27   1.502664 S    
C53   N1    1.157834 T    
C49   O16   1.294293 A    
C12   C13   1.435225 A    
O4    C2    1.308526 A    
C29   C33   1.400607 A    
H9    C26   1.086854 S    
C13   C14   1.407954 A    
C29   C30   1.372657 A    
C15   C53   1.448154 S    
H23   C47   1.086781 S    
C45   C46   1.354434 D    
C36   C37   1.367045 A    
C40   C42   1.399972 A    
C7    C11   1.409170 A    
C17   C18   1.389765 A    
O11   V4    2.001282 S    
C7    H4    1.081951 S    
H11   C25   1.086728 S    
C9    H5    1.076182 S    
V3    O20   1.712480 S    
C41   C44   1.444390 A    
C42   H20   1.080402 S    
H22   C46   1.086842 S    
C5    C51   1.470996 S    
C33   C37   1.386490 A    
C6    C22   1.409729 A    
C28   C43   1.389654 A    
C25   C26   1.356299 D    
O6    V2    2.000490 S    
O9    V2    2.009294 S    
C10   C12   1.430838 A    
O2    V1    1.994869 S    
C2    C45   1.487633 S    
C37   H13   1.085594 S    
O1    C2    1.294167 A    
C29   H17   1.084989 S    
C12   C16   1.410179 A    
O5    V1    1.993377 S    
O8    C3    1.309551 A    
O15   C51   1.293525 A    
O3    C4    1.299328 A    
N3    O21   1.299001 A    
C36   H19   1.074463 S    
C27   C30   1.383973 A    
C20   C21   1.384693 A    
C7    C8    1.389685 A    
C34   C35   1.469235 A    
O4    V1    2.006597 S    
O3    V1    2.003840 S    
V1    O10   1.712434 S    
C35   C41   1.449789 A    
C18   C20   1.393258 A    
C14   H6    1.076975 S    
C18   C19   1.418549 A    
C23   H12   1.086726 S    
C47   C49   1.488028 S    
C40   C41   1.404187 A    
C32   C34   1.492851 A    
C43   H15   1.080656 S    
O7    V2    1.703160 S    
C6    C21   1.393304 A    
C5    C9    1.398558 A    
C39   C40   1.378038 A    
C39   H16   1.086405 S    
C44   H14   1.075703 S    
C47   C48   1.354524 D    
C17   H3    1.084590 S    
C54   N2    1.158467 T    
C20   H8    1.082774 S    
C10   C11   1.422164 A    
C28   C50   1.488145 S    
C9    C10   1.425413 A    
O16   V4    2.014162 S    
C8    C55   1.428815 S    
