data_mof_unit_13259.cif
_audit_creation_date              2013-03-05T15:43:33-0500
_audit_creation_method            fapswitch 2.2
_symmetry_space_group_name_H-M    P1
_symmetry_Int_Tables_number       1
_space_group_crystal_system       triclinic
_cell_length_a                    10.031402
_cell_length_b                    10.741392
_cell_length_c                    12.965695
_cell_angle_alpha                 89.785871
_cell_angle_beta                  68.496309
_cell_angle_gamma                 90.433308
_cell_volume                      1299.75600601

loop_
_atom_site_label
_atom_site_type_symbol
_atom_site_description
_atom_site_fract_x
_atom_site_fract_y
_atom_site_fract_z
_atom_type_partial_charge
O1    O     O_R   0.386950 0.680940 0.500020 -0.600718
O2    O     O_R   0.613110 0.680900 0.499980 -0.626642
C1    C     C_R   0.498523 0.736967 0.504562 0.918228
O3    O     O_R   0.330780 0.500000 0.653640 -0.557859
O4    O     O_R   0.556930 0.499960 0.653610 -0.597934
C2    C     C_R   0.418048 0.501245 0.706373 0.877213
Zn1   Zn    Zn3+2 0.349000 0.500030 0.500020 1.026301
Zn2   Zn    Zn3+2 0.651000 0.499970 0.499980 0.956723
O5    O     O_R   0.386890 0.319100 0.500020 -0.598915
O6    O     O_R   0.613050 0.319060 0.499980 -0.600558
O7    O     O_R   0.443070 0.500040 0.346390 -0.538408
O8    O     O_R   0.669220 0.500000 0.346360 -0.625578
C3    C     C_R   0.501438 0.262735 0.495541 0.944547
C4    C     C_R   0.582175 0.497814 0.293819 0.961202
C5    C     C_R   0.777105 0.373258 0.003302 0.147599
H1    H     H_    0.721676 0.250149 0.842645 0.196477
C6    C     C_R   0.641191 0.487395 0.171816 -0.212440
C7    C     C_R   0.237492 0.571938 0.891572 -0.048884
C8    C     C_R   0.212015 0.596041 0.003095 -0.204600
C9    C     C_R   0.311624 0.562562 0.049412 -0.122873
C10   C     C_R   0.437806 0.499799 0.985984 0.127750
C11   C     C_R   0.445453 0.449075 0.884085 0.007590
C12   C     C_R   0.552995 0.480306 0.023015 0.016506
C13   C     C_R   0.662162 0.394500 0.966518 0.052882
C14   C     C_R   0.650334 0.326683 0.878033 -0.269694
C15   C     C_R   0.540026 0.349234 0.839510 -0.017367
C16   C     C_R   0.563775 0.543838 0.114279 -0.117627
C17   C     C_R   0.759936 0.410045 0.112678 0.100350
C18   C     C_R   0.359752 0.500976 0.829262 -0.148007
H2    H     H_    0.288119 0.585568 0.135353 0.149637
H3    H     H_    0.117126 0.645860 0.053633 0.172263
C19   C     C_2   0.614181 0.066168 0.487097 -0.110295
C20   C     C_2   0.507603 0.131907 0.477913 -0.386836
H4    H     H_    0.707082 0.108983 0.497100 0.212755
H5    H     H_    0.422459 0.088085 0.457332 0.184474
C21   C     C_2   0.609760 0.933586 0.476744 -0.161224
C22   C     C_2   0.490676 0.866120 0.529756 0.029265
H6    H     H_    0.705133 0.891085 0.417511 0.152088
C23   C     C_2   0.086481 0.405173 0.469673 -0.017336
N1    N     N_2   0.148270 0.498670 0.498870 -0.208339
H7    H     H_    0.082751 0.568507 0.543090 0.178973
C24   C     C_2   0.929002 0.400689 0.489703 -0.176715
N2    N     N_2   0.852610 0.498640 0.498840 -0.191419
H8    H     H_    0.879980 0.310901 0.487445 0.196292
H9    H     H_    0.903765 0.583552 0.490157 0.170058
C25   C     C_3   0.863144 0.364211 0.166127 -0.381408
C26   C     C_3   0.803887 0.248711 0.237793 -0.777807
H10   H     H_    0.864112 0.232342 0.293356 0.242175
H11   H     H_    0.689135 0.260065 0.288181 0.247228
H12   H     H_    0.813210 0.165291 0.185651 0.248978
H13   H     H_    0.969992 0.341068 0.105250 0.206435
H14   H     H_    0.887783 0.439241 0.214936 0.220464
C27   C     C_3   0.364875 0.907227 0.631872 -0.426944
C28   C     C_3   0.404588 0.902870 0.734820 -0.755249
H15   H     H_    0.429430 0.805849 0.751331 0.246443
H16   H     H_    0.499345 0.963062 0.723406 0.291076
H17   H     H_    0.313363 0.936123 0.807794 0.276130
H18   H     H_    0.323955 0.000066 0.623197 0.219431
H19   H     H_    0.271990 0.843186 0.646701 0.226974
C29   C     C_2   0.169396 0.295316 0.414849 0.970551
O9    O     O_2   0.126836 0.191033 0.450561 -0.660538
O10   O     O_R   0.291526 0.309815 0.318993 -0.790681
H20   H     H_    0.338157 0.227538 0.288744 0.326954
C30   C     C_3   0.916205 0.316414 0.924336 -0.362273
C31   C     C_3   0.923904 0.175704 0.939329 -0.821497
H21   H     H_    0.964338 0.154442 0.006168 0.262200
H22   H     H_    0.817497 0.130508 0.958550 0.257939
H23   H     H_    0.000357 0.134995 0.861748 0.267860
H24   H     H_    0.928819 0.335930 0.837035 0.237490
H25   H     H_    0.011208 0.363218 0.931588 0.223948
C32   C     C_2   0.522036 0.677639 0.135700 0.891294
O11   O     O_2   0.499655 0.723968 0.226469 -0.641788
O12   O     O_R   0.516109 0.752666 0.049031 -0.791543
H26   H     H_    0.488631 0.841645 0.072732 0.347226
C33   C     C_2   0.135498 0.626047 0.845342 0.885011
O13   O     O_2   0.084511 0.562460 0.790761 -0.631717
O14   O     O_R   0.090201 0.748721 0.870990 -0.814053
H27   H     H_    0.018820 0.775156 0.836621 0.347041
C34   C     C_2   0.511665 0.255674 0.766066 0.911748
O15   O     O_2   0.609076 0.191897 0.705351 -0.653863
O16   O     O_R   0.371616 0.236817 0.770378 -0.822327
H28   H     H_    0.364649 0.170304 0.717664 0.338190

loop_
_geom_bond_atom_site_label_1
_geom_bond_atom_site_label_2
_geom_bond_distance
_ccdc_geom_bond_type
C7    C33   1.483203 S    
C11   C18   1.416841 A    
O12   H26   1.013890 S    
C8    C9    1.390003 A    
Zn2   N2    2.017219 S    
C8    H3    1.083901 S    
O16   H28   1.010136 S    
C27   H19   1.111903 S    
C26   H11   1.103704 S    
C9    H2    1.081019 S    
O14   H27   1.013902 S    
Zn1   O7    1.865526 S    
C17   C25   1.525018 S    
C19   C21   1.432808 S    
C21   C22   1.343815 D    
O4    C2    1.307967 A    
O7    C4    1.309844 A    
C25   H14   1.107504 S    
C29   O10   1.396153 S    
C7    C8    1.398594 A    
O5    C3    1.285370 A    
C25   C26   1.526835 S    
Zn1   N1    2.019059 S    
C31   H22   1.110577 S    
C5    C30   1.529154 S    
C12   C16   1.405820 A    
C23   C24   1.504433 S    
C22   C27   1.525892 S    
C10   C11   1.407113 A    
C4    C6    1.476837 S    
C24   H8    1.084637 S    
O3    Zn1   1.932289 S    
C26   H12   1.108212 S    
C28   H16   1.109195 S    
C6    C16   1.398443 A    
C13   C14   1.402020 A    
O3    C2    1.293337 A    
C23   N1    1.304427 D    
C32   O12   1.399526 S    
C14   C15   1.393172 A    
C27   C28   1.527149 S    
C25   H13   1.104038 S    
C29   O9    1.222855 D    
O1    C1    1.287134 A    
C19   H4    1.086000 S    
C33   O13   1.221729 D    
C3    C20   1.422749 S    
O10   H20   1.013911 S    
C33   O14   1.398188 S    
C26   H10   1.111142 S    
Zn2   O8    1.932289 S    
C31   H23   1.110850 S    
C7    C18   1.424846 A    
C30   H24   1.110864 S    
N2    H9    1.028440 S    
C5    C13   1.419634 A    
O8    C4    1.289560 A    
C30   H25   1.108433 S    
C10   C12   1.420997 A    
C24   N2    1.286395 D    
C16   C32   1.498287 S    
C34   O16   1.398523 S    
H1    C14   1.081437 S    
Zn1   O5    1.983080 S    
C28   H15   1.111469 S    
N1    H7    1.028509 S    
O1    Zn1   1.977337 S    
C6    C17   1.430829 A    
O2    Zn2   1.983077 S    
O6    C3    1.288469 A    
O4    Zn2   1.865526 S    
C27   H18   1.102190 S    
C15   C34   1.482950 S    
C19   C20   1.326632 D    
C21   H6    1.088163 S    
O2    C1    1.283813 A    
C32   O11   1.222895 D    
C30   C31   1.529295 S    
C5    C17   1.422345 A    
C23   C29   1.475536 S    
C20   H5    1.088228 S    
C12   C13   1.420396 A    
C34   O15   1.222314 D    
C2    C18   1.482419 S    
C9    C10   1.409581 A    
C1    C22   1.422557 S    
Zn2   O6    1.977337 S    
C31   H21   1.106947 S    
C11   C15   1.415001 A    
C28   H17   1.110374 S    
