data_mof_unit_15878.cif
_audit_creation_date              2012-12-10T17:05:22-0500
_audit_creation_method            fapswitch 2.2
_symmetry_space_group_name_H-M    P1
_symmetry_Int_Tables_number       1
_space_group_crystal_system       triclinic
_cell_length_a                    10.057004
_cell_length_b                    10.719164
_cell_length_c                    15.561786
_cell_angle_alpha                 90.629151
_cell_angle_beta                  68.042685
_cell_angle_gamma                 90.863527
_cell_volume                      1555.71084069

loop_
_atom_site_label
_atom_site_type_symbol
_atom_type_description
_atom_site_fract_x
_atom_site_fract_y
_atom_site_fract_z
_atom_type_partial_charge
C1    C     C_R   0.504048 0.737009 0.494735 0.752381
C2    C     C_R   0.738250 0.523409 0.031103 -0.024859
C3    C     C_R   0.590865 0.510622 0.086055 -0.022778
C4    C     C_R   0.410676 0.498868 0.675493 0.857584
C5    C     C_R   0.838622 0.525379 0.074363 -0.211238
C6    C     C_R   0.791689 0.516265 0.170539 -0.253245
C7    C     C_R   0.547145 0.538428 0.180021 0.455939
C8    C     C_2   0.604914 0.067862 0.506291 -0.175462
C9    C     C_2   0.483547 0.131812 0.526904 0.371140
C10   C     C_2   0.599605 0.934285 0.512654 -0.177764
C11   C     C_2   0.517604 0.868376 0.477750 0.386321
C12   C     C_R   0.426287 0.482024 0.909471 0.130001
C13   C     C_2   0.106103 0.432678 0.443594 -0.037295
C14   C     C_2   0.950649 0.418678 0.455220 0.033856
C15   C     C_R   0.495441 0.262910 0.506503 0.778688
C16   C     C_R   0.589462 0.507189 0.324651 0.867787
C17   C     C_R   0.358287 0.485666 0.775610 -0.106716
C18   C     C_R   0.644668 0.522576 0.224176 -0.221772
C19   C     C_R   0.193159 0.399294 0.918892 -0.159872
C20   C     C_R   0.227869 0.426170 0.825539 -0.150482
C21   C     C_R   0.452215 0.518940 0.819039 -0.226938
C22   C     C_3   0.830329 0.658240 0.596575 0.163567
C23   C     C_R   0.291276 0.427200 0.961362 0.071324
C24   C     C_3   0.894240 0.784680 0.607993 -0.370460
C25   C     C_3   0.801399 0.848702 0.698099 -0.993095
C26   C     C_3   0.946723 0.692435 0.881833 0.062008
C27   C     C_3   0.082053 0.728096 0.799320 -0.311503
C28   C     C_3   0.110856 0.868483 0.795725 -0.937205
C29   C     C_3   0.386963 0.267237 0.188408 0.065574
C30   C     C_3   0.276812 0.160439 0.211784 -0.376166
C31   C     C_3   0.342745 0.037718 0.223801 -0.900069
C32   C     C_R   0.531495 0.497643 0.949004 -0.069869
C33   C     C_R   0.490795 0.479337 0.045160 -0.048943
C34   C     C_R   0.355643 0.421188 0.096095 0.571592
C35   C     C_R   0.257715 0.397369 0.053896 -0.355235
C36   C     C_R   0.677355 0.525514 0.894994 -0.293879
C37   C     C_R   0.780284 0.536595 0.935063 0.466943
H1    H     H_    0.155605 0.353462 0.093715 0.161541
H2    H     H_    0.155006 0.398247 0.792084 0.180030
H3    H     H_    0.546719 0.572853 0.780172 0.136622
H4    H     H_    0.716866 0.532809 0.820565 0.155828
H5    H     H_    0.274672 0.137266 0.586356 0.333978
H6    H     H_    0.405525 0.859017 0.399021 0.329382
H7    H     H_    0.840073 0.592239 0.648640 0.088482
H8    H     H_    0.715621 0.671047 0.610885 0.196976
H9    H     H_    0.003935 0.771514 0.607417 0.231504
H10   H     H_    0.902702 0.846012 0.548994 0.241747
H11   H     H_    0.694608 0.870682 0.696823 0.262577
H12   H     H_    0.952479 0.530281 0.034394 0.185783
H13   H     H_    0.853835 0.937154 0.706861 0.277782
H14   H     H_    0.786110 0.787091 0.757813 0.264037
H15   H     H_    0.423011 0.655339 0.268387 0.330063
H16   H     H_    0.963142 0.717310 0.946753 0.151274
H17   H     H_    0.855840 0.748213 0.878942 0.133901
H18   H     H_    0.175321 0.680482 0.805050 0.229838
H19   H     H_    0.070729 0.697165 0.734011 0.231763
H20   H     H_    0.019496 0.919651 0.789940 0.268008
H21   H     H_    0.208906 0.890689 0.734416 0.290781
H22   H     H_    0.127657 0.900144 0.859161 0.259737
H23   H     H_    0.710185 0.112422 0.480928 0.120337
H24   H     H_    0.430831 0.274692 0.244091 0.175331
H25   H     H_    0.479361 0.244915 0.123052 0.112394
H26   H     H_    0.185502 0.182818 0.277049 0.225736
H27   H     H_    0.235161 0.149500 0.155260 0.217974
H28   H     H_    0.432677 0.012186 0.158765 0.260021
H29   H     H_    0.260235 0.962260 0.240883 0.272258
H30   H     H_    0.383041 0.046009 0.281073 0.289799
H31   H     H_    0.661547 0.890520 0.547806 0.119373
H32   H     H_    0.185083 0.380142 0.388560 0.173278
H33   H     H_    0.071152 0.529779 0.559346 0.191074
H34   H     H_    0.920064 0.336928 0.424905 0.079403
H35   H     H_    0.869844 0.508494 0.202731 0.194149
H36   H     H_    0.092034 0.352844 0.956966 0.144072
N1    N     N_2   0.148330 0.498670 0.499030 -0.179893
N2    N     N_2   0.852680 0.498640 0.499000 0.062018
O1    O     O_R   0.386950 0.680940 0.500010 -0.605981
O2    O     O_3   0.453071 0.924235 0.423498 -0.744797
O3    O     O_3   0.904130 0.613892 0.505673 -0.554618
O4    O     O_3   0.414081 0.591371 0.224257 -0.708733
O5    O     O_3   0.921176 0.562455 0.878936 -0.660879
O6    O     O_3   0.318828 0.381325 0.186492 -0.605624
O7    O     O_R   0.613110 0.680900 0.499990 -0.624578
O8    O     O_R   0.322330 0.500030 0.632270 -0.618637
O9    O     O_R   0.548480 0.499990 0.632240 -0.638481
O10   O     O_R   0.386890 0.319100 0.500010 -0.616302
O11   O     O_R   0.613050 0.319060 0.499990 -0.643514
O12   O     O_R   0.451520 0.500010 0.367760 -0.578824
O13   O     O_R   0.677670 0.499970 0.367730 -0.593741
O14   O     O_3   0.351086 0.074026 0.570532 -0.740147
Zn1   Zn    Zn3+2 0.349000 0.500030 0.500020 0.955809
Zn2   Zn    Zn3+2 0.651000 0.499970 0.499980 0.970228

loop_
_geom_bond_atom_site_label_1
_geom_bond_atom_site_label_2
_ccdc_geom_bond_type
C31   H29   S    
C30   H27   S    
C14   H34   S    
C19   C20   A    
C1    C11   S    
C28   H20   S    
C31   H30   S    
C21   H3    S    
C12   C23   A    
C26   C27   S    
C32   C36   A    
C36   C37   A    
C3    C7    A    
O11   Zn2   S    
C30   C31   S    
C27   H18   S    
C3    C33   A    
C17   C20   A    
C34   C35   A    
C25   H13   S    
C11   O2    S    
C22   H7    S    
C8    C9    D    
H33   N1    S    
C16   O12   A    
O9    Zn2   S    
H15   O4    S    
N2    Zn2   S    
C15   O10   A    
C13   C14   S    
C12   C32   A    
C1    O1    A    
C5    H12   S    
C36   H4    S    
C26   H17   S    
C6    C18   A    
C37   O5    S    
C29   H24   S    
C19   H36   S    
C35   H1    S    
C24   C25   S    
C22   O3    S    
C9    O14   S    
C20   H2    S    
C27   H19   S    
C1    O7    A    
C6    H35   S    
C12   C21   A    
C26   O5    S    
O7    Zn2   S    
C19   C23   A    
C25   H14   S    
C29   O6    S    
C29   C30   S    
C4    O9    A    
O13   Zn2   S    
C7    C18   A    
C10   H31   S    
C33   C34   A    
C25   H11   S    
C15   O11   A    
C4    C17   S    
C16   C18   S    
C34   O6    S    
C23   C35   A    
C22   C24   S    
C2    C5    A    
C26   H16   S    
C7    O4    S    
C28   H22   S    
C31   H28   S    
O8    Zn1   S    
C29   H25   S    
C24   H10   S    
O10   Zn1   S    
C28   H21   S    
H6    O2    S    
H5    O14   S    
C24   H9    S    
C32   C33   A    
N1    Zn1   S    
C2    C3    A    
C9    C15   S    
C8    H23   S    
C2    C37   A    
C5    C6    A    
C4    O8    A    
C13   H32   S    
N2    O3    S    
C17   C21   A    
C10   C11   D    
C22   H8    S    
C13   N1    D    
C8    C10   S    
O12   Zn1   S    
C27   C28   S    
C16   O13   A    
C30   H26   S    
C14   N2    D    
O1    Zn1   S    
