data_mof_unit_52302.cif
_audit_creation_date              2012-12-11T15:49:01-0500
_audit_creation_method            fapswitch 2.2
_symmetry_space_group_name_H-M    P1
_symmetry_Int_Tables_number       1
_space_group_crystal_system       triclinic
_cell_length_a                    21.663115
_cell_length_b                    7.18081
_cell_length_c                    14.901714
_cell_angle_alpha                 89.529118
_cell_angle_beta                  106.432924
_cell_angle_gamma                 89.873684
_cell_volume                      2223.30118048

loop_
_atom_site_label
_atom_site_type_symbol
_atom_type_description
_atom_site_fract_x
_atom_site_fract_y
_atom_site_fract_z
_atom_type_partial_charge
O1    O     O_R   0.335860 0.638190 0.002110 -0.547873
O2    O     O_R   0.664140 0.361810 0.997890 -0.547875
O3    O     O_R   0.164140 0.138190 0.997890 -0.548748
O4    O     O_R   0.835860 0.861810 0.002110 -0.548749
O5    O     O_R   0.217530 0.305920 0.861960 -0.540196
O6    O     O_R   0.782470 0.694080 0.138040 -0.540196
O7    O     O_R   0.282470 0.805920 0.138040 -0.540117
O8    O     O_R   0.717530 0.194080 0.861960 -0.540114
C1    C     C_R   0.205792 0.477700 0.825943 0.675439
C2    C     C_R   0.794208 0.522301 0.174057 0.675437
C3    C     C_R   0.294291 0.975774 0.174185 0.676137
C4    C     C_R   0.705708 0.024225 0.825816 0.676136
O9    O     O_R   0.338690 0.308320 0.993240 -0.501829
O10   O     O_R   0.661310 0.691680 0.006760 -0.501828
O11   O     O_R   0.161310 0.808320 0.006760 -0.500777
O12   O     O_R   0.838690 0.191680 0.993240 -0.500776
O13   O     O_R   0.286170 0.140430 0.130100 -0.540096
O14   O     O_R   0.713830 0.859570 0.869900 -0.540096
O15   O     O_R   0.213830 0.640430 0.869900 -0.539529
O16   O     O_R   0.786170 0.359570 0.130100 -0.539530
C5    C     C_R   0.364961 0.476803 0.997687 0.750967
C6    C     C_R   0.635039 0.523197 0.002313 0.750966
C7    C     C_R   0.135050 0.977043 0.002387 0.752135
C8    C     C_R   0.864950 0.022957 0.997613 0.752136
O17   O     O_3   0.232630 0.472410 0.044750 -0.369533
O18   O     O_3   0.767370 0.527590 0.955250 -0.369531
O19   O     O_3   0.267370 0.972410 0.955250 -0.369736
O20   O     O_3   0.732630 0.027590 0.044750 -0.369739
V1    V     V_3+5 0.253220 0.196620 0.991700 1.544939
V2    V     V_3+5 0.746780 0.803380 0.008300 1.544937
V3    V     V_3+5 0.246780 0.696620 0.008300 1.550389
V4    V     V_3+5 0.753220 0.303380 0.991700 1.550393
C9    C     C_R   0.032498 0.829004 0.019353 0.666604
C10   C     C_R   0.967502 0.170996 0.980646 0.666604
C11   C     C_R   0.468093 0.328881 0.982266 0.662096
C12   C     C_R   0.531906 0.671119 0.017734 0.662096
C13   C     C_R   0.967619 0.842211 0.017410 -0.272768
C14   C     C_R   0.032381 0.157789 0.982590 -0.272767
C15   C     C_R   0.532925 0.342375 0.984070 -0.265874
C16   C     C_R   0.467075 0.657625 0.015931 -0.265872
H1    H     H_    0.943884 0.717674 0.031926 0.216781
H2    H     H_    0.056116 0.282326 0.968074 0.216780
H3    H     H_    0.557085 0.217848 0.970765 0.219767
H4    H     H_    0.442915 0.782152 0.029235 0.219768
C17   C     C_R   0.933998 0.012690 0.998144 -0.275915
C18   C     C_R   0.066001 0.987310 0.001856 -0.275914
C19   C     C_R   0.565973 0.512991 0.001740 -0.276317
C20   C     C_R   0.434027 0.487009 0.998260 -0.276318
C21   C     C_R   0.677865 0.021330 0.724348 -0.044320
C22   C     C_R   0.322131 0.978669 0.275652 -0.044329
C23   C     C_R   0.822229 0.509958 0.275236 -0.040741
C24   C     C_R   0.177770 0.490044 0.724764 -0.040735
C25   C     C_R   0.687335 0.085350 0.569725 -0.084496
C26   C     C_R   0.312663 0.914581 0.430272 -0.084495
C27   C     C_R   0.811118 0.447467 0.429014 -0.083408
C28   C     C_R   0.188884 0.552516 0.570979 -0.083398
C29   C     C_R   0.715384 0.069748 0.665721 -0.154784
C30   C     C_R   0.284616 0.930177 0.334275 -0.154794
C31   C     C_R   0.783482 0.469974 0.333220 -0.154657
C32   C     C_R   0.216521 0.529998 0.666774 -0.154642
C33   C     C_R   0.611983 0.989187 0.687036 -0.167457
C34   C     C_R   0.388010 0.010870 0.312969 -0.167455
C35   C     C_R   0.888766 0.527183 0.312769 -0.166353
C36   C     C_R   0.111230 0.472846 0.687236 -0.166347
C37   C     C_R   0.581595 0.009347 0.589805 0.043598
C38   C     C_R   0.418398 0.990693 0.410200 0.043598
C39   C     C_R   0.918499 0.502561 0.409839 0.043712
C40   C     C_R   0.081499 0.497473 0.590163 0.043730
C41   C     C_R   0.620866 0.057663 0.531252 -0.006199
C42   C     C_R   0.379129 0.942333 0.468749 -0.006199
C43   C     C_R   0.878116 0.462180 0.467857 -0.006932
C44   C     C_R   0.121884 0.537839 0.532140 -0.006946
C45   C     C_R   0.513698 0.986938 0.549299 -0.034554
C46   C     C_R   0.486295 0.013117 0.450707 -0.034559
C47   C     C_R   0.986686 0.514512 0.450751 -0.034625
C48   C     C_R   0.013312 0.485538 0.549251 -0.034640
C49   C     C_R   0.527712 0.059802 0.395807 -0.225948
C50   C     C_R   0.472280 0.940251 0.604198 -0.225949
C51   C     C_R   0.970892 0.446035 0.603612 -0.226139
C52   C     C_R   0.029107 0.554025 0.396387 -0.226145
C53   C     C_R   0.593428 0.081063 0.435145 0.599292
C54   C     C_R   0.406566 0.918952 0.564858 0.599282
C55   C     C_R   0.904881 0.435010 0.563849 0.598905
C56   C     C_R   0.095119 0.565029 0.436147 0.598886
H5    H     H_    0.414084 0.044745 0.263367 0.106479
H6    H     H_    0.585908 0.955367 0.736643 0.106475
H7    H     H_    0.084404 0.443827 0.736472 0.102556
H8    H     H_    0.915588 0.556231 0.263541 0.102567
H9    H     H_    0.233713 0.902484 0.305501 0.157683
H10   H     H_    0.766290 0.097384 0.694491 0.157653
H11   H     H_    0.268075 0.545069 0.695819 0.150792
H12   H     H_    0.731931 0.454877 0.304171 0.150795
H13   H     H_    0.717668 0.123109 0.525845 0.183345
H14   H     H_    0.282332 0.876769 0.474148 0.183346
H15   H     H_    0.779907 0.416307 0.472519 0.182116
H16   H     H_    0.220098 0.583657 0.527469 0.182101
H17   H     H_    0.511019 0.082082 0.321378 0.161063
H18   H     H_    0.488971 0.917988 0.678630 0.161068
H19   H     H_    0.986965 0.421991 0.677942 0.161677
H20   H     H_    0.013034 0.578086 0.322056 0.161675
F1    F     F_    0.062163 0.660855 0.039463 -0.656081
F2    F     F_    0.937836 0.339145 0.960537 -0.656080
F3    F     F_    0.439046 0.160629 0.963843 -0.657499
F4    F     F_    0.560954 0.839371 0.036157 -0.657499
F5    F     F_    0.630372 0.127127 0.378288 -0.686615
F6    F     F_    0.369621 0.872874 0.621714 -0.686613
F7    F     F_    0.866926 0.396007 0.620214 -0.686329
F8    F     F_    0.133076 0.604037 0.379778 -0.686327

loop_
_geom_bond_atom_site_label_1
_geom_bond_atom_site_label_2
_ccdc_geom_bond_type
O17   V3    S    
O1    C5    A    
C27   C31   A    
C35   H8    S    
O19   V1    S    
O13   V1    S    
C45   C46   A    
O3    C7    A    
C48   C51   A    
C52   C56   A    
O15   V3    S    
C4    C21   S    
C37   C45   A    
O7    C3    A    
C10   F2    S    
C9    F1    S    
C8    C17   S    
C36   C40   A    
O9    V1    S    
C14   H2    S    
C11   F3    S    
O16   V4    S    
O4    C8    A    
C2    C23   S    
C38   C46   A    
O1    V3    S    
C21   C29   A    
C12   C19   A    
O2    V4    S    
O3    V1    S    
C24   C32   A    
C1    O15   A    
C2    O16   A    
C28   C44   A    
C46   C49   A    
C50   H18   S    
C45   C50   A    
C49   H17   S    
O14   V2    S    
C47   C52   A    
C36   H7    S    
C43   C55   A    
C40   C44   A    
C5    C20   S    
O11   C7    A    
C6    C19   S    
C25   C41   A    
O12   C8    A    
C7    C18   S    
C52   H20   S    
C13   H1    S    
C9    C18   A    
C1    C24   S    
O10   V2    S    
C11   C20   A    
O5    V1    S    
C34   H5    S    
C35   C39   A    
C21   C33   A    
C29   H10   S    
C34   C38   A    
C25   H13   S    
C22   C30   A    
C12   C16   A    
O7    V3    S    
C27   H15   S    
C24   C36   A    
C25   C29   A    
O18   V4    S    
C15   H3    S    
C9    C13   A    
C28   C32   A    
O8    V4    S    
C11   C15   A    
C47   C48   A    
O5    C1    A    
C50   C54   A    
C26   C42   A    
C49   C53   A    
O8    C4    A    
C23   C35   A    
C10   C17   A    
C40   C48   A    
C44   C56   A    
O6    V2    S    
C22   C34   A    
C23   C31   A    
C13   C17   A    
C15   C19   A    
C26   C30   A    
C32   H11   S    
C51   H19   S    
C16   C20   A    
C53   F5    S    
C3    O13   A    
C10   C14   A    
O6    C2    A    
O11   V3    S    
O12   V4    S    
C12   F4    S    
O10   C6    A    
O20   V2    S    
C3    C22   S    
O2    C6    A    
O9    C5    A    
C14   C18   A    
C51   C55   A    
C38   C42   A    
C37   C41   A    
C56   F8    S    
C55   F7    S    
C39   C43   A    
C31   H12   S    
C54   F6    S    
C28   H16   S    
C42   C54   A    
C30   H9    S    
O4    V2    S    
C26   H14   S    
C41   C53   A    
C33   H6    S    
C33   C37   A    
C16   H4    S    
C39   C47   A    
C4    O14   A    
C27   C43   A    
