data_mof_unit_8214.cif
_audit_creation_date              2013-03-05T15:56:13-0500
_audit_creation_method            fapswitch 2.2
_symmetry_space_group_name_H-M    P1
_symmetry_Int_Tables_number       1
_space_group_crystal_system       triclinic
_cell_length_a                    12.305861
_cell_length_b                    13.114024
_cell_length_c                    19.342777
_cell_angle_alpha                 77.757841
_cell_angle_beta                  100.92398
_cell_angle_gamma                 116.302756
_cell_volume                      2718.3918039

loop_
_atom_site_label
_atom_site_type_symbol
_atom_site_description
_atom_site_fract_x
_atom_site_fract_y
_atom_site_fract_z
_atom_type_partial_charge
O1    O     O_R   0.972510 0.318130 0.520450 -0.520670
O2    O     O_R   0.806530 0.359650 0.492990 -0.612690
C1    C     C_R   0.854832 0.285766 0.509424 0.822147
O3    O     O_R   0.083010 0.479220 0.613590 -0.588285
O4    O     O_R   0.917030 0.520740 0.586130 -0.600968
C2    C     C_R   0.998808 0.499214 0.632266 0.829702
Cu1   Cu    Cu3+1 0.098280 0.475420 0.516260 1.016150
Cu2   Cu    Cu3+1 0.901720 0.524580 0.483740 0.931372
O5    O     O_R   0.193470 0.640350 0.507010 -0.567902
O6    O     O_R   0.027490 0.681870 0.479550 -0.583745
O7    O     O_R   0.082970 0.479260 0.413870 -0.532075
O8    O     O_R   0.916990 0.520780 0.386410 -0.603473
C3    C     C_R   0.144784 0.713610 0.489991 0.802026
C4    C     C_R   0.000423 0.499437 0.367459 0.820241
C5    C     C_R   0.044679 0.431713 0.759452 -0.221920
H1    H     H_    0.084617 0.382833 0.743192 0.206009
C6    C     C_R   0.036940 0.423709 0.831752 0.295822
C7    C     C_R   0.984608 0.487585 0.853061 -0.157161
C8    C     C_R   0.937918 0.555775 0.801054 0.445280
C9    C     C_R   0.939000 0.555579 0.728825 -0.289325
H2    H     H_    0.898574 0.604289 0.689119 0.160439
C10   C     C_R   0.994991 0.496304 0.707928 -0.149218
N1    N     N_R   0.890053 0.489819 0.953780 -0.159772
N2    N     N_R   0.892677 0.492937 0.022417 -0.227297
C11   C     C_R   0.991580 0.496249 0.068748 0.417524
N3    N     N_R   0.088176 0.497754 0.043740 -0.217960
N4    N     N_R   0.085839 0.495342 0.975136 -0.187305
C12   C     C_R   0.986323 0.490174 0.929013 0.481465
C13   C     C_R   0.075003 0.462946 0.194629 -0.233150
H3    H     H_    0.131555 0.432040 0.176688 0.162382
C14   C     C_R   0.081864 0.465667 0.267675 0.463336
C15   C     C_R   0.001145 0.498478 0.291164 -0.111398
C16   C     C_R   0.919604 0.531535 0.240791 -0.246753
H4    H     H_    0.857767 0.558115 0.257126 0.181925
C17   C     C_R   0.916359 0.531054 0.168555 -0.137633
H5    H     H_    0.853087 0.557754 0.131147 0.173310
C18   C     C_R   0.994297 0.497140 0.144947 0.010286
C19   C     C_R   0.281980 0.019730 0.402796 -0.160368
H6    H     H_    0.101308 0.884733 0.399158 0.174464
H7    H     H_    0.470605 0.206549 0.356283 0.147217
H8    H     H_    0.256201 0.075593 0.359859 0.149513
C20   C     C_R   0.226841 0.835487 0.477438 -0.067709
C21   C     C_R   0.807086 0.090024 0.579407 0.286382
C22   C     C_R   0.719733 0.984344 0.607177 0.428917
C23   C     C_R   0.597070 0.951389 0.580442 -0.298348
C24   C     C_R   0.560366 0.016077 0.520306 0.053057
C25   C     C_R   0.649956 0.121505 0.490500 0.033179
C26   C     C_R   0.436837 0.980001 0.489433 0.141650
C27   C     C_R   0.403971 0.052405 0.432181 0.144163
C28   C     C_R   0.493843 0.153481 0.402201 -0.219313
C29   C     C_R   0.615269 0.184831 0.428799 -0.110928
C30   C     C_R   0.345785 0.871320 0.511007 -0.173137
C31   C     C_R   0.193496 0.911590 0.425507 -0.154821
C32   C     C_R   0.772059 0.162263 0.523375 -0.282588
H9    H     H_    0.365965 0.809124 0.550698 0.161920
H10   H     H_    0.532895 0.875389 0.608881 0.156003
H11   H     H_    0.681667 0.259253 0.399836 0.166051
C33   C     C_R   0.350524 0.334172 0.615912 -0.275021
H12   H     H_    0.174062 0.316257 0.629821 0.184626
H13   H     H_    0.549322 0.298962 0.637695 0.161470
H14   H     H_    0.351058 0.269052 0.660930 0.163466
N5    N     N_R   0.246290 0.438200 0.540910 -0.208118
C34   C     C_R   0.762528 0.647226 0.404929 -0.073970
C35   C     C_R   0.674631 0.691052 0.388365 0.197405
C36   C     C_R   0.574835 0.644789 0.428865 0.196679
C37   C     C_R   0.557159 0.544830 0.480616 -0.170618
C38   C     C_R   0.654233 0.508533 0.497368 0.229554
C39   C     C_R   0.450198 0.481229 0.518278 -0.011043
C40   C     C_R   0.449816 0.393414 0.575779 0.137818
C41   C     C_R   0.548791 0.365496 0.593581 -0.263698
C42   C     C_R   0.647676 0.420577 0.554712 -0.128993
C43   C     C_R   0.341144 0.497270 0.500673 0.089604
C44   C     C_R   0.249920 0.359604 0.598201 0.135702
N6    N     N_R   0.754310 0.561190 0.459520 -0.225877
H15   H     H_    0.327761 0.554571 0.454912 0.178140
H16   H     H_    0.841533 0.685710 0.375765 0.181383
H17   H     H_    0.718187 0.392076 0.572517 0.203462
N7    N     N_R   0.931030 0.124515 0.610562 0.133959
O9    O     O_R   0.959254 0.139324 0.677124 -0.352671
O10   O     O_R   0.009829 0.119242 0.576737 -0.359019
O11   O     O_3   0.754585 0.920960 0.666792 -0.568357
C45   C     C_3   0.723225 0.807837 0.654820 0.060127
H18   H     H_    0.808563 0.795285 0.662826 0.160234
H19   H     H_    0.680728 0.789830 0.599840 0.174498
C46   C     C_3   0.638659 0.721251 0.709240 -0.344913
H20   H     H_    0.685002 0.733950 0.763923 0.244969
H21   H     H_    0.554667 0.735299 0.703917 0.219398
C47   C     C_3   0.602808 0.598094 0.698570 -0.832526
H22   H     H_    0.552444 0.583713 0.645055 0.262060
H23   H     H_    0.542735 0.537150 0.739185 0.271044
H24   H     H_    0.684962 0.581178 0.703664 0.267219
N8    N     N_R   0.077649 0.346692 0.882208 0.148125
O12   O     O_R   0.011082 0.278193 0.932230 -0.313928
O13   O     O_R   0.170667 0.331785 0.871647 -0.334358
N9    N     N_R   0.510218 0.713367 0.427686 0.119784
O14   O     O_R   0.450047 0.740384 0.369400 -0.330111
O15   O     O_R   0.512270 0.749874 0.485600 -0.410558
N10   N     N_R   0.692700 0.788046 0.333580 0.162303
O16   O     O_R   0.800624 0.872312 0.329454 -0.346093
O17   O     O_R   0.609178 0.781700 0.280085 -0.296648
O18   O     O_3   0.885488 0.617791 0.821163 -0.593718
C48   C     C_3   0.958642 0.737387 0.806348 0.053700
H25   H     H_    0.899704 0.782419 0.803929 0.194336
H26   H     H_    0.994742 0.763648 0.753660 0.130463
C49   C     C_3   0.063264 0.777872 0.865754 -0.381726
H27   H     H_    0.025749 0.751047 0.917884 0.248045
H28   H     H_    0.126691 0.737776 0.867331 0.212767
C50   C     C_3   0.134462 0.908328 0.853908 -0.787750
H29   H     H_    0.174032 0.936909 0.802395 0.254877
H30   H     H_    0.209843 0.934925 0.897439 0.263480
H31   H     H_    0.073856 0.950830 0.853809 0.280432
O19   O     O_3   0.156404 0.424343 0.316999 -0.596279
C51   C     C_3   0.278978 0.477077 0.300783 0.091262
H32   H     H_    0.337621 0.517218 0.347184 0.178094
H33   H     H_    0.298396 0.547733 0.254647 0.154386
C52   C     C_3   0.316769 0.385809 0.289387 -0.367854
H34   H     H_    0.300859 0.318130 0.336820 0.233667
H35   H     H_    0.260586 0.344766 0.242413 0.230279
C53   C     C_3   0.451280 0.438278 0.277684 -0.863745
H36   H     H_    0.470706 0.509206 0.232129 0.281495
H37   H     H_    0.474448 0.371588 0.265722 0.252082
H38   H     H_    0.509513 0.471962 0.326290 0.249178

loop_
_geom_bond_atom_site_label_1
_geom_bond_atom_site_label_2
_geom_bond_distance
_ccdc_geom_bond_type
C37   C39   1.446259 A    
O18   C48   1.417135 S    
N9    O14   1.300605 A    
C17   H5    1.083067 S    
O11   C45   1.416951 S    
Cu1   Cu2   2.701001 S    
C19   C27   1.403602 A    
C23   C24   1.413741 A    
C52   H34   1.112016 S    
C21   N7    1.431762 S    
Cu1   O7    1.945539 S    
C49   H28   1.111102 S    
N3    N4    1.328643 A    
C50   H31   1.110983 S    
C17   C18   1.398684 A    
C26   C30   1.403804 A    
O3    Cu1   1.940173 S    
C20   C31   1.398216 A    
O4    C2    1.301290 A    
C16   C17   1.391515 A    
O7    C4    1.303689 A    
N7    O10   1.300839 A    
C53   H38   1.110335 S    
C34   H16   1.081882 S    
C5    H1    1.083818 S    
C2    C10   1.465048 S    
C50   H29   1.110953 S    
C48   C49   1.533635 S    
C5    C6    1.398279 A    
C7    C8    1.412983 A    
O5    C3    1.300601 A    
O19   C51   1.419404 S    
C11   C18   1.470328 S    
C5    C10   1.398083 A    
C8    C9    1.400255 A    
C23   H10   1.074330 S    
C50   H30   1.110357 S    
C39   C40   1.420310 A    
C14   O19   1.391013 S    
N5    C44   1.352786 A    
C41   C42   1.380307 A    
C29   H11   1.081153 S    
H12   C44   1.080433 S    
C30   H9    1.076119 S    
C39   C43   1.416960 A    
C51   C52   1.530176 S    
C33   H14   1.083980 S    
C35   N10   1.434362 S    
C37   C38   1.431916 A    
C48   H25   1.109955 S    
C6    N8    1.438278 S    
C43   H15   1.071276 S    
N8    O13   1.301566 A    
C3    C20   1.459863 S    
C6    C7    1.418244 A    
C53   H37   1.109735 S    
C49   C50   1.525925 S    
C24   C26   1.424643 A    
C46   H21   1.110503 S    
C7    C12   1.472630 S    
N2    C11   1.357415 A    
C19   H8    1.084043 S    
O3    C2    1.302196 A    
C22   O11   1.388011 S    
C4    C15   1.480213 S    
N7    O9    1.301065 A    
C25   C29   1.413148 A    
C28   C29   1.385784 A    
C11   N3    1.356637 A    
C46   H20   1.110702 S    
O1    C1    1.303583 A    
C21   C22   1.395570 A    
Cu1   N5    2.035458 S    
C13   H3    1.081737 S    
C21   C32   1.416787 A    
C14   C15   1.418095 A    
C47   H24   1.110293 S    
H13   C41   1.084734 S    
Cu2   O8    1.940172 S    
Cu2   N6    2.023596 S    
C16   H4    1.083176 S    
N5    C43   1.362208 A    
C38   N6    1.379541 A    
N1    C12   1.357307 A    
C9    H2    1.083574 S    
C48   H26   1.114339 S    
C25   C32   1.420584 A    
C26   C27   1.419921 A    
C47   H23   1.110250 S    
C45   H18   1.111157 S    
N10   O17   1.300622 A    
C42   H17   1.063380 S    
C22   C23   1.397677 A    
C51   H32   1.105283 S    
C46   C47   1.523518 S    
Cu1   O5    1.937076 S    
C24   C25   1.418241 A    
O1    Cu1   1.950413 S    
O2    Cu2   1.937076 S    
C9    C10   1.398510 A    
O6    C3    1.300065 A    
O4    Cu2   1.945541 S    
C53   H36   1.110834 S    
N9    O15   1.300292 A    
C33   C40   1.400579 A    
C34   N6    1.353637 A    
C45   C46   1.530164 S    
C49   H27   1.111628 S    
C45   H19   1.116462 S    
C52   C53   1.526830 S    
C35   C36   1.411637 A    
O2    C1    1.304353 A    
O8    C4    1.306784 A    
C13   C14   1.406500 A    
C15   C16   1.407131 A    
C8    O18   1.386830 S    
H6    C31   1.083361 S    
C19   C31   1.392250 A    
H7    C28   1.083023 S    
N8    O12   1.301462 A    
C1    C32   1.479964 S    
N10   O16   1.301340 A    
C52   H35   1.110317 S    
C38   C42   1.405756 A    
C36   C37   1.428651 A    
C40   C41   1.385221 A    
N1    N2    1.330778 A    
C34   C35   1.394420 A    
C36   N9    1.435190 S    
C47   H22   1.107802 S    
Cu2   O6    1.950414 S    
C27   C28   1.390796 A    
C13   C18   1.400409 A    
N4    C12   1.355814 A    
C33   C44   1.384923 A    
C20   C30   1.394442 A    
C51   H33   1.116234 S    
