data_mof_unit_33372.cif
_audit_creation_date              2012-12-10T17:50:32-0500
_audit_creation_method            fapswitch 2.2
_symmetry_space_group_name_H-M    P1
_symmetry_Int_Tables_number       1
_space_group_crystal_system       triclinic
_cell_length_a                    15.723198
_cell_length_b                    10.690334
_cell_length_c                    9.995697
_cell_angle_alpha                 91.644961
_cell_angle_beta                  90.800337
_cell_angle_gamma                 94.988387
_cell_volume                      1672.85685508

loop_
_atom_site_label
_atom_site_type_symbol
_atom_type_description
_atom_site_fract_x
_atom_site_fract_y
_atom_site_fract_z
_atom_type_partial_charge
C1    C     C_R   0.511642 0.263394 0.499054 0.916513
C2    C     C_R   0.589364 0.087945 0.856125 -0.361627
C3    C     C_R   0.545500 0.970423 0.873087 0.509172
C4    C     C_R   0.338257 0.500153 0.499150 0.944678
C5    C     C_R   0.511624 0.901848 0.760740 -0.163914
C6    C     C_R   0.520653 0.948946 0.629926 -0.034407
C7    C     C_R   0.549695 0.075786 0.618797 0.069988
C8    C     C_R   0.531139 0.134160 0.497952 -0.115418
C9    C     C_R   0.513602 0.063510 0.380444 -0.240833
C10   C     C_R   0.500923 0.935639 0.385472 -0.193404
C11   C     C_R   0.502174 0.876721 0.508840 -0.079869
C12   C     C_3   0.083917 0.509409 0.495995 0.093494
C13   C     C_R   0.406005 0.300114 0.130292 0.324452
C14   C     C_R   0.378873 0.188052 0.059329 0.252441
C15   C     C_R   0.372025 0.189884 0.921433 0.053565
C16   C     C_R   0.498266 0.740784 0.502718 0.841279
C17   C     C_R   0.401752 0.300285 0.855782 0.376080
C18   C     C_R   0.453430 0.401451 0.924158 -0.055252
C19   C     C_R   0.454737 0.401143 0.068355 -0.027304
C20   C     C_R   0.545120 0.590015 0.075803 -0.064722
C21   C     C_R   0.547353 0.588939 0.934088 0.453405
C22   C     C_R   0.661874 0.503264 0.500787 0.898790
C23   C     C_3   0.980521 0.593283 0.591086 0.153616
C24   C     C_3   0.964910 0.394290 0.526211 -0.311763
C25   C     C_3   0.021755 0.426111 0.403069 -0.247759
C26   C     C_1   0.249543 0.502733 0.497316 -0.172311
C27   C     C_1   0.751015 0.509264 0.501850 -0.160203
C28   C     C_3   0.028181 0.477688 0.616566 0.495326
C29   C     C_3   0.319168 0.963695 0.874360 -0.621301
C30   C     C_3   0.003448 0.608080 0.152764 -0.762932
C31   C     C_3   0.024568 0.749449 0.766915 -0.769942
C32   C     C_3   0.731377 0.221254 0.657370 -0.804083
C33   C     C_3   0.917284 0.512137 0.500626 0.014057
C34   C     C_3   0.036815 0.628001 0.469996 -0.283433
C35   C     C_3   0.973475 0.543337 0.380471 0.268058
C36   C     C_1   0.174471 0.505724 0.496297 0.018590
C37   C     C_1   0.826448 0.512459 0.501565 -0.055586
C38   C     C_R   0.593390 0.140284 0.729576 0.205576
H1    H     H_    0.040466 0.359201 0.324081 0.161830
H2    H     H_    0.312675 0.273584 0.254676 0.329373
H3    H     H_    0.362517 0.088319 0.218752 0.344083
H4    H     H_    0.257849 0.123604 0.820560 0.238529
H5    H     H_    0.376541 0.944972 0.933119 0.288373
H6    H     H_    0.320151 0.911994 0.776652 0.196945
H7    H     H_    0.261441 0.927972 0.928902 0.250037
H8    H     H_    0.353493 0.235998 0.683232 0.329600
H9    H     H_    0.605386 0.658315 0.781425 0.374861
H10   H     H_    0.890470 0.515041 0.216789 0.231749
H11   H     H_    0.971834 0.638884 0.060840 0.249811
H12   H     H_    0.474235 0.815474 0.780898 0.202830
H13   H     H_    0.037886 0.524429 0.126863 0.240932
H14   H     H_    0.049767 0.685978 0.190263 0.248596
H15   H     H_    0.910562 0.737948 0.658235 0.238311
H16   H     H_    0.998455 0.808828 0.846667 0.238604
H17   H     H_    0.063555 0.811077 0.699226 0.234423
H18   H     H_    0.065661 0.683853 0.815204 0.277275
H19   H     H_    0.009312 0.430516 0.797912 0.330206
H20   H     H_    0.657294 0.308250 0.795312 0.237629
H21   H     H_    0.775548 0.307769 0.657762 0.241789
H22   H     H_    0.722716 0.183622 0.552862 0.246096
H23   H     H_    0.487661 0.883405 0.291914 0.200767
H24   H     H_    0.761132 0.151841 0.719719 0.244867
H25   H     H_    0.582547 0.663520 0.132667 0.177810
H26   H     H_    0.934581 0.300312 0.550992 0.166712
H27   H     H_    0.067046 0.722418 0.446704 0.156074
H28   H     H_    0.506060 0.107182 0.285133 0.171104
H29   H     H_    0.621238 0.138382 0.940833 0.134870
H30   H     H_    0.563027 0.978946 0.066069 0.323975
N1    N     N_R   0.499210 0.498800 0.142780 -0.116692
N2    N     N_R   0.499180 0.498720 0.857170 -0.148378
N3    N     N_2   0.316206 0.096279 0.851073 -0.301855
N4    N     N_2   0.939826 0.577471 0.252381 -0.296016
N5    N     N_2   0.954991 0.680719 0.692979 -0.303470
N6    N     N_2   0.650087 0.249317 0.711546 -0.273477
O1    O     O_R   0.500000 0.316780 0.614690 -0.581875
O2    O     O_3   0.370829 0.317768 0.252233 -0.704478
O3    O     O_3   0.342419 0.084651 0.124298 -0.757589
O4    O     O_3   0.366986 0.317075 0.732735 -0.693656
O5    O     O_3   0.601448 0.679616 0.877302 -0.758220
O6    O     O_3   0.059954 0.443670 0.740414 -0.763896
O7    O     O_R   0.499990 0.316750 0.385360 -0.570508
O8    O     O_R   0.376780 0.500000 0.614650 -0.533432
O9    O     O_R   0.376770 0.499980 0.385310 -0.544399
O10   O     O_R   0.500010 0.683250 0.614640 -0.657082
O11   O     O_R   0.500000 0.683220 0.385310 -0.621324
O12   O     O_R   0.623230 0.500020 0.614690 -0.637227
O13   O     O_R   0.623220 0.500000 0.385350 -0.623599
O14   O     O_3   0.536403 0.918461 0.997430 -0.763806
Zn1   Zn    Zn3+2 0.500010 0.500020 0.653130 0.984503
Zn2   Zn    Zn3+2 0.499990 0.499980 0.346870 0.995394

loop_
_geom_bond_atom_site_label_1
_geom_bond_atom_site_label_2
_ccdc_geom_bond_type
C18   N2    A    
C30   H13   S    
C1    C8    S    
H9    O5    S    
C7    C8    A    
O8    Zn1   S    
C12   C28   S    
C23   N5    S    
C18   C19   A    
H3    O3    S    
C5    C6    A    
C31   N5    S    
C1    O7    A    
C5    H12   S    
C16   O10   A    
C34   C35   S    
C14   O3    S    
C9    H28   S    
H4    N3    S    
C8    C9    A    
C23   C33   S    
C31   H18   S    
C12   C36   S    
C9    C10   A    
C24   H26   S    
C13   C14   A    
C29   H5    S    
H19   O6    S    
H10   N4    S    
C34   H27   S    
C13   C19   A    
C1    O1    A    
C24   C25   S    
C2    H29   S    
C6    C11   A    
H8    O4    S    
C22   O13   A    
C33   C37   S    
H2    O2    S    
C29   H7    S    
C11   C16   S    
C2    C38   A    
C4    C26   S    
C13   O2    S    
C23   C34   S    
C21   O5    S    
C17   C18   A    
C23   C28   S    
C25   C35   S    
O7    Zn2   S    
C26   C36   T    
C30   H11   S    
C35   N4    S    
C22   C27   S    
C29   H6    S    
C16   O11   A    
H30   O14   S    
C20   N1    A    
C19   N1    A    
N2    Zn1   S    
O10   Zn1   S    
C32   H22   S    
C12   C34   S    
N1    Zn2   S    
H20   N6    S    
C38   N6    S    
C15   C17   A    
O9    Zn2   S    
C30   H14   S    
C3    O14   S    
H15   N5    S    
C24   C28   S    
C3    C5    A    
O12   Zn1   S    
C30   N4    S    
O11   Zn2   S    
C6    C7    A    
C15   N3    S    
C12   C25   S    
C24   C33   S    
C21   N2    A    
C20   H25   S    
C2    C3    A    
C32   H24   S    
C25   H1    S    
C32   N6    S    
C4    O9    A    
C27   C37   T    
C17   O4    S    
C33   C35   S    
C7    C38   A    
C22   O12   A    
C31   H16   S    
C28   O6    S    
C10   C11   A    
O1    Zn1   S    
C10   H23   S    
C4    O8    A    
C20   C21   A    
O13   Zn2   S    
C14   C15   A    
C32   H21   S    
C31   H17   S    
C29   N3    S    
