data_mof_unit_53639.cif
_audit_creation_date              2012-12-11T15:46:59-0500
_audit_creation_method            fapswitch 2.2
_symmetry_space_group_name_H-M    P1
_symmetry_Int_Tables_number       1
_space_group_crystal_system       triclinic
_cell_length_a                    11.534161
_cell_length_b                    11.560746
_cell_length_c                    19.581834
_cell_angle_alpha                 90.866197
_cell_angle_beta                  90.482228
_cell_angle_gamma                 60.088649
_cell_volume                      2263.04540227

loop_
_atom_site_label
_atom_site_type_symbol
_atom_type_description
_atom_site_fract_x
_atom_site_fract_y
_atom_site_fract_z
_atom_type_partial_charge
C1    C     C_R   0.640629 0.117166 0.599276 0.548845
C2    C     C_1   0.653400 0.149354 0.668683 0.006687
C3    C     C_R   0.671280 0.666783 0.193763 -0.094725
C4    C     C_R   0.612582 0.746327 0.598741 0.547026
C5    C     C_R   0.551689 0.696997 0.224545 0.056324
C6    C     C_R   0.538921 0.706439 0.293479 0.000209
C7    C     C_R   0.774649 0.630515 0.307411 0.224554
C8    C     C_R   0.785948 0.635637 0.235813 -0.019753
C9    C     C_3   0.413202 0.812909 0.213930 0.446884
C10   C     C_3   0.398804 0.822619 0.291039 -0.104297
C11   C     C_R   0.646981 0.680405 0.335817 0.001842
C12   C     C_1   0.641709 0.704472 0.668118 0.006834
C13   C     C_R   0.080862 0.230810 0.202101 -0.023232
C14   C     C_R   0.133390 0.300883 0.234600 0.030502
C15   C     C_R   0.166090 0.283274 0.302007 0.053436
C16   C     C_R   0.241665 0.145136 0.598322 0.546949
C17   C     C_R   0.098726 0.115979 0.309238 0.207053
C18   C     C_R   0.057619 0.142276 0.240626 -0.057454
C19   C     C_3   0.242673 0.328989 0.215757 -0.038170
C20   C     C_3   0.273995 0.318663 0.291893 0.095524
C21   C     C_R   0.164320 0.180682 0.338948 -0.037408
C22   C     C_R   0.683332 0.202247 0.200499 -0.099054
C23   C     C_1   0.126109 0.198702 0.859195 0.007766
C24   C     C_R   0.781113 0.087458 0.231882 0.044805
C25   C     C_R   0.776578 0.064250 0.299214 -0.007846
C26   C     C_R   0.595560 0.288636 0.315540 -0.003928
C27   C     C_R   0.589303 0.309185 0.243368 -0.048813
C28   C     C_R   0.646732 0.113899 0.404041 0.527379
C29   C     C_3   0.842432 0.943834 0.212018 0.220739
C30   C     C_3   0.833269 0.917381 0.287484 -0.185037
C31   C     C_R   0.676641 0.158371 0.341045 -0.044744
C32   C     C_R   0.081256 0.231315 0.928492 0.570724
C33   C     C_R   0.683924 0.603936 0.929393 0.561134
C34   C     C_1   0.171835 0.170502 0.727710 -0.027564
C35   C     C_R   0.708291 0.206682 0.930143 0.560830
C36   C     C_R   0.033163 0.264216 0.132864 0.565389
C37   C     C_R   0.684340 0.612963 0.125356 0.571728
C38   C     C_R   0.709981 0.214877 0.128767 0.546680
C39   C     C_R   0.616449 0.737612 0.403207 0.546586
C40   C     C_R   0.240278 0.142724 0.402585 0.514001
C41   C     C_1   0.669985 0.645952 0.860073 0.012504
C42   C     C_1   0.654977 0.684022 0.728508 -0.028259
C43   C     C_1   0.663204 0.666465 0.799728 -0.027034
C44   C     C_2   0.353982 0.220438 0.174095 0.201716
C45   C     C_1   0.149874 0.182329 0.798897 -0.027419
C46   C     C_2   0.522678 0.400438 0.364501 0.335675
C47   C     C_2   0.475017 0.431313 0.213395 0.280120
C48   C     C_2   0.755579 0.917101 0.163694 0.242774
C49   C     C_2   0.912923 0.620738 0.207737 0.243816
C50   C     C_1   0.195956 0.161124 0.667472 0.005918
C51   C     C_1   0.678414 0.191237 0.860757 0.011876
C52   C     C_1   0.658842 0.166954 0.729061 -0.028219
C53   C     C_1   0.665664 0.180763 0.800322 -0.026830
Cr1   Cr    Cr6+3 0.404720 0.198220 0.499960 1.017715
Cr2   Cr    Cr6+3 0.698290 0.897110 0.500380 1.055559
Cr3   Cr    Cr6+3 0.396970 0.904720 0.499610 1.051468
Cr4   Cr    Cr6+3 0.926290 0.152010 0.028150 1.114622
Cr5   Cr    Cr6+3 0.921440 0.451830 0.027490 1.066371
Cr6   Cr    Cr6+3 0.626370 0.446880 0.028730 1.045964
H1    H     H_    0.375788 0.239226 0.307133 0.089423
H2    H     H_    0.228175 0.438972 0.369886 0.351707
H3    H     H_    0.440711 0.408860 0.394627 0.138881
H4    H     H_    0.443255 0.431026 0.161327 0.138235
H5    H     H_    0.016908 0.795430 0.187321 0.373106
H6    H     H_    0.657646 0.937839 0.179790 0.059523
H7    H     H_    0.927692 0.628201 0.154074 0.161710
H8    H     H_    0.346190 0.768394 0.132794 0.363340
H9    H     H_    0.464478 0.950160 0.211337 0.273129
H10   H     H_    0.080184 0.040393 0.393331 0.338757
H11   H     H_    0.759253 0.885287 0.298664 0.099312
H12   H     H_    0.932162 0.857813 0.312680 0.235720
H13   H     H_    0.391281 0.914960 0.313219 0.086583
H14   H     H_    0.324726 0.796467 0.310695 0.234144
H15   H     H_    0.010284 0.091628 0.217020 0.215420
H16   H     H_    0.206293 0.429567 0.194283 0.208786
H17   H     H_    0.868628 0.557918 0.392936 0.326128
H18   H     H_    0.451424 0.157615 0.196733 0.061775
O1    O     O_R   0.267750 0.231960 0.575440 -0.501204
O2    O     O_R   0.596230 0.579400 0.952760 -0.501412
O3    O     O_R   0.639160 0.321170 0.958690 -0.492154
O4    O     O_R   0.527290 0.186640 0.570530 -0.492542
O5    O     O_R   0.821370 0.124220 0.104400 -0.441059
O6    O     O_R   0.037020 0.167050 0.097880 -0.463144
O7    O     O_R   0.056310 0.349620 0.102920 -0.481155
O8    O     O_R   0.797790 0.564880 0.097980 -0.535434
O9    O     O_R   0.596000 0.584270 0.104310 -0.501890
O10   O     O_R   0.638950 0.325690 0.099180 -0.527456
O11   O     O_3   0.824700 0.350240 0.028120 -0.304519
O12   O     O_R   0.685950 0.784660 0.430010 -0.498462
O13   O     O_R   0.728110 0.003450 0.576380 -0.501102
O14   O     O_R   0.682980 0.789190 0.570500 -0.495374
O15   O     O_R   0.499300 0.771880 0.575540 -0.498322
O16   O     O_R   0.285350 0.030870 0.569740 -0.494473
O17   O     O_R   0.270960 0.227070 0.423890 -0.532138
O18   O     O_R   0.530270 0.182120 0.430040 -0.538771
O19   O     O_R   0.731320 0.998570 0.424830 -0.492374
O20   O     O_3   0.886959 0.585072 0.348365 -0.615751
O21   O     O_2   0.337285 0.205006 0.113779 -0.429688
O22   O     O_3   0.237591 0.444586 0.319991 -0.606296
O23   O     O_R   0.502510 0.767000 0.423980 -0.486718
O24   O     O_2   0.558007 0.482808 0.373151 -0.491781
O25   O     O_2   0.408459 0.532215 0.247387 -0.422473
O26   O     O_3   0.974267 0.893901 0.189104 -0.614938
O27   O     O_2   0.793441 0.874726 0.105882 -0.466620
O28   O     O_2   0.001958 0.610322 0.245592 -0.447592
O29   O     O_3   0.326101 0.776817 0.182360 -0.583324
O30   O     O_3   0.408724 0.924461 0.183383 -0.657312
O31   O     O_3   0.075595 0.026280 0.343660 -0.682722
O32   O     O_R   0.288320 0.026340 0.429250 -0.507533
O33   O     O_3   0.499990 0.000020 0.499980 -0.263960
O34   O     O_R   0.821590 0.119350 0.952850 -0.488155
O35   O     O_R   0.037230 0.162540 0.957390 -0.488660
O36   O     O_R   0.056530 0.344750 0.951370 -0.489175
O37   O     O_R   0.798000 0.560370 0.957490 -0.486734

loop_
_geom_bond_atom_site_label_1
_geom_bond_atom_site_label_2
_ccdc_geom_bond_type
C25   C31   A    
H5    O26   S    
C1    O13   A    
C23   C45   T    
C19   C20   S    
C30   H12   S    
C7    C8    A    
C52   C53   S    
C7    C11   A    
C20   O22   S    
C29   O26   S    
C26   C27   A    
C13   C18   A    
C46   H3    S    
C28   O18   A    
C37   O8    A    
C44   H18   S    
C16   C50   S    
Cr2   O13   S    
C47   H4    S    
C5    C6    A    
C10   H14   S    
Cr4   O35   S    
C36   O6    A    
C1    O4    A    
C48   O27   D    
C35   O3    A    
Cr1   O33   S    
C1    C2    S    
Cr6   O11   S    
C12   C42   T    
C24   C29   S    
C44   O21   D    
Cr5   O36   S    
Cr2   O14   S    
Cr4   O6    S    
H9    O30   S    
C48   H6    S    
C4    C12   S    
C32   O35   A    
C9    C10   S    
C16   O16   A    
C4    O14   A    
C26   C31   A    
C18   H15   S    
C47   O25   D    
C13   C14   A    
C38   O5    A    
C41   C43   T    
H2    O22   S    
Cr3   O33   S    
C30   H11   S    
H10   O31   S    
Cr3   O16   S    
C46   O24   D    
C34   C50   T    
C49   H7    S    
C29   C48   S    
C37   O9    A    
C24   C25   A    
C13   C36   S    
C3    C8    A    
C17   O31   S    
Cr6   O2    S    
C6    C11   A    
C33   O2    A    
C49   O28   D    
H17   O20   S    
C17   C21   A    
C15   C20   S    
C51   C53   T    
C5    C9    S    
C29   C30   S    
Cr5   O7    S    
C15   C21   A    
C17   C18   A    
C33   O37   A    
C34   C45   S    
C11   C39   S    
Cr1   O18   S    
C2    C52   T    
C22   C27   A    
Cr2   O33   S    
C35   C51   S    
C32   O36   A    
C22   C24   A    
C20   H1    S    
C42   C43   S    
Cr3   O23   S    
Cr5   O8    S    
Cr3   O32   S    
C35   O34   A    
C19   C44   S    
C27   C47   S    
C25   C30   S    
C7    O20   S    
C14   C15   A    
C14   C19   S    
C28   C31   S    
C40   O17   A    
Cr2   O19   S    
C3    C5    A    
Cr5   O11   S    
Cr6   O3    S    
C6    C10   S    
H8    O29   S    
C40   O32   A    
C9    O30   S    
Cr4   O11   S    
C38   O10   A    
C28   O19   A    
C33   C41   S    
C23   C32   S    
C19   H16   S    
C9    O29   S    
Cr6   O9    S    
Cr2   O12   S    
C39   O23   A    
Cr4   O34   S    
C21   C40   S    
C36   O7    A    
C16   O1    A    
Cr6   O10   S    
Cr1   O17   S    
C26   C46   S    
Cr3   O15   S    
C3    C37   S    
Cr5   O37   S    
Cr4   O5    S    
C4    O15   A    
C8    C49   S    
C39   O12   A    
Cr1   O4    S    
C10   H13   S    
Cr1   O1    S    
C22   C38   S    
