data_mof_unit_29754.cif
_audit_creation_date              2012-12-10T17:53:08-0500
_audit_creation_method            fapswitch 2.2
_symmetry_space_group_name_H-M    P1
_symmetry_Int_Tables_number       1
_space_group_crystal_system       triclinic
_cell_length_a                    14.764142
_cell_length_b                    14.762337
_cell_length_c                    27.533406
_cell_angle_alpha                 75.092254
_cell_angle_beta                  104.230126
_cell_angle_gamma                 115.600432
_cell_volume                      5166.91026258

loop_
_atom_site_label
_atom_site_type_symbol
_atom_type_description
_atom_site_fract_x
_atom_site_fract_y
_atom_site_fract_z
_atom_type_partial_charge
C1    C     C_R   0.880123 0.311236 0.509995 0.809951
C2    C     C_R   0.119870 0.688772 0.490769 0.809153
C3    C     C_R   0.056584 0.502006 0.907763 -0.070595
C4    C     C_R   0.101270 0.519848 0.115542 -0.061547
C5    C     C_R   0.061332 0.419753 0.892403 -0.071087
C6    C     C_R   0.121287 0.611732 0.131014 -0.088157
C7    C     C_R   0.068443 0.335635 0.930223 0.177345
C8    C     C_R   0.137878 0.702854 0.094295 0.148007
C9    C     C_R   0.035799 0.579377 0.870572 -0.010202
C10   C     C_R   0.089083 0.431177 0.152494 -0.023411
C11   C     C_R   0.006919 0.502425 0.646651 -0.171309
C12   C     C_R   0.999747 0.503186 0.353440 -0.166457
C13   C     C_R   0.088212 0.427110 0.049905 0.062672
C14   C     C_R   0.076362 0.594955 0.974595 0.062100
C15   C     C_R   0.099603 0.603469 0.026793 -0.015428
C16   C     C_R   0.083663 0.425754 0.997729 -0.007610
C17   C     C_R   0.096932 0.516960 0.063982 0.071482
C18   C     C_R   0.072047 0.507335 0.960160 0.069752
C19   C     C_R   0.081676 0.341023 0.088566 -0.209418
C20   C     C_R   0.053189 0.669678 0.936385 -0.217574
C21   C     C_R   0.081820 0.343158 0.138835 -0.162169
C22   C     C_R   0.032049 0.661200 0.885422 -0.157597
C23   C     C_R   0.000976 0.499686 0.592752 0.824902
C24   C     C_R   0.000579 0.502166 0.407216 0.837879
C25   C     C_R   0.086016 0.343555 0.981744 -0.201747
C26   C     C_R   0.125952 0.696285 0.042802 -0.193627
C27   C     C_R   0.812922 0.201846 0.522937 -0.118616
C28   C     C_R   0.187261 0.798565 0.480232 -0.114385
C29   C     C_R   0.777276 0.032586 0.575388 0.181018
C30   C     C_R   0.226180 0.969664 0.429767 0.177776
C31   C     C_R   0.848363 0.127798 0.554649 0.169623
C32   C     C_R   0.153494 0.873342 0.448034 0.172864
C33   C     C_R   0.708722 0.174439 0.507680 -0.276413
C34   C     C_R   0.290569 0.826112 0.498611 -0.280731
C35   C     C_R   0.637794 0.075989 0.522545 0.032752
C36   C     C_R   0.362454 0.925110 0.485697 0.034002
C37   C     C_R   0.672419 0.999838 0.552747 -0.006437
C38   C     C_R   0.329141 0.001943 0.455180 -0.007211
C39   C     C_R   0.532428 0.051475 0.505412 -0.016241
C40   C     C_R   0.467293 0.949277 0.504427 -0.015308
C41   C     C_R   0.509233 0.874212 0.520808 0.163151
C42   C     C_R   0.490552 0.126561 0.489727 0.163066
C43   C     C_R   0.603519 0.894807 0.554085 0.120170
C44   C     C_R   0.396567 0.106893 0.456089 0.119611
C45   C     C_R   0.061780 0.428209 0.839892 0.503563
C46   C     C_R   0.121315 0.606575 0.183096 0.516027
C47   C     C_R   0.682099 0.606029 0.396232 0.054598
C48   C     C_R   0.317190 0.397929 0.605310 0.056360
C49   C     C_R   0.774520 0.596297 0.417269 0.074591
C50   C     C_R   0.223554 0.403286 0.582816 0.074612
C51   C     C_R   0.730112 0.540799 0.499681 -0.019029
C52   C     C_R   0.272385 0.462171 0.501308 -0.019606
C53   C     C_R   0.629447 0.536776 0.481331 -0.028015
C54   C     C_R   0.373624 0.469961 0.521131 -0.032026
C55   C     C_R   0.608755 0.575037 0.428767 0.041952
C56   C     C_R   0.392994 0.431986 0.573784 0.042324
C57   C     C_R   0.549694 0.498295 0.512545 0.006458
C58   C     C_R   0.454871 0.511641 0.490899 0.005234
C59   C     C_R   0.446293 0.566623 0.440023 0.183949
C60   C     C_R   0.558369 0.445211 0.564000 0.199232
C61   C     C_R   0.517580 0.587744 0.409598 -0.217957
C62   C     C_R   0.485519 0.422956 0.593900 -0.219865
C63   C     C_R   0.018752 0.573143 0.819024 0.540465
C64   C     C_R   0.079745 0.431934 0.201978 0.570708
C65   C     C_R   0.104280 0.571071 0.724205 0.177988
C66   C     C_R   0.967877 0.413219 0.283959 0.189715
C67   C     C_R   0.093499 0.576380 0.670998 0.082447
C68   C     C_R   0.962761 0.410107 0.335213 0.067326
C69   C     C_R   0.929206 0.427669 0.674327 0.071293
C70   C     C_R   0.028166 0.596805 0.318947 0.083516
C71   C     C_R   0.936089 0.429715 0.726422 0.138765
C72   C     C_R   0.022933 0.594879 0.267205 0.171372
C73   C     C_R   0.024586 0.500054 0.751120 0.264259
C74   C     C_R   0.023813 0.507625 0.254846 0.166740
Cu1   Cu    Cu3+1 0.081740 0.475690 0.513040 0.910286
Cu2   Cu    Cu3+1 0.918260 0.524310 0.486960 0.913818
H1    H     H_    0.314212 0.770324 0.525949 0.179554
H2    H     H_    0.683138 0.229614 0.480994 0.181459
H3    H     H_    0.502794 0.621688 0.370302 0.152569
H4    H     H_    0.499959 0.390797 0.633557 0.148014
H5    H     H_    0.244729 0.471644 0.461384 0.159153
H6    H     H_    0.760135 0.532008 0.539166 0.163187
H7    H     H_    0.164489 0.379217 0.605252 0.154328
H8    H     H_    0.831318 0.617489 0.393830 0.150569
H9    H     H_    0.072745 0.274190 0.166701 0.179246
H10   H     H_    0.014278 0.720320 0.857544 0.182486
H11   H     H_    0.071272 0.268861 0.080952 0.134924
H12   H     H_    0.046680 0.733711 0.945034 0.138371
H13   H     H_    0.100937 0.282896 0.009037 0.143799
H14   H     H_    0.140448 0.764947 0.014982 0.157770
N1    N     N_R   0.034139 0.499756 0.804624 -0.438099
N2    N     N_R   0.072239 0.514565 0.212201 -0.426471
N3    N     N_R   0.795430 0.560780 0.467350 -0.205150
N4    N     N_R   0.204570 0.439220 0.532650 -0.206470
O1    O     O_R   0.977900 0.338120 0.517190 -0.570314
O2    O     O_R   0.022100 0.661880 0.482810 -0.570362
O3    O     O_R   0.839850 0.379180 0.495160 -0.579729
O4    O     O_R   0.160150 0.620820 0.504840 -0.586514
O5    O     O_R   0.069030 0.479490 0.580750 -0.602627
O6    O     O_R   0.930970 0.520510 0.419250 -0.603262
O7    O     O_R   0.930970 0.520550 0.558720 -0.584548
O8    O     O_R   0.069030 0.479450 0.441280 -0.576610
O9    O     O_2   0.093811 0.369765 0.823875 -0.573340
O10   O     O_2   0.174243 0.689922 0.205105 -0.583720
O11   O     O_2   0.081760 0.352909 0.239290 -0.557421
O12   O     O_2   0.989825 0.641550 0.783366 -0.562652
C75   C     C_3   0.844158 0.340580 0.649459 -0.412504
C76   C     C_3   0.873899 0.250051 0.658339 -0.838664
H15   H     H_    0.942496 0.272725 0.640920 0.250130
H16   H     H_    0.890207 0.221947 0.699636 0.255934
H17   H     H_    0.810523 0.187168 0.640674 0.253947
H18   H     H_    0.771605 0.315339 0.663573 0.215892
H19   H     H_    0.825398 0.363720 0.607998 0.217905
C77   C     C_3   0.069220 0.697967 0.337479 -0.404322
C78   C     C_3   0.179458 0.725842 0.363519 -0.817171
H20   H     H_    0.185119 0.670339 0.398695 0.255329
H21   H     H_    0.226915 0.727315 0.337417 0.269904
H22   H     H_    0.209963 0.802693 0.373804 0.248123
H23   H     H_    0.068053 0.761799 0.306067 0.214218
H24   H     H_    0.021499 0.694399 0.363833 0.193628
C79   C     C_3   0.041321 0.853424 0.433832 -0.830640
H25   H     H_    0.005463 0.825770 0.468742 0.243328
H26   H     H_    0.028083 0.923704 0.415109 0.228738
H27   H     H_    0.002514 0.797054 0.407825 0.224326
C80   C     C_3   0.960559 0.147444 0.565701 -0.830789
H28   H     H_    0.992128 0.173893 0.529521 0.242083
H29   H     H_    0.002771 0.204702 0.591179 0.227931
H30   H     H_    0.974416 0.077235 0.583688 0.230488
C81   C     C_3   0.811760 0.981543 0.627420 -0.916429
H31   H     H_    0.881096 0.035645 0.647458 0.250255
H32   H     H_    0.754406 0.957715 0.652672 0.228159
H33   H     H_    0.829339 0.917451 0.624583 0.235774
C82   C     C_3   0.197124 0.021938 0.376951 -0.912111
H34   H     H_    0.132383 0.967425 0.354818 0.245889
H35   H     H_    0.174507 0.083398 0.378740 0.235113
H36   H     H_    0.259683 0.049958 0.354361 0.230324
C83   C     C_3   0.473071 0.791776 0.489103 -0.841720
H37   H     H_    0.420777 0.718582 0.508054 0.236615
H38   H     H_    0.432703 0.813025 0.451103 0.234192
H39   H     H_    0.538623 0.781889 0.481690 0.248661
C84   C     C_3   0.528645 0.208929 0.521687 -0.842538
H40   H     H_    0.572647 0.189151 0.558786 0.231457
H41   H     H_    0.578643 0.282485 0.501888 0.236436
H42   H     H_    0.463812 0.216765 0.531216 0.248207
C85   C     C_3   0.659997 0.647353 0.339606 -0.415021
C86   C     C_3   0.741712 0.672642 0.307747 -0.890468
H43   H     H_    0.813356 0.734296 0.321268 0.243821
H44   H     H_    0.755088 0.603350 0.309365 0.258375
H45   H     H_    0.715786 0.699860 0.267456 0.261491
H46   H     H_    0.589140 0.589708 0.322449 0.215617
H47   H     H_    0.647768 0.718271 0.335663 0.212126
C87   C     C_3   0.337617 0.358574 0.662374 -0.442163
C88   C     C_3   0.252698 0.330827 0.692973 -0.828761
H48   H     H_    0.235133 0.398169 0.690182 0.256863
H49   H     H_    0.183300 0.266952 0.679519 0.242581
H50   H     H_    0.277978 0.305663 0.733676 0.256730
H51   H     H_    0.353507 0.289346 0.667575 0.211061
H52   H     H_    0.406181 0.418257 0.679675 0.213231
C89   C     C_3   0.369896 0.614674 0.415497 -0.916951
H53   H     H_    0.406640 0.690330 0.392028 0.238017
H54   H     H_    0.307788 0.565959 0.389736 0.244056
H55   H     H_    0.339261 0.631450 0.443265 0.240789
C90   C     C_3   0.637335 0.401546 0.589989 -0.953147
H56   H     H_    0.605626 0.331107 0.617922 0.231939
H57   H     H_    0.662669 0.376277 0.563317 0.241132
H58   H     H_    0.702020 0.457400 0.611391 0.234060
C91   C     C_3   0.848729 0.358770 0.755920 -0.378503
C92   C     C_3   0.767629 0.402112 0.746218 -0.839116
H59   H     H_    0.800121 0.475827 0.760094 0.281918
H60   H     H_    0.737532 0.414654 0.705110 0.246156
H61   H     H_    0.703698 0.347976 0.766919 0.238704
H62   H     H_    0.814543 0.280958 0.746595 0.204389
H63   H     H_    0.874295 0.346550 0.797462 0.206969
C93   C     C_3   0.992418 0.671825 0.225356 -0.358946
C94   C     C_3   0.892505 0.672949 0.230702 -0.917845
H64   H     H_    0.832736 0.594326 0.234584 0.263697
H65   H     H_    0.902793 0.706749 0.264135 0.259090
H66   H     H_    0.866991 0.720273 0.196443 0.255136
H67   H     H_    0.053006 0.749738 0.224840 0.229169
H68   H     H_    0.978418 0.651358 0.187397 0.204135
C95   C     C_3   0.049746 0.232457 0.918848 -0.360124
C96   C     C_3   0.963363 0.144874 0.944599 -0.881233
H69   H     H_    0.984875 0.131682 0.986555 0.248839
H70   H     H_    0.893848 0.161553 0.934712 0.262245
H71   H     H_    0.945635 0.073330 0.931203 0.246939
H72   H     H_    0.120608 0.218214 0.932002 0.204931
H73   H     H_    0.025967 0.226894 0.878223 0.256727
C97   C     C_3   0.161515 0.804278 0.109631 -0.324559
C98   C     C_3   0.164385 0.894386 0.066492 -0.908631
H74   H     H_    0.227629 0.916023 0.045172 0.256122
H75   H     H_    0.090697 0.875677 0.040396 0.255146
H76   H     H_    0.177725 0.961296 0.082826 0.252332
H77   H     H_    0.102549 0.792850 0.131645 0.214145
H78   H     H_    0.236843 0.827684 0.134260 0.244812
C99   C     C_3   0.919446 0.308171 0.370217 -0.377241
C100  C     C_3   0.998573 0.261508 0.390819 -0.786110
H79   H     H_    0.022161 0.247106 0.359197 0.263009
H80   H     H_    0.066558 0.313444 0.412698 0.259556
H81   H     H_    0.965774 0.187959 0.416533 0.227656
H82   H     H_    0.893583 0.316243 0.402840 0.186053
H83   H     H_    0.850457 0.253540 0.350419 0.200064
C101  C     C_3   0.172396 0.662311 0.640049 -0.379346
C102  C     C_3   0.165620 0.764838 0.634942 -0.818970
H84   H     H_    0.088940 0.760843 0.615359 0.254171
H85   H     H_    0.180084 0.786781 0.672584 0.267538
H86   H     H_    0.223011 0.824971 0.611869 0.237370
H87   H     H_    0.250200 0.666305 0.656570 0.195179
H88   H     H_    0.163100 0.650522 0.600858 0.205809
C103  C     C_3   0.895101 0.323535 0.258035 -0.786369
H89   H     H_    0.816489 0.303432 0.263978 0.195478
H90   H     H_    0.892615 0.341750 0.216195 0.225057
H91   H     H_    0.914868 0.256090 0.273781 0.262211
C104  C     C_3   0.199906 0.638898 0.754233 -0.815765
H92   H     H_    0.227974 0.591205 0.787288 0.238607
H93   H     H_    0.183013 0.693019 0.768309 0.245788
H94   H     H_    0.264036 0.684437 0.732833 0.222591
C105  C     C_3   0.634885 0.807649 0.585615 -0.380277
C106  C     C_3   0.554588 0.698080 0.589712 -0.829069
H95   H     H_    0.481143 0.694353 0.595527 0.254832
H96   H     H_    0.545285 0.664951 0.556137 0.263462
H97   H     H_    0.580652 0.649279 0.623053 0.239593
H98   H     H_    0.701010 0.810596 0.571897 0.209091
H99   H     H_    0.655963 0.818471 0.625603 0.217414
C107  C     C_3   0.363037 0.193569 0.425885 -0.379867
C108  C     C_3   0.438833 0.304506 0.424840 -0.826010
H100  H     H_    0.445282 0.331357 0.460000 0.262560
H101  H     H_    0.513842 0.314628 0.417832 0.256476
H102  H     H_    0.410121 0.354212 0.393200 0.243506
H103  H     H_    0.346513 0.187355 0.385346 0.219461
H104  H     H_    0.293349 0.184743 0.438552 0.209129

loop_
_geom_bond_atom_site_label_1
_geom_bond_atom_site_label_2
_ccdc_geom_bond_type
C105  H99   S    
C66   C68   A    
C102  H84   S    
C47   C85   S    
C40   C41   A    
C72   C74   A    
C8    C26   A    
C75   H18   S    
C14   C18   A    
C23   O5    A    
C90   H56   S    
C107  C108  S    
C60   C90   S    
C85   C86   S    
C69   C75   S    
Cu1   O1    S    
C64   O11   S    
C47   C49   A    
C23   O7    A    
C104  H92   S    
C27   C33   A    
C38   C44   A    
C12   C68   A    
C49   H8    S    
C62   H4    S    
C90   H57   S    
C108  H100  S    
C81   H31   S    
C93   H67   S    
C19   H11   S    
C84   H41   S    
C34   H1    S    
C33   C35   A    
C33   H2    S    
C102  H85   S    
C24   O6    A    
C78   H20   S    
C66   C74   A    
C20   H12   S    
Cu2   O7    S    
C108  H102  S    
C65   C73   A    
C76   H15   S    
C30   C38   A    
C3    C18   A    
C60   C62   A    
C74   N2    S    
C11   C23   S    
C69   C71   A    
C101  H88   S    
C93   C94   S    
C75   H19   S    
C79   H27   S    
C45   O9    S    
C108  H101  S    
C96   H69   S    
C59   C89   S    
C92   H61   S    
C29   C81   S    
C24   O8    A    
C94   H64   S    
C11   C67   A    
C78   H21   S    
C82   H36   S    
C75   C76   S    
C89   H54   S    
C52   N4    A    
C44   C107  S    
C72   C93   S    
C94   H66   S    
C86   H44   S    
C85   H46   S    
C91   H63   S    
C81   H33   S    
C1    C27   S    
C78   H22   S    
C53   C55   A    
C28   C34   A    
C71   C91   S    
C41   C43   A    
C63   N1    A    
C43   C105  S    
C42   C44   A    
C100  H81   S    
C83   H39   S    
C52   C54   A    
C50   H7    S    
C77   C78   S    
C39   C42   A    
C21   H9    S    
C104  H93   S    
C10   C21   A    
C95   H73   S    
C102  H86   S    
C54   C56   A    
C59   C61   A    
C101  C102  S    
C7    C95   S    
C27   C31   A    
C14   C20   A    
Cu2   O6    S    
C28   C32   A    
C90   H58   S    
C73   N1    S    
C94   H65   S    
C84   H42   S    
C1    O3    A    
C39   C40   A    
C71   C73   A    
C53   C57   A    
C50   N4    A    
C15   C26   A    
C6    C8    A    
C25   H13   S    
C65   C67   A    
Cu2   O3    S    
C95   C96   S    
C5    C45   A    
Cu1   O4    S    
C8    C97   S    
C97   C98   S    
C51   C53   A    
C96   H71   S    
C37   C43   A    
C98   H76   S    
C35   C39   A    
Cu1   Cu2   S    
C65   C104  S    
C19   C21   A    
C3    C9    A    
C80   H29   S    
C107  H104  S    
Cu2   N3    S    
C80   H30   S    
C86   H45   S    
C5    C7    A    
C106  H96   S    
C89   H53   S    
C36   C40   A    
C1    O1    A    
C30   C82   S    
C106  H95   S    
C42   C84   S    
Cu1   O5    S    
C103  H89   S    
C89   H55   S    
C98   H74   S    
C63   O12   S    
C66   C103  S    
C83   H38   S    
C51   H6    S    
C79   H25   S    
C85   H47   S    
C86   H43   S    
C51   N3    A    
C87   H52   S    
C4    C17   A    
C4    C6    A    
C92   H59   S    
C105  C106  S    
C20   C22   A    
C97   H77   S    
C101  H87   S    
C48   C87   S    
C80   H28   S    
C56   C62   A    
C88   H49   S    
C64   N2    A    
C4    C10   A    
C36   C38   A    
C93   H68   S    
C91   C92   S    
C106  H97   S    
C47   C55   A    
C99   H82   S    
C54   C58   A    
C104  H94   S    
C16   C25   A    
C48   C56   A    
C12   C70   A    
C87   H51   S    
C105  H98   S    
C6    C46   A    
C35   C37   A    
C9    C63   A    
C41   C83   S    
C32   C79   S    
C10   C64   A    
C77   H23   S    
C100  H79   S    
C3    C5    A    
C70   C72   A    
C95   H72   S    
C11   C69   A    
C15   C17   A    
C91   H62   S    
C99   H83   S    
C26   H14   S    
C83   H37   S    
C12   C24   S    
C70   C77   S    
C7    C25   A    
C76   H17   S    
C13   C17   A    
C92   H60   S    
C2    O2    A    
C58   C59   A    
C29   C31   A    
C67   C101  S    
C84   H40   S    
Cu2   O2    S    
C30   C32   A    
C88   H50   S    
C57   C58   A    
C82   H34   S    
C46   O10   S    
C61   H3    S    
C55   C61   A    
C48   C50   A    
C103  H90   S    
C76   H16   S    
C68   C99   S    
C34   C36   A    
C22   H10   S    
C52   H5    S    
C45   N1    A    
C96   H70   S    
C79   H26   S    
C100  H80   S    
C97   H78   S    
C99   C100  S    
C57   C60   A    
C46   N2    A    
C87   C88   S    
C2    O4    A    
C16   C18   A    
C9    C22   A    
C13   C16   A    
C29   C37   A    
C82   H35   S    
C13   C19   A    
C31   C80   S    
C14   C15   A    
C2    C28   S    
C49   N3    A    
C88   H48   S    
C107  H103  S    
C103  H91   S    
Cu1   O8    S    
C77   H24   S    
Cu1   N4    S    
C98   H75   S    
C81   H32   S    
