data_mof_unit_11740.cif
_audit_creation_date              2012-10-26T19:37:16-0400
_audit_creation_method            fapswitch 2.2
_symmetry_space_group_name_H-M    P1
_symmetry_Int_Tables_number       1
_space_group_crystal_system       triclinic
_cell_length_a                    10.971893
_cell_length_b                    15.803869
_cell_length_c                    17.035425
_cell_angle_alpha                 96.028853
_cell_angle_beta                  92.955791
_cell_angle_gamma                 91.354014
_cell_volume                      2932.41403499

loop_
_atom_site_label
_atom_site_type_symbol
_atom_type_description
_atom_site_fract_x
_atom_site_fract_y
_atom_site_fract_z
_atom_type_partial_charge
C1    C     C_R   0.503853 0.489689 0.348295 0.539015
C2    C     C_R   0.466512 0.515555 0.737779 0.000924
C3    C     C_R   0.458055 0.596254 0.783953 -0.046795
C4    C     C_R   0.265467 0.501238 0.501883 0.541131
C5    C     C_R   0.466546 0.599293 0.866841 -0.104435
C6    C     C_R   0.426492 0.745952 0.463253 -0.002989
C7    C     C_R   0.423909 0.833794 0.454970 -0.142716
C8    C     C_R   0.516941 0.888311 0.492029 0.183348
C9    C     C_R   0.607885 0.852885 0.537560 -0.124949
C10   C     C_R   0.603817 0.765775 0.549617 0.120107
C11   C     C_R   0.529293 0.152912 0.544066 0.018296
C12   C     C_R   0.600251 0.541404 0.229275 -0.035872
C13   C     C_R   0.555138 0.242105 0.540904 0.133773
C14   C     C_R   0.451338 0.108371 0.483026 0.198149
C15   C     C_R   0.400512 0.245678 0.438141 -0.005497
C16   C     C_R   0.488809 0.510306 0.651339 0.535133
C17   C     C_R   0.385295 0.156600 0.431969 -0.168010
C18   C     C_R   0.733904 0.498719 0.495453 0.546959
C19   C     C_2   0.935467 0.559760 0.513157 -0.135813
C20   C     C_2   0.861893 0.496003 0.478025 -0.024629
C21   C     C_2   0.064504 0.568756 0.497823 -0.026933
C22   C     C_2   0.135896 0.504019 0.514134 -0.119047
C23   C     C_R   0.610059 0.536019 0.145935 0.033527
C24   C     C_R   0.517378 0.484206 0.261590 -0.007382
C25   C     C_3   0.706833 0.586873 0.108018 -0.236620
C26   C     C_3   0.822386 0.535059 0.097324 -0.300622
C27   C     C_3   0.922436 0.585935 0.062569 -0.459050
C28   C     C_3   0.681974 0.605443 0.282771 -0.245101
C29   C     C_3   0.626330 0.694106 0.290919 -0.274608
C30   C     C_3   0.709781 0.758278 0.342520 -0.449536
C31   C     C_3   0.666383 0.284145 0.588502 -0.205755
C32   C     C_3   0.785740 0.268180 0.546190 -0.284899
C33   C     C_3   0.840034 0.182041 0.557601 -0.456617
C34   C     C_R   0.534029 0.477161 0.097125 0.198524
C35   C     C_3   0.575164 0.106750 0.614578 -0.239027
C36   C     C_3   0.469554 0.079111 0.662848 -0.293314
C37   C     C_3   0.516181 0.031661 0.731442 -0.465906
C38   C     C_3   0.703197 0.733625 0.602825 -0.230303
C39   C     C_3   0.728440 0.790868 0.681253 -0.340016
C40   C     C_3   0.800130 0.744291 0.741919 -0.462462
C41   C     C_3   0.901337 0.427430 0.415229 -0.250455
C42   C     C_3   0.927608 0.463367 0.337222 -0.299920
C43   C     C_3   0.002794 0.402570 0.285308 -0.458521
C44   C     C_3   0.111980 0.648921 0.465588 -0.230253
C45   C     C_R   0.457210 0.420540 0.128966 -0.101872
C46   C     C_3   0.012310 0.709614 0.442018 -0.314719
C47   C     C_3   0.067270 0.785813 0.406812 -0.468226
C48   C     C_3   0.410436 0.353339 0.733865 -0.239150
C49   C     C_3   0.281652 0.356352 0.694252 -0.272735
C50   C     C_3   0.240621 0.270466 0.650389 -0.447650
C51   C     C_3   0.369583 0.353496 0.243693 -0.243374
C52   C     C_3   0.290097 0.293592 0.183630 -0.320098
C53   C     C_3   0.221727 0.226770 0.224491 -0.464193
C54   C     C_3   0.431867 0.677048 0.744939 -0.240134
C55   C     C_3   0.386253 0.752883 0.798503 -0.325386
C56   C     C_R   0.448972 0.420853 0.210555 -0.048386
C57   C     C_3   0.342660 0.823228 0.749732 -0.456533
C58   C     C_R   0.458732 0.446322 0.858786 -0.088250
C59   C     C_R   0.450245 0.440051 0.776292 -0.042934
C60   C     C_R   0.472955 0.525332 0.903953 0.187646
Cu1   Cu    Cu3+1 0.494040 0.415220 0.496180 0.884157
Cu2   Cu    Cu3+1 0.505960 0.584780 0.503820 0.879397
H1    H     H_    0.358701 0.704193 0.430070 0.124365
H2    H     H_    0.468440 0.659166 0.903985 0.112421
H3    H     H_    0.727293 0.736700 0.401918 0.170633
H4    H     H_    0.797927 0.765948 0.314461 0.139384
H5    H     H_    0.665801 0.820972 0.349484 0.154214
H6    H     H_    0.610732 0.717268 0.232049 0.145469
H7    H     H_    0.536283 0.691290 0.317343 0.190306
H8    H     H_    0.700600 0.584014 0.341906 0.173256
H9    H     H_    0.774713 0.609483 0.260262 0.118556
H10   H     H_    0.850509 0.173252 0.621388 0.141944
H11   H     H_    0.781936 0.129765 0.525695 0.162973
H12   H     H_    0.899653 0.608468 0.554678 0.114210
H13   H     H_    0.931671 0.178971 0.532815 0.134276
H14   H     H_    0.770044 0.272869 0.481907 0.174299
H15   H     H_    0.854467 0.318568 0.569784 0.140168
H16   H     H_    0.657511 0.352472 0.599662 0.199889
H17   H     H_    0.675370 0.269573 0.650351 0.075091
H18   H     H_    0.562902 0.973169 0.708777 0.148533
H19   H     H_    0.580922 0.072967 0.771651 0.146125
H20   H     H_    0.438150 0.013296 0.765633 0.138487
H21   H     H_    0.421648 0.136427 0.687054 0.146192
H22   H     H_    0.402595 0.036898 0.625445 0.195644
H23   H     H_    0.890695 0.604092 0.003827 0.153687
H24   H     H_    0.631104 0.051927 0.595351 0.165036
H25   H     H_    0.638326 0.145060 0.656763 0.123304
H26   H     H_    0.681566 0.894402 0.564685 0.091989
H27   H     H_    0.746187 0.688398 0.756940 0.152534
H28   H     H_    0.887860 0.722545 0.718198 0.150021
H29   H     H_    0.820047 0.787944 0.796757 0.143457
H30   H     H_    0.783187 0.848261 0.670849 0.149853
H31   H     H_    0.641691 0.812512 0.706318 0.155561
H32   H     H_    0.679308 0.669338 0.617186 0.212781
H33   H     H_    0.788286 0.730395 0.570528 0.111445
H34   H     H_    0.948188 0.644324 0.102709 0.147742
H35   H     H_    0.344392 0.281275 0.400098 0.129174
H36   H     H_    0.353144 0.857899 0.417420 0.114480
H37   H     H_    0.319997 0.125177 0.387942 0.102849
H38   H     H_    0.093113 0.394844 0.315704 0.151030
H39   H     H_    0.954775 0.339562 0.272686 0.151521
H40   H     H_    0.017412 0.428920 0.228510 0.138823
H41   H     H_    0.839807 0.472844 0.304578 0.147402
H42   H     H_    0.977870 0.525503 0.347729 0.172677
H43   H     H_    0.980245 0.392951 0.437594 0.135712
H44   H     H_    0.827627 0.377985 0.401260 0.146559
H45   H     H_    0.004410 0.546578 0.055237 0.145669
H46   H     H_    0.132352 0.822129 0.450694 0.152364
H47   H     H_    0.115641 0.764304 0.352897 0.143369
H48   H     H_    0.993535 0.828685 0.390568 0.144124
H49   H     H_    0.945757 0.675389 0.397689 0.162862
H50   H     H_    0.963437 0.733755 0.494873 0.154892
H51   H     H_    0.174930 0.684466 0.511384 0.164097
H52   H     H_    0.162587 0.629338 0.412066 0.147795
H53   H     H_    0.096995 0.449767 0.539446 0.079640
H54   H     H_    0.305291 0.250225 0.604563 0.173187
H55   H     H_    0.235096 0.221559 0.692439 0.135118
H56   H     H_    0.857295 0.516416 0.155244 0.152467
H57   H     H_    0.148808 0.275792 0.620985 0.135063
H58   H     H_    0.215854 0.374499 0.740176 0.147794
H59   H     H_    0.278318 0.404911 0.651774 0.188613
H60   H     H_    0.477740 0.328954 0.691765 0.168008
H61   H     H_    0.407108 0.304627 0.776409 0.113948
H62   H     H_    0.449835 0.389391 0.888627 0.125729
H63   H     H_    0.403757 0.376086 0.087687 0.117608
H64   H     H_    0.287519 0.184629 0.251753 0.146059
H65   H     H_    0.165407 0.257281 0.271091 0.143872
H66   H     H_    0.160854 0.187161 0.180360 0.144352
H67   H     H_    0.800464 0.476017 0.057106 0.178310
H68   H     H_    0.222782 0.331167 0.151955 0.160999
H69   H     H_    0.348401 0.258920 0.140281 0.157676
H70   H     H_    0.431521 0.312691 0.275804 0.172370
H71   H     H_    0.307872 0.386305 0.285976 0.149960
H72   H     H_    0.417064 0.844461 0.713915 0.155363
H73   H     H_    0.263137 0.800027 0.709578 0.151714
H74   H     H_    0.314364 0.878387 0.789826 0.137563
H75   H     H_    0.308840 0.731901 0.832129 0.165014
H76   H     H_    0.461579 0.779648 0.840632 0.152928
H77   H     H_    0.515837 0.698033 0.718581 0.173654
H78   H     H_    0.672609 0.604455 0.049734 0.177079
H79   H     H_    0.359520 0.660787 0.697172 0.174926
H80   H     H_    0.730063 0.648899 0.142513 0.127044
N1    N     N_2   0.534569 0.471781 0.014130 -0.271765
N2    N     N_2   0.480548 0.532035 0.987551 -0.261588
N3    N     N_R   0.514910 0.712130 0.509560 -0.221652
N4    N     N_2   0.527636 0.977718 0.484534 -0.256643
N5    N     N_2   0.430932 0.017157 0.476135 -0.251782
N6    N     N_R   0.485090 0.287850 0.490450 -0.231775
O1    O     O_R   0.494430 0.420530 0.382500 -0.508809
O2    O     O_R   0.504490 0.563720 0.388950 -0.506033
O3    O     O_R   0.316910 0.428420 0.496780 -0.507797
O4    O     O_R   0.326970 0.571610 0.503230 -0.511063
O5    O     O_R   0.495510 0.436280 0.611050 -0.520735
O6    O     O_R   0.505570 0.579470 0.617500 -0.523348
O7    O     O_R   0.673030 0.428390 0.496770 -0.519128
O8    O     O_R   0.683090 0.571580 0.503220 -0.521572

loop_
_geom_bond_atom_site_label_1
_geom_bond_atom_site_label_2
_ccdc_geom_bond_type
C7    H36   S    
C46   H50   S    
C50   H55   S    
C11   C13   A    
C41   C42   S    
C35   C36   S    
C42   H41   S    
C48   H61   S    
C20   C41   S    
C7    C8    A    
C12   C23   A    
C26   C27   S    
C55   H76   S    
C41   H43   S    
C12   C28   S    
C36   C37   S    
C19   C21   S    
Cu1   N6    S    
C9    H26   S    
C48   H60   S    
C15   N6    A    
C3    C54   S    
C49   H58   S    
C36   H21   S    
C58   C60   A    
N1    N2    D    
C29   H6    S    
C51   C56   S    
C27   H23   S    
C39   H31   S    
C53   H65   S    
C33   H10   S    
C32   H15   S    
C46   C47   S    
C35   H25   S    
C33   H13   S    
C31   C32   S    
C45   C56   A    
C45   H63   S    
C8    C9    A    
Cu2   N3    S    
C38   H33   S    
C57   H74   S    
C1    O1    A    
C40   H27   S    
C2    C16   S    
C9    C10   A    
C50   H54   S    
C30   H5    S    
C44   H52   S    
C21   C22   D    
C31   H16   S    
C14   C17   A    
C37   H19   S    
C27   H34   S    
C15   H35   S    
Cu1   O7    S    
C44   C46   S    
C29   H7    S    
C4    O4    A    
C37   H18   S    
C28   H8    S    
C34   N1    S    
C41   H44   S    
C51   C52   S    
C25   H78   S    
C43   H38   S    
C39   C40   S    
C6    N3    A    
C2    C59   A    
C58   C59   A    
C47   H47   S    
C14   N5    S    
C17   H37   S    
C50   H57   S    
C5    H2    S    
C42   H42   S    
C6    H1    S    
C43   H39   S    
C29   C30   S    
C53   H66   S    
C21   C44   S    
C4    C22   S    
C54   H77   S    
C27   H45   S    
C23   C34   A    
C49   H59   S    
C38   H32   S    
C1    O2    A    
C34   C45   A    
Cu1   O3    S    
C30   H4    S    
C26   H67   S    
Cu2   O4    S    
C33   H11   S    
C22   H53   S    
C44   H51   S    
C49   C50   S    
C55   C57   S    
C16   O6    A    
C37   H20   S    
C28   H9    S    
C42   C43   S    
C39   H30   S    
C18   O8    A    
C52   C53   S    
C48   C59   S    
N4    N5    D    
C15   C17   A    
C4    O3    A    
C54   C55   S    
C28   C29   S    
Cu2   O2    S    
C5    C60   A    
C52   H69   S    
C13   C31   S    
C19   H12   S    
C8    N4    S    
C26   H56   S    
C3    C5    A    
Cu1   O5    S    
C32   H14   S    
C51   H70   S    
C31   H17   S    
C6    C7    A    
C24   C56   A    
C47   H48   S    
C12   C24   A    
C58   H62   S    
C55   H75   S    
C10   C38   S    
C52   H68   S    
C32   C33   S    
C19   C20   D    
C11   C35   S    
C2    C3    A    
C25   C26   S    
C43   H40   S    
C60   N2    S    
C51   H71   S    
C25   H80   S    
C38   C39   S    
C36   H22   S    
C48   C49   S    
C11   C14   A    
Cu2   O8    S    
C18   C20   S    
C23   C25   S    
C40   H29   S    
Cu1   Cu2   S    
C57   H72   S    
C30   H3    S    
C53   H64   S    
C10   N3    A    
Cu2   O6    S    
C54   H79   S    
C1    C24   S    
C47   H46   S    
C16   O5    A    
C57   H73   S    
C13   N6    A    
C40   H28   S    
C46   H49   S    
Cu1   O1    S    
C35   H24   S    
C18   O7    A    
