data_mof_unit_53237.cif
_audit_creation_date              2012-12-10T20:02:28-0500
_audit_creation_method            fapswitch 2.2
_symmetry_space_group_name_H-M    P1
_symmetry_Int_Tables_number       1
_space_group_crystal_system       triclinic
_cell_length_a                    10.693046
_cell_length_b                    14.842156
_cell_length_c                    14.224196
_cell_angle_alpha                 89.103665
_cell_angle_beta                  91.337396
_cell_angle_gamma                 89.466586
_cell_volume                      2256.49483706

loop_
_atom_site_label
_atom_site_type_symbol
_atom_type_description
_atom_site_fract_x
_atom_site_fract_y
_atom_site_fract_z
_atom_type_partial_charge
C1    C     C_R   0.503035 0.327524 0.500811 0.914074
C2    C     C_R   0.509754 0.821395 0.421253 -0.245480
C3    C     C_R   0.524940 0.231899 0.503701 -0.224995
C4    C     C_R   0.531487 0.768058 0.501273 -0.205638
C5    C     C_R   0.612246 0.194588 0.443661 -0.149564
C6    C     C_R   0.584516 0.805097 0.582714 -0.215904
C7    C     C_R   0.642175 0.103641 0.450385 0.566654
C8    C     C_R   0.611220 0.895979 0.586283 0.495786
C9    C     C_R   0.576925 0.048938 0.514805 -0.127169
C10   C     C_R   0.579456 0.951362 0.507315 -0.153433
C11   C     C_R   0.394952 0.467342 0.104268 0.466275
C12   C     C_R   0.505857 0.672567 0.499803 0.968015
C13   C     C_R   0.525847 0.579625 0.893792 0.451533
C14   C     C_R   0.401377 0.464723 0.203590 -0.262149
C15   C     C_R   0.530476 0.576245 0.794648 -0.219620
C16   C     C_R   0.259965 0.502493 0.498611 0.879458
C17   C     C_R   0.739670 0.499418 0.501368 0.861018
C18   C     C_R   0.596158 0.538693 0.205055 0.510811
C19   C     C_R   0.467543 0.424028 0.796962 0.502935
C20   C     C_R   0.601113 0.534174 0.105762 0.317921
C21   C     C_R   0.477234 0.420751 0.896810 0.287490
C22   C     C_R   0.498022 0.501152 0.053152 -0.084662
C23   C     C_R   0.871681 0.502735 0.504831 -0.077401
C24   C     C_R   0.501055 0.500434 0.946646 -0.095340
C25   C     C_R   0.210307 0.716271 0.254080 0.605237
C26   C     C_R   0.831063 0.221919 0.661477 0.598480
C27   C     C_R   0.180988 0.675207 0.340920 0.350944
C28   C     C_R   0.872883 0.288086 0.598288 0.274774
C29   C     C_R   0.105186 0.596730 0.342268 -0.199458
C30   C     C_R   0.884981 0.378404 0.628825 -0.208875
C31   C     C_R   0.058387 0.562331 0.256231 0.559089
C32   C     C_R   0.852014 0.400892 0.720993 0.596802
C33   C     C_R   0.079189 0.608437 0.172308 -0.281047
C34   C     C_R   0.127155 0.504192 0.496732 -0.113265
C35   C     C_R   0.803523 0.334633 0.780704 -0.345096
C36   C     C_R   0.154852 0.683711 0.170486 -0.444562
C37   C     C_R   0.794028 0.245745 0.751450 -0.370976
C38   C     C_R   0.928290 0.558691 0.439790 -0.141805
C39   C     C_R   0.069733 0.450998 0.564600 -0.246824
C40   C     C_3   0.224637 0.493912 0.004460 -0.315611
C41   C     C_3   0.446612 0.717413 0.928252 -0.320650
C42   C     C_3   0.682520 0.672623 0.244337 -0.218581
C43   C     C_3   0.294410 0.343577 0.759554 -0.265831
C44   C     C_3   0.787174 0.490995 0.047031 -0.215772
C45   C     C_R   0.941558 0.447775 0.567735 0.091300
C46   C     C_3   0.548605 0.281279 0.942174 -0.239990
C47   C     C_3   0.357413 0.802873 0.175922 -0.381046
C48   C     C_3   0.934886 0.089065 0.652479 -0.296727
C49   C     C_3   0.047987 0.410146 0.249842 -0.331441
C50   C     C_3   0.964081 0.498581 0.809706 -0.343875
C51   C     C_3   0.306017 0.020375 0.612168 -0.311709
C52   C     C_3   0.376833 0.993642 0.345001 -0.251468
C53   C     C_R   0.056257 0.555964 0.430244 0.038617
C54   C     C_R   0.489966 0.087163 0.576070 0.522389
C55   C     C_R   0.529402 0.913524 0.424303 0.487010
C56   C     C_R   0.468110 0.179388 0.572121 -0.277882
H1    H     H_    0.167030 0.717536 0.103506 0.183272
H2    H     H_    0.473889 0.792108 0.357449 0.227235
H3    H     H_    0.660366 0.236812 0.393509 0.187954
H4    H     H_    0.606747 0.763265 0.644040 0.187153
H5    H     H_    0.758842 0.009639 0.413768 0.337221
H6    H     H_    0.689933 0.990850 0.659388 0.375373
H7    H     H_    0.240020 0.564796 0.025969 0.139328
H8    H     H_    0.123434 0.479725 0.009350 0.161186
H9    H     H_    0.247870 0.486732 0.929457 0.160476
H10   H     H_    0.361037 0.686089 0.956832 0.128241
H11   H     H_    0.430561 0.738217 0.853436 0.172829
H12   H     H_    0.758541 0.194836 0.798888 0.193421
H13   H     H_    0.465013 0.779312 0.968813 0.199190
H14   H     H_    0.743130 0.704513 0.298398 0.159382
H15   H     H_    0.585523 0.697566 0.254714 0.132406
H16   H     H_    0.715626 0.695071 0.174446 0.209153
H17   H     H_    0.255984 0.298502 0.704835 0.154968
H18   H     H_    0.246067 0.410021 0.750674 0.121942
H19   H     H_    0.272195 0.313176 0.828906 0.211064
H20   H     H_    0.746323 0.444022 0.995055 0.128171
H21   H     H_    0.811172 0.454563 0.114122 0.194305
H22   H     H_    0.875214 0.516509 0.017548 0.163754
H23   H     H_    0.325335 0.435577 0.242032 0.184694
H24   H     H_    0.634151 0.309043 0.976231 0.122607
H25   H     H_    0.566869 0.260815 0.868951 0.193615
H26   H     H_    0.523859 0.219528 0.982233 0.196785
H27   H     H_    0.399826 0.737448 0.155237 0.152695
H28   H     H_    0.435507 0.848922 0.192920 0.226191
H29   H     H_    0.303136 0.834182 0.116241 0.181273
H30   H     H_    0.957434 0.087051 0.729297 0.153995
H31   H     H_    0.012519 0.120668 0.613360 0.181168
H32   H     H_    0.927040 0.018473 0.628703 0.196983
H33   H     H_    0.190259 0.685715 0.477785 0.323429
H34   H     H_    0.555832 0.635934 0.755383 0.191708
H35   H     H_    0.919800 0.313939 0.468351 0.340216
H36   H     H_    0.113495 0.401644 0.311367 0.172906
H37   H     H_    0.099588 0.407569 0.182971 0.195643
H38   H     H_    0.982946 0.352379 0.250833 0.202089
H39   H     H_    0.051437 0.488758 0.770213 0.155683
H40   H     H_    0.962482 0.451454 0.871269 0.138210
H41   H     H_    0.964830 0.568105 0.837178 0.206145
H42   H     H_    0.302604 0.980985 0.546340 0.162334
H43   H     H_    0.252956 0.084841 0.602606 0.139939
H44   H     H_    0.258504 0.980171 0.666919 0.199397
H45   H     H_    0.034301 0.586547 0.108008 0.181450
H46   H     H_    0.363922 0.049732 0.394690 0.139346
H47   H     H_    0.312185 0.937612 0.362052 0.211620
H48   H     H_    0.350163 0.019498 0.273679 0.201127
H49   H     H_    0.774526 0.352265 0.850368 0.161138
H50   H     H_    0.871752 0.599977 0.391462 0.187788
H51   H     H_    0.124746 0.407408 0.611471 0.141431
H52   H     H_    0.404026 0.209364 0.620635 0.199366
N1    N     N_R   0.500000 0.499980 0.252470 -0.178643
N2    N     N_R   0.500000 0.500020 0.747530 -0.166932
O1    O     O_R   0.500010 0.369070 0.579480 -0.549735
O2    O     O_3   0.664247 0.927676 0.668697 -0.732746
O3    O     O_3   0.291184 0.429404 0.060607 -0.551657
O4    O     O_3   0.551254 0.659404 0.939052 -0.538476
O5    O     O_3   0.692592 0.578128 0.255190 -0.549850
O6    O     O_3   0.424983 0.349944 0.748885 -0.571457
O7    O     O_3   0.706405 0.564842 0.061108 -0.542139
O8    O     O_3   0.447794 0.342676 0.945664 -0.548028
O9    O     O_3   0.281757 0.794150 0.255718 -0.593337
O10   O     O_3   0.820015 0.133796 0.633339 -0.601766
O11   O     O_3   0.224440 0.716097 0.421819 -0.757446
O12   O     O_R   0.499990 0.630930 0.420520 -0.600082
O13   O     O_3   0.902237 0.260993 0.508765 -0.741759
O14   O     O_3   0.977278 0.490326 0.255029 -0.583522
O15   O     O_3   0.858014 0.489256 0.750073 -0.570236
O16   O     O_3   0.430637 0.034655 0.642530 -0.569854
O17   O     O_3   0.503336 0.965758 0.344680 -0.596224
O18   O     O_R   0.500010 0.369060 0.420520 -0.623532
O19   O     O_R   0.499990 0.630940 0.579480 -0.641237
O20   O     O_R   0.316760 0.500010 0.579480 -0.612780
O21   O     O_R   0.683240 0.499990 0.420520 -0.560135
O22   O     O_R   0.316760 0.500000 0.420520 -0.627607
O23   O     O_R   0.683240 0.500000 0.579480 -0.590420
O24   O     O_3   0.733018 0.070889 0.392126 -0.714417
Zn1   Zn    Zn3+2 0.500000 0.500010 0.606140 0.997765
Zn2   Zn    Zn3+2 0.500000 0.499990 0.393860 0.984487

loop_
_geom_bond_atom_site_label_1
_geom_bond_atom_site_label_2
_ccdc_geom_bond_type
C43   H17   S    
C14   N1    A    
C46   H24   S    
C52   H47   S    
C23   C45   A    
C17   O21   A    
C30   C45   S    
O20   Zn1   S    
C18   N1    A    
C41   O4    S    
O1    Zn1   S    
C27   O11   S    
C28   O13   S    
C41   H11   S    
C39   H51   S    
C54   O16   S    
C52   H46   S    
C17   C23   S    
C40   H7    S    
H33   O11   S    
C33   H45   S    
C47   H29   S    
C44   H21   S    
C35   C37   A    
C26   O10   S    
C31   O14   S    
C2    C55   A    
O18   Zn2   S    
C11   C14   A    
C50   H39   S    
C27   C29   A    
C37   H12   S    
C42   H14   S    
C33   C36   A    
C46   O8    S    
C44   H20   S    
C56   H52   S    
C16   C34   S    
O19   Zn1   S    
C50   H41   S    
C1    O18   A    
C47   H27   S    
C49   H38   S    
C4    C12   S    
C16   O20   A    
C9    C10   S    
C18   C20   A    
C13   O4    S    
C39   C45   A    
C43   H18   S    
C47   O9    S    
H35   O13   S    
N1    Zn2   S    
C43   H19   S    
C15   N2    A    
N2    Zn1   S    
C16   O22   A    
C25   O9    S    
C42   H16   S    
C20   O7    S    
C52   O17   S    
H5    O24   S    
C51   H43   S    
C54   C56   A    
C12   O19   A    
C5    H3    S    
C34   C39   A    
C32   C35   A    
C6    H4    S    
C7    O24   S    
C4    C6    A    
O21   Zn2   S    
C5    C7    A    
C6    C8    A    
C47   H28   S    
C49   O14   S    
C13   C24   A    
C1    C3    S    
C32   O15   S    
C38   H50   S    
C2    C4    A    
C21   O8    S    
C35   H49   S    
C43   O6    S    
C46   H25   S    
C3    C56   A    
C40   O3    S    
O22   Zn2   S    
C48   H32   S    
C48   H31   S    
H6    O2    S    
C50   O15   S    
C14   H23   S    
C10   C55   A    
O12   Zn2   S    
C55   O17   S    
C36   H1    S    
C40   H9    S    
C13   C15   A    
C17   O23   A    
C22   C24   S    
C49   H36   S    
C48   O10   S    
C41   H13   S    
C19   N2    A    
C51   H44   S    
C7    C9    A    
C52   H48   S    
C31   C33   A    
C19   C21   A    
C51   O16   S    
C20   C22   A    
C3    C5    A    
C18   O5    S    
C2    H2    S    
C26   C37   A    
C41   H10   S    
C46   H26   S    
C25   C27   A    
C23   C38   A    
C11   C22   A    
C26   C28   A    
C40   H8    S    
C44   H22   S    
C29   C31   A    
C1    O1    A    
C15   H34   S    
C30   C32   A    
C50   H40   S    
C38   C53   A    
C29   C53   S    
C19   O6    S    
C51   H42   S    
C28   C30   A    
C42   H15   S    
C8    O2    S    
C48   H30   S    
C11   O3    S    
C25   C36   A    
C42   O5    S    
C12   O12   A    
C34   C53   A    
C8    C10   A    
C21   C24   A    
O23   Zn1   S    
C9    C54   A    
C49   H37   S    
C44   O7    S    
