data_mof_unit_52954.cif
_audit_creation_date              2012-12-11T17:06:38-0500
_audit_creation_method            fapswitch 2.2
_symmetry_space_group_name_H-M    P1
_symmetry_Int_Tables_number       1
_space_group_crystal_system       triclinic
_cell_length_a                    6.955236
_cell_length_b                    14.516573
_cell_length_c                    15.95387
_cell_angle_alpha                 90.458882
_cell_angle_beta                  90.029213
_cell_angle_gamma                 89.99898
_cell_volume                      1610.74961667

loop_
_atom_site_label
_atom_site_type_symbol
_atom_type_description
_atom_site_fract_x
_atom_site_fract_y
_atom_site_fract_z
_atom_type_partial_charge
O1    O     O_R   0.494400 0.415450 0.412630 -0.539578
O2    O     O_R   0.823940 0.405730 0.586760 -0.546210
O3    O     O_R   0.994240 0.584550 0.587370 -0.532500
C1    C     C_R   0.655182 0.383595 0.615317 0.686026
O4    O     O_R   0.824110 0.404430 0.413240 -0.545519
O5    O     O_R   0.994420 0.583240 0.412620 -0.524913
C2    C     C_R   0.655324 0.382238 0.384230 0.692530
O6    O     O_R   0.494230 0.416760 0.587380 -0.541293
O7    O     O_3   0.660800 0.558670 0.500000 -0.347453
V1    V     V_3+5 0.935650 0.489120 0.500000 1.421589
O8    O     O_R   0.324140 0.594270 0.413240 -0.533418
C3    C     C_R   0.154711 0.617718 0.385621 0.741257
O9    O     O_R   0.323960 0.595570 0.586760 -0.540401
C4    C     C_R   0.155193 0.617804 0.615524 0.693906
V2    V     V_3+5 0.435660 0.510880 0.500000 1.440210
O10   O     O_3   0.160640 0.441330 0.500000 -0.379593
C5    C     C_3   0.055356 0.668086 0.772098 -0.150122
C6    C     C_3   0.228778 0.716426 0.814814 -0.146272
H1    H     H_    0.307573 0.690619 0.870425 0.100261
H2    H     H_    0.991371 0.601536 0.791571 0.096920
C7    C     C_3   0.121140 0.808908 0.810079 -0.011826
C8    C     C_3   0.947529 0.761368 0.768146 -0.118078
C9    C     C_3   0.037212 0.779996 0.681012 -0.125150
C10   C     C_3   0.210625 0.828344 0.723731 -0.135604
C11   C     C_3   0.318457 0.735056 0.727674 -0.110465
C12   C     C_3   0.144835 0.687509 0.685752 -0.007612
H3    H     H_    0.794465 0.772440 0.785183 0.109603
H4    H     H_    0.958362 0.805894 0.625474 0.142553
H5    H     H_    0.274579 0.894899 0.704247 0.109368
H6    H     H_    0.471505 0.723990 0.710601 0.113856
C13   C     C_R   0.248693 0.739035 0.180026 0.092282
C14   C     C_R   0.117119 0.811910 0.180084 -0.128414
C15   C     C_R   0.983870 0.815818 0.246573 -0.196378
H7    H     H_    0.876954 0.870068 0.248065 0.142114
C16   C     C_R   0.997217 0.754991 0.315159 0.133452
C17   C     C_R   0.140897 0.685351 0.316627 -0.128274
C18   C     C_R   0.258330 0.676770 0.245594 0.053345
C19   C     C_3   0.471406 0.668011 0.237650 -0.391972
C20   C     C_3   0.460689 0.736922 0.166300 -0.383746
H8    H     H_    0.515358 0.597893 0.216705 0.159288
H9    H     H_    0.548655 0.694698 0.293571 0.215884
H10   H     H_    0.499297 0.706495 0.104422 0.159216
H11   H     H_    0.531068 0.803828 0.181367 0.187948
C21   C     C_R   0.491492 0.251427 0.686835 0.106911
C22   C     C_R   0.647073 0.312239 0.680851 -0.108315
C23   C     C_R   0.799562 0.300928 0.737893 -0.180079
H12   H     H_    0.922321 0.346404 0.735656 0.127283
C24   C     C_R   0.788443 0.235402 0.802315 -0.180131
H13   H     H_    0.903799 0.231658 0.847601 0.129099
C25   C     C_R   0.623996 0.179801 0.811756 -0.109624
C26   C     C_R   0.480052 0.186877 0.750816 0.101450
C27   C     C_3   0.269806 0.202201 0.761690 -0.414805
C28   C     C_3   0.282179 0.272235 0.691669 -0.397253
H14   H     H_    0.235705 0.233573 0.823685 0.169493
H15   H     H_    0.184081 0.140197 0.744621 0.173924
H16   H     H_    0.254529 0.344154 0.712878 0.163049
H17   H     H_    0.204185 0.250603 0.633954 0.176073
C29   C     C_R   0.493521 0.315951 0.256288 0.096251
C30   C     C_R   0.647461 0.316289 0.312976 -0.111261
C31   C     C_R   0.798910 0.254067 0.297470 -0.173406
H18   H     H_    0.921152 0.252000 0.339207 0.133931
C32   C     C_R   0.787768 0.189322 0.231424 -0.170567
H19   H     H_    0.902322 0.139556 0.224091 0.129115
C33   C     C_R   0.624555 0.184682 0.179115 -0.109419
C34   C     C_R   0.482032 0.251605 0.191166 0.097979
C35   C     C_3   0.270926 0.239801 0.202732 -0.405768
C36   C     C_3   0.283316 0.310377 0.273350 -0.397632
H20   H     H_    0.234019 0.169507 0.224635 0.170729
H21   H     H_    0.187417 0.264356 0.147847 0.172154
H22   H     H_    0.252688 0.281282 0.336190 0.172613
H23   H     H_    0.207910 0.375966 0.259111 0.165185
O11   O     O_R   0.771650 0.079500 0.908680 -0.539389
O12   O     O_R   0.441690 0.091800 0.082800 -0.539624
O13   O     O_R   0.271460 0.912980 0.083410 -0.536716
C37   C     C_R   0.610731 0.113941 0.111912 0.695874
O14   O     O_R   0.441930 0.090510 0.909280 -0.540594
O15   O     O_R   0.271690 0.911670 0.908660 -0.537459
C38   C     C_R   0.610994 0.112850 0.880908 0.697593
O16   O     O_R   0.771410 0.080810 0.083440 -0.541531
O17   O     O_3   0.605100 0.937580 0.996050 -0.368904
V3    V     V_3+5 0.330220 0.007110 0.996030 1.397284
O18   O     O_R   0.941980 0.900620 0.909250 -0.541725
C39   C     C_R   0.110746 0.878509 0.880402 0.681424
O19   O     O_R   0.941740 0.901920 0.082770 -0.543019
C40   C     C_R   0.110430 0.880187 0.111716 0.704919
V4    V     V_3+5 0.830220 0.985300 0.996000 1.395681
O20   O     O_3   0.105210 0.054870 0.996020 -0.371388
I1    I     I_    0.817257 0.783710 0.419839 -0.466222

loop_
_geom_bond_atom_site_label_1
_geom_bond_atom_site_label_2
_ccdc_geom_bond_type
C35   H20   S    
C6    C7    S    
C16   C17   A    
C1    O6    A    
C22   C23   A    
C27   C28   S    
C32   H19   S    
C5    C12   S    
C17   C18   A    
O19   V4    S    
O5    C3    A    
C19   C20   S    
C35   H21   S    
O15   C39   A    
V2    O10   S    
C5    H2    S    
C31   C32   A    
C6    H1    S    
C9    C12   S    
O12   V3    S    
C10   H5    S    
C32   C33   A    
O8    V2    S    
C21   C28   S    
C7    C39   S    
O17   V4    S    
C9    C10   S    
O1    V2    S    
C3    C17   S    
O7    V1    S    
C27   H15   S    
C24   C25   A    
C35   C36   S    
C30   C31   A    
O9    C4    A    
O12   C37   A    
C6    C11   S    
C25   C38   S    
C2    C30   S    
C27   H14   S    
C5    C6    S    
C20   H10   S    
C1    C22   S    
C23   C24   A    
C26   C27   S    
O19   C40   A    
C10   C11   S    
C19   H9    S    
O4    C2    A    
C28   H17   S    
V4    O20   S    
C20   H11   S    
C25   C26   A    
C29   C30   A    
O18   V4    S    
C13   C18   A    
C31   H18   S    
O2    C1    A    
C18   C19   S    
C16   I1    S    
C29   C34   A    
C13   C14   A    
O15   V3    S    
C15   H7    S    
C9    H4    S    
C4    C12   S    
V3    O20   S    
O3    C4    A    
C21   C26   A    
C24   H13   S    
C34   C35   S    
O6    V2    S    
C8    H3    S    
O9    V2    S    
O13   V3    S    
O2    V1    S    
C21   C22   A    
C28   H16   S    
C11   H6    S    
C23   H12   S    
O1    C2    A    
O14   C38   A    
O17   V3    S    
O14   V3    S    
O5    V1    S    
O11   V4    S    
O8    C3    A    
C5    C8    S    
C36   H22   S    
C14   C15   A    
C11   C12   S    
O4    V1    S    
O3    V1    S    
V1    O10   S    
C33   C34   A    
C19   H8    S    
C14   C40   S    
C15   C16   A    
C33   C37   S    
C13   C20   S    
C36   H23   S    
O13   C40   A    
O7    V2    S    
C29   C36   S    
O18   C39   A    
C7    C10   S    
O11   C38   A    
C8    C9    S    
C7    C8    S    
C37   O16   A    
O16   V4    S    
