data_mof_unit_33973.cif
_audit_creation_date              2013-03-05T15:49:32-0500
_audit_creation_method            fapswitch 2.2
_symmetry_space_group_name_H-M    P1
_symmetry_Int_Tables_number       1
_space_group_crystal_system       triclinic
_cell_length_a                    19.382555
_cell_length_b                    12.995369
_cell_length_c                    11.743751
_cell_angle_alpha                 98.959628
_cell_angle_beta                  93.880388
_cell_angle_gamma                 92.598647
_cell_volume                      2910.57498259

loop_
_atom_site_label
_atom_site_type_symbol
_atom_site_description
_atom_site_fract_x
_atom_site_fract_y
_atom_site_fract_z
_atom_type_partial_charge
O1    O     O_R   0.503640 0.354460 0.582000 -0.508427
O2    O     O_R   0.496360 0.645540 0.418000 -0.551863
O3    O     O_R   0.494980 0.341410 0.386200 -0.594333
O4    O     O_R   0.505020 0.658590 0.613800 -0.591046
C1    C     C_R   0.496872 0.299937 0.479583 0.897652
C2    C     C_R   0.502146 0.700527 0.520433 0.934816
O5    O     O_R   0.404470 0.506520 0.597930 -0.569550
O6    O     O_R   0.595530 0.493480 0.402070 -0.558722
O7    O     O_R   0.395820 0.493460 0.402130 -0.569533
O8    O     O_R   0.604180 0.506540 0.597870 -0.543549
C3    C     C_R   0.367200 0.499121 0.499762 0.905039
C4    C     C_R   0.632735 0.500083 0.500626 0.890356
Cu1   Cu    Cu3+1 0.505120 0.507730 0.615930 1.094563
Cu2   Cu    Cu3+1 0.494880 0.492270 0.384070 1.053037
C5    C     C_R   0.260706 0.516772 0.606153 -0.188062
C6    C     C_R   0.740440 0.470883 0.399908 -0.224128
H1    H     H_    0.293557 0.532592 0.685938 0.229832
H2    H     H_    0.708477 0.447888 0.320187 0.244821
C7    C     C_R   0.188811 0.513985 0.612217 0.312127
C8    C     C_R   0.812463 0.471630 0.396909 0.304534
C9    C     C_R   0.145410 0.493726 0.508716 -0.222494
C10   C     C_R   0.854646 0.497923 0.501346 -0.224007
C11   C     C_R   0.174439 0.475189 0.401058 0.228520
C12   C     C_R   0.824127 0.523556 0.606973 0.216231
C13   C     C_R   0.246640 0.475200 0.396528 0.294736
C14   C     C_R   0.751839 0.525613 0.608259 0.261623
C15   C     C_R   0.290563 0.497086 0.499813 -0.221365
C16   C     C_R   0.709303 0.499759 0.503448 -0.254140
N1    N     N_R   0.029561 0.410259 0.454650 -0.128431
N2    N     N_R   0.970717 0.579842 0.558707 -0.124559
N3    N     N_R   0.960907 0.411807 0.450921 -0.143041
N4    N     N_R   0.039371 0.578247 0.562579 -0.131637
C17   C     C_R   0.930373 0.496912 0.502338 0.525003
C18   C     C_R   0.069865 0.493305 0.510776 0.528572
C19   C     C_R   0.508631 0.813924 0.530405 -0.272831
C20   C     C_R   0.488361 0.187581 0.471093 -0.287527
C21   C     C_R   0.414959 0.028687 0.422678 0.269306
C22   C     C_R   0.570257 0.979134 0.609761 0.296602
C23   C     C_R   0.426905 0.134958 0.418603 0.190505
C24   C     C_R   0.561525 0.870973 0.604976 0.171293
C25   C     C_R   0.538011 0.136200 0.529619 0.446006
C26   C     C_R   0.462635 0.864441 0.463132 0.413782
C27   C     C_R   0.525194 0.030620 0.539961 -0.175132
C28   C     C_R   0.466707 0.974293 0.475764 -0.194735
N5    N     N_R   0.512830 0.519350 0.790130 -0.275583
N6    N     N_R   0.487170 0.480650 0.209870 -0.288632
C29   C     C_R   0.427763 0.408057 0.026710 0.267847
C30   C     C_R   0.560695 0.609004 0.974752 0.279569
C31   C     C_R   0.436473 0.416795 0.147493 0.007066
C32   C     C_R   0.554724 0.596376 0.853677 0.032504
C33   C     C_R   0.531631 0.539651 0.154835 0.466623
C34   C     C_R   0.472943 0.453143 0.843835 0.500211
C35   C     C_R   0.521672 0.540372 0.033202 -0.217798
C36   C     C_R   0.472893 0.467168 0.967095 -0.219433
H3    H     H_    0.583525 0.649264 0.809664 0.223521
H4    H     H_    0.402181 0.372275 0.192330 0.234684
N7    N     N_R   0.368486 0.347357 0.968950 0.182067
O9    O     O_R   0.357057 0.251927 0.986730 -0.208143
O10   O     O_R   0.318096 0.394724 0.924371 -0.225441
N8    N     N_R   0.601479 0.697841 0.035595 0.178312
O11   O     O_R   0.663788 0.717266 0.006636 -0.174691
O12   O     O_R   0.571269 0.771032 0.098966 -0.340915
N9    N     N_R   0.161071 0.529092 0.723991 0.174762
O13   O     O_R   0.106346 0.474271 0.742800 -0.230383
O14   O     O_R   0.195452 0.587737 0.811290 -0.247734
N10   N     N_R   0.841651 0.448298 0.286932 0.173575
O15   O     O_R   0.895466 0.502914 0.264098 -0.225355
O16   O     O_R   0.808927 0.382544 0.203742 -0.246790
N11   N     N_R   0.130678 0.460606 0.295296 0.175330
O17   O     O_R   0.132572 0.376234 0.219982 -0.171644
O18   O     O_R   0.088330 0.531480 0.274488 -0.235602
N12   N     N_R   0.866286 0.541467 0.714401 0.172740
O19   O     O_R   0.866019 0.629932 0.783561 -0.176631
O20   O     O_R   0.906225 0.470004 0.742145 -0.242954
N13   N     N_R   0.274309 0.454596 0.285989 0.147891
O21   O     O_R   0.277262 0.358445 0.236239 -0.213261
O22   O     O_R   0.279090 0.529055 0.224248 -0.310261
N14   N     N_R   0.722441 0.547299 0.717577 0.161897
O23   O     O_R   0.722465 0.642894 0.770596 -0.194785
O24   O     O_R   0.706482 0.470961 0.772386 -0.284845
O25   O     O_3   0.414222 0.804829 0.384653 -0.542458
C37   C     C_3   0.437335 0.799838 0.272211 0.086372
H5    H     H_    0.491459 0.775680 0.269309 0.203224
H6    H     H_    0.434820 0.876490 0.241845 0.177060
C38   C     C_3   0.391514 0.720157 0.188556 -0.557805
H7    H     H_    0.336971 0.742945 0.187543 0.295861
H8    H     H_    0.409316 0.715579 0.100072 0.196347
H9    H     H_    0.394473 0.642311 0.215482 0.250991
O26   O     O_3   0.599316 0.190236 0.576066 -0.518814
C39   C     C_3   0.646342 0.186332 0.488785 0.030597
H10   H     H_    0.628957 0.234131 0.422511 0.129349
H11   H     H_    0.652061 0.104644 0.445901 0.175197
C40   C     C_3   0.717151 0.230732 0.542516 -0.577355
H12   H     H_    0.739016 0.179314 0.601203 0.296418
H13   H     H_    0.752950 0.236980 0.473653 0.200819
H14   H     H_    0.712538 0.309201 0.592994 0.249235
N15   N     N_R   0.609672 0.818225 0.670402 0.158385
O27   O     O_R   0.648881 0.750927 0.616766 -0.307459
O28   O     O_R   0.619315 0.844761 0.782043 -0.236670
N16   N     N_R   0.374266 0.191209 0.368204 0.164985
O29   O     O_R   0.334012 0.247219 0.433835 -0.294001
O30   O     O_R   0.367246 0.187410 0.256704 -0.247423
N17   N     N_R   0.347415 0.979883 0.385275 0.185218
O31   O     O_R   0.318958 0.985453 0.283022 -0.242986
O32   O     O_R   0.312149 0.935873 0.456880 -0.230442
N18   N     N_R   0.623738 0.035892 0.688440 0.195170
O33   O     O_R   0.687866 0.011307 0.682315 -0.256219
O34   O     O_R   0.607300 0.103871 0.774440 -0.208874
N19   N     N_R   0.440025 0.360217 0.776857 0.153744
O35   O     O_R   0.380120 0.362316 0.720717 -0.284584
O36   O     O_R   0.465261 0.270535 0.786101 -0.273244
N20   N     N_R   0.595400 0.584792 0.214747 0.155961
O37   O     O_R   0.596656 0.669619 0.289924 -0.312899
O38   O     O_R   0.653620 0.551791 0.178311 -0.291261

loop_
_geom_bond_atom_site_label_1
_geom_bond_atom_site_label_2
_geom_bond_distance
_ccdc_geom_bond_type
C6    C16   1.400470 A    
N10   O16   1.301491 A    
N9    O14   1.301562 A    
C40   H12   1.109364 S    
C11   N11   1.437907 S    
C25   O26   1.385579 S    
N13   O21   1.299822 A    
N20   O38   1.300953 A    
N15   O27   1.301021 A    
N7    O9    1.301018 A    
C29   C31   1.403230 A    
C35   C36   1.410890 A    
O5    C3    1.306379 A    
N6    C31   1.352799 A    
C14   N14   1.432879 S    
C4    C16   1.482421 S    
O1    C1    1.292532 A    
C34   N19   1.431937 S    
C8    N10   1.439636 S    
C7    C9    1.412879 A    
C12   C14   1.403653 A    
N19   O36   1.301243 A    
N14   O24   1.300823 A    
N7    O10   1.300986 A    
N18   O33   1.301216 A    
C1    C20   1.449011 S    
C2    C19   1.458973 S    
N8    O12   1.300156 A    
O4    Cu1   1.964618 S    
N11   O18   1.301249 A    
C19   C26   1.403293 A    
C13   N13   1.429502 S    
C39   H11   1.115592 S    
C7    N9    1.440663 S    
N3    C17   1.355637 A    
Cu1   N5    2.022529 S    
N2    N4    1.329593 A    
C6    C8    1.398446 A    
C30   C32   1.401918 A    
N10   O15   1.301404 A    
C40   H13   1.110577 S    
Cu1   Cu2   2.691992 S    
C25   C27   1.408569 A    
C20   C25   1.398590 A    
O2    C2    1.294997 A    
C26   O25   1.387339 S    
C26   C28   1.410117 A    
N20   O37   1.298750 A    
N15   O28   1.301138 A    
C34   C36   1.430604 A    
C30   N8    1.432503 S    
C38   H8    1.110653 S    
C30   C35   1.427781 A    
C21   C23   1.398654 A    
N12   O20   1.301225 A    
C24   N15   1.433919 S    
C21   N17   1.438481 S    
N14   O23   1.299977 A    
C9    C18   1.465870 S    
N5    C34   1.382184 A    
C38   H7    1.110514 S    
N6    C33   1.384940 A    
O25   C37   1.415842 S    
N8    O11   1.301013 A    
Cu2   N6    2.022530 S    
N4    C18   1.355208 A    
C22   N18   1.435653 S    
C5    C7    1.399249 A    
O7    Cu2   1.946417 S    
C29   N7    1.431122 S    
N13   O22   1.300034 A    
C5    C15   1.404153 A    
C33   N20   1.433490 S    
C3    C15   1.484500 S    
O6    C4    1.310534 A    
N16   O30   1.300262 A    
N17   O32   1.301387 A    
O7    C3    1.300480 A    
O3    Cu2   1.964618 S    
O8    C4    1.295172 A    
C29   C36   1.426494 A    
O4    C2    1.297293 A    
C8    C10   1.413473 A    
C40   H14   1.107442 S    
C37   H6    1.111076 S    
C9    C11   1.409528 A    
C27   C28   1.423561 A    
C10   C12   1.409983 A    
O1    Cu1   1.967977 S    
C39   H10   1.113204 S    
C37   C38   1.519151 S    
C12   N12   1.437123 S    
C39   C40   1.520614 S    
C38   H9    1.108665 S    
C5    H1    1.083057 S    
C10   C17   1.467718 S    
O6    Cu2   1.947083 S    
N2    C17   1.357373 A    
C20   C23   1.400711 A    
N12   O19   1.300623 A    
O3    C1    1.294204 A    
O8    Cu1   1.946421 S    
C13   C15   1.416957 A    
C31   H4    1.077572 S    
C14   C16   1.419984 A    
C32   H3    1.079864 S    
C21   C28   1.418188 A    
C19   C24   1.405345 A    
C22   C27   1.417538 A    
N1    N3    1.329616 A    
N19   O35   1.299408 A    
C22   C24   1.400001 A    
C23   N16   1.430492 S    
N18   O34   1.301205 A    
N5    C32   1.352720 A    
N1    C18   1.357103 A    
N16   O29   1.300301 A    
C11   C13   1.404029 A    
N11   O17   1.300694 A    
O2    Cu2   1.967976 S    
N9    O13   1.301397 A    
O5    Cu1   1.947083 S    
C6    H2    1.080379 S    
C37   H5    1.109787 S    
N17   O31   1.300966 A    
C33   C35   1.429963 A    
O26   C39   1.413675 S    
