data_mof_unit_40265.cif
_audit_creation_date              2012-12-11T15:19:37-0500
_audit_creation_method            fapswitch 2.2
_symmetry_space_group_name_H-M    P1
_symmetry_Int_Tables_number       1
_space_group_crystal_system       triclinic
_cell_length_a                    20.136515
_cell_length_b                    6.873292
_cell_length_c                    18.003206
_cell_angle_alpha                 89.938902
_cell_angle_beta                  104.111969
_cell_angle_gamma                 90.079562
_cell_volume                      2416.51805617

loop_
_atom_site_label
_atom_site_type_symbol
_atom_type_description
_atom_site_fract_x
_atom_site_fract_y
_atom_site_fract_z
_atom_type_partial_charge
O1    O     O_R   0.312200 0.620210 0.189560 -0.538101
O2    O     O_R   0.687800 0.379790 0.810440 -0.545448
O3    O     O_R   0.187800 0.120210 0.310440 -0.533997
O4    O     O_R   0.812200 0.879790 0.689560 -0.545701
O5    O     O_R   0.171590 0.286140 0.165000 -0.533986
O6    O     O_R   0.828410 0.713860 0.835000 -0.529477
O7    O     O_R   0.328410 0.786140 0.335000 -0.534789
O8    O     O_R   0.671590 0.213860 0.665000 -0.530130
C1    C     C_R   0.145708 0.459451 0.143703 0.701437
C2    C     C_R   0.854983 0.540856 0.855318 0.705956
C3    C     C_R   0.354589 0.959469 0.355882 0.715068
C4    C     C_R   0.645235 0.040699 0.644369 0.707830
O9    O     O_R   0.310670 0.290220 0.180540 -0.544289
O10   O     O_R   0.689330 0.709780 0.819460 -0.539951
O11   O     O_R   0.189330 0.790220 0.319460 -0.546947
O12   O     O_R   0.810670 0.209780 0.680540 -0.542343
O13   O     O_R   0.327870 0.124170 0.326080 -0.529777
O14   O     O_R   0.672130 0.875830 0.673920 -0.542550
O15   O     O_R   0.172130 0.624170 0.173920 -0.536066
O16   O     O_R   0.827870 0.375830 0.826080 -0.541717
C5    C     C_R   0.331759 0.459184 0.165073 0.724239
C6    C     C_R   0.669370 0.540088 0.836489 0.801747
C7    C     C_R   0.167819 0.958799 0.334411 0.782237
C8    C     C_R   0.830891 0.040387 0.663791 0.799925
O17   O     O_3   0.255480 0.455050 0.297740 -0.362021
O18   O     O_3   0.744520 0.544950 0.702260 -0.370529
O19   O     O_3   0.244520 0.955050 0.202260 -0.369329
O20   O     O_3   0.755480 0.044950 0.797740 -0.367537
V1    V     V_3+5 0.248980 0.178550 0.241140 1.409415
V2    V     V_3+5 0.751020 0.821450 0.758860 1.387212
V3    V     V_3+5 0.251020 0.678550 0.258860 1.403426
V4    V     V_3+5 0.748980 0.321450 0.741140 1.383582
C9    C     C_R   0.951561 0.062827 0.649196 0.181426
C10   C     C_R   0.048696 0.939624 0.352521 0.178747
C11   C     C_R   0.548188 0.544632 0.849902 0.182683
C12   C     C_R   0.451388 0.476058 0.148567 0.200562
C13   C     C_R   0.881348 0.029079 0.615843 -0.181850
C14   C     C_R   0.119135 0.965855 0.384242 -0.181771
C15   C     C_R   0.618937 0.528267 0.884471 -0.180322
C16   C     C_R   0.380537 0.467733 0.115397 -0.208875
C17   C     C_R   0.860019 0.972141 0.538482 0.213381
C18   C     C_R   0.143659 0.999747 0.463014 0.220809
C19   C     C_R   0.641333 0.492715 0.963772 0.212263
C20   C     C_R   0.356494 0.463367 0.035090 0.223009
C21   C     C_R   0.909628 0.935375 0.495901 -0.006996
C22   C     C_R   0.096652 0.017277 0.510772 -0.007849
C23   C     C_R   0.592603 0.458274 0.007852 -0.004145
C24   C     C_R   0.403369 0.493404 0.988051 0.010315
C25   C     C_R   0.978401 0.993353 0.525778 -0.095419
C26   C     C_R   0.026023 0.978458 0.479137 -0.094458
C27   C     C_R   0.522343 0.494563 0.975180 -0.094284
C28   C     C_R   0.474713 0.480072 0.021684 -0.100657
C29   C     C_R   0.999598 0.063647 0.602284 0.014386
C30   C     C_R   0.003214 0.918842 0.401330 0.022851
C31   C     C_R   0.499784 0.545267 0.896387 0.012796
C32   C     C_R   0.498406 0.449628 0.101913 0.021141
C33   C     C_R   0.892619 0.829621 0.426312 0.255000
C34   C     C_R   0.117946 0.070891 0.588960 0.259039
C35   C     C_R   0.612365 0.378394 0.082715 0.257655
C36   C     C_R   0.381017 0.543989 0.909497 0.260669
C37   C     C_R   0.937462 0.829270 0.376457 0.029909
C38   C     C_R   0.069164 0.122523 0.630313 0.055008
C39   C     C_R   0.566954 0.384214 0.131938 0.027075
C40   C     C_R   0.429339 0.593781 0.866891 0.040792
C41   C     C_1   0.582758 0.027820 0.582102 -0.211649
C42   C     C_1   0.417026 0.972475 0.418206 -0.209134
C43   C     C_1   0.917596 0.528173 0.917445 -0.214633
C44   C     C_1   0.083366 0.472366 0.081260 -0.201148
C45   C     C_1   0.530610 0.011085 0.530509 -0.000291
C46   C     C_1   0.469161 0.989122 0.469832 -0.000242
C47   C     C_1   0.969782 0.511355 0.968979 -0.000650
C48   C     C_1   0.031243 0.489160 0.029624 -0.000226
N1    N     N_2   0.975491 0.050474 0.730499 -0.547364
H1    H     H_    0.970619 0.913347 0.751882 0.250473
C49   C     C_3   0.956829 0.203593 0.776791 -0.512160
H2    H     H_    0.002426 0.247664 0.821841 0.189678
H3    H     H_    0.918342 0.147544 0.806262 0.202498
H4    H     H_    0.936323 0.333575 0.742080 0.193941
N2    N     N_2   0.022858 0.955651 0.271654 -0.520696
H5    H     H_    0.050382 0.880099 0.239743 0.246071
C50   C     C_3   0.008012 0.153368 0.244935 -0.558029
H6    H     H_    0.983502 0.152303 0.182596 0.197845
H7    H     H_    0.055875 0.240428 0.254785 0.194163
H8    H     H_    0.972263 0.223108 0.275136 0.192910
N3    N     N_2   0.525265 0.521927 0.768825 -0.546146
H9    H     H_    0.532715 0.383658 0.750223 0.251443
C51   C     C_3   0.542170 0.672947 0.720130 -0.514436
H10   H     H_    0.496702 0.705014 0.672929 0.189023
H11   H     H_    0.583204 0.621182 0.693575 0.201594
H12   H     H_    0.558807 0.809350 0.752357 0.194411
N4    N     N_2   0.475182 0.526614 0.227380 -0.518736
H13   H     H_    0.449635 0.459655 0.263580 0.247741
C52   C     C_3   0.483306 0.733916 0.240873 -0.552332
H14   H     H_    0.506107 0.760756 0.302657 0.192593
H15   H     H_    0.432920 0.808361 0.224277 0.198774
H16   H     H_    0.517966 0.796561 0.207525 0.190274
N5    N     N_2   0.788681 0.975440 0.501210 -0.530922
H17   H     H_    0.776620 0.023241 0.445191 0.256688
C53   C     C_3   0.746302 0.816931 0.516414 -0.438610
H18   H     H_    0.722666 0.738954 0.462475 0.186850
H19   H     H_    0.704327 0.876975 0.538974 0.177268
H20   H     H_    0.775948 0.710592 0.558024 0.203173
N6    N     N_2   0.215334 0.032527 0.490675 -0.514554
H21   H     H_    0.231802 0.163514 0.516519 0.260143
C54   C     C_3   0.258512 0.863309 0.512678 -0.464649
H22   H     H_    0.286474 0.873907 0.573774 0.201688
H23   H     H_    0.296720 0.857282 0.477783 0.177004
H24   H     H_    0.228276 0.726033 0.503958 0.182594
N7    N     N_2   0.712324 0.515167 0.000347 -0.526909
H25   H     H_    0.723317 0.577940 0.053959 0.263062
C55   C     C_3   0.758700 0.361454 0.990745 -0.453135
H26   H     H_    0.782767 0.294113 0.046909 0.195412
H27   H     H_    0.800179 0.424935 0.968266 0.176035
H28   H     H_    0.732361 0.246050 0.951138 0.197749
N8    N     N_2   0.285321 0.433016 0.002124 -0.477576
H29   H     H_    0.252711 0.504496 0.029015 0.237010
C56   C     C_3   0.266722 0.231189 0.986097 -0.502692
H30   H     H_    0.212009 0.221666 0.954795 0.183868
H31   H     H_    0.274189 0.147090 0.040186 0.191082
H32   H     H_    0.298251 0.165431 0.949899 0.199344
N9    N     N_2   0.835959 0.698427 0.413605 -0.517027
H33   H     H_    0.807198 0.685066 0.358189 0.248983
C57   C     C_3   0.850800 0.514150 0.453530 -0.548882
H34   H     H_    0.803377 0.425691 0.444304 0.194630
H35   H     H_    0.870374 0.538116 0.516086 0.204927
H36   H     H_    0.889608 0.431156 0.432127 0.184223
N10   N     N_2   0.188365 0.059032 0.627814 -0.510364
H37   H     H_    0.213239 0.189540 0.642918 0.239263
C58   C     C_3   0.204843 0.907571 0.685125 -0.580873
H38   H     H_    0.260927 0.894076 0.704677 0.185987
H39   H     H_    0.184128 0.765634 0.660270 0.215568
H40   H     H_    0.184100 0.942744 0.735255 0.193814
N11   N     N_2   0.673872 0.266910 0.103457 -0.517279
H41   H     H_    0.702018 0.278358 0.159194 0.248954
C59   C     C_3   0.667303 0.068982 0.074756 -0.554634
H42   H     H_    0.631203 0.984553 0.100066 0.181953
H43   H     H_    0.718083 0.996613 0.089954 0.188238
H44   H     H_    0.648411 0.068045 0.011387 0.210859
N12   N     N_2   0.309616 0.560604 0.875022 -0.479360
H45   H     H_    0.289219 0.698938 0.869197 0.247238
C60   C     C_3   0.280593 0.422624 0.815055 -0.553310
H46   H     H_    0.232157 0.364733 0.825128 0.211345
H47   H     H_    0.315592 0.297877 0.814725 0.202388
H48   H     H_    0.269250 0.495058 0.758227 0.168514
C61   C     C_3   0.919280 0.704081 0.303998 -0.302539
C62   C     C_3   0.869633 0.808228 0.237328 -0.287933
C63   C     C_3   0.861691 0.695844 0.162597 -0.776995
H49   H     H_    0.912018 0.680965 0.148122 0.242033
H50   H     H_    0.840184 0.548883 0.167725 0.222292
H51   H     H_    0.826481 0.775593 0.115383 0.214818
H52   H     H_    0.818452 0.823902 0.249376 0.164708
H53   H     H_    0.888048 0.956846 0.229499 0.226263
H54   H     H_    0.965869 0.655679 0.286867 0.187103
H55   H     H_    0.896250 0.563875 0.315169 0.155088
C64   C     C_3   0.091754 0.261921 0.697807 -0.321744
C65   C     C_3   0.059393 0.463440 0.678306 -0.301814
C66   C     C_3   0.080964 0.602838 0.745836 -0.801382
H56   H     H_    0.056584 0.560938 0.792563 0.231808
H57   H     H_    0.137420 0.602935 0.768193 0.234584
H58   H     H_    0.065044 0.752408 0.726624 0.237303
H59   H     H_    0.076447 0.524365 0.628744 0.187944
H60   H     H_    0.002699 0.453691 0.661513 0.202237
H61   H     H_    0.083352 0.201899 0.751468 0.213990
H62   H     H_    0.147528 0.286314 0.712336 0.157258
C67   C     C_3   0.588411 0.287177 0.210720 -0.306690
C68   C     C_3   0.633434 0.420672 0.271184 -0.288521
C69   C     C_3   0.646279 0.330047 0.350861 -0.769415
H63   H     H_    0.597040 0.305821 0.366963 0.239881
H64   H     H_    0.673466 0.189083 0.352271 0.220526
H65   H     H_    0.678283 0.429500 0.393482 0.212954
H66   H     H_    0.683489 0.447811 0.257608 0.166534
H67   H     H_    0.608810 0.564128 0.272204 0.225529
H68   H     H_    0.543274 0.235827 0.230234 0.186574
H69   H     H_    0.616362 0.149866 0.207530 0.157172
C70   C     C_3   0.406347 0.728932 0.798005 -0.309660
C71   C     C_3   0.436961 0.933405 0.816373 -0.305452
C72   C     C_3   0.417049 0.068869 0.747311 -0.807933
H70   H     H_    0.441190 0.020666 0.701224 0.233102
H71   H     H_    0.360735 0.073106 0.724745 0.227064
H72   H     H_    0.434438 0.218479 0.764969 0.236666
H73   H     H_    0.417719 0.996325 0.864065 0.186584
H74   H     H_    0.493632 0.927092 0.835456 0.203925
H75   H     H_    0.416225 0.667488 0.745331 0.214342
H76   H     H_    0.350498 0.748404 0.782323 0.160882

loop_
_geom_bond_atom_site_label_1
_geom_bond_atom_site_label_2
_ccdc_geom_bond_type
C34   C38   A    
C59   H44   S    
C51   H10   S    
O1    C5    A    
C52   H14   S    
O19   V1    S    
C56   H30   S    
O13   V1    S    
N1    H1    S    
O3    C7    A    
C55   H26   S    
O15   V3    S    
C18   N6    S    
C61   C62   S    
C57   H34   S    
C69   H64   S    
C42   C46   T    
C2    C43   S    
O7    C3    A    
C54   H23   S    
C21   C33   A    
C67   C68   S    
O9    V1    S    
C65   C66   S    
C63   H50   S    
C14   C18   A    
C56   H31   S    
O4    C8    A    
C25   C29   A    
C57   H35   S    
C67   H68   S    
N8    H29   S    
N5    H17   S    
O1    V3    S    
C38   C64   S    
O2    V4    S    
C18   C22   A    
O3    V1    S    
C37   C61   S    
C52   H15   S    
C12   C16   A    
N6    H21   S    
N7    C55   S    
N5    C53   S    
C1    O15   A    
C66   H56   S    
C63   H49   S    
C20   N8    S    
C2    O16   A    
N8    C56   S    
O2    C6    A    
O14   V2    S    
C21   C25   A    
C59   H42   S    
C16   C20   A    
C27   C31   A    
C3    C42   S    
C44   C48   T    
C58   H40   S    
C61   H54   S    
O11   C7    A    
C65   H60   S    
C34   N10   S    
O12   C8    A    
C68   H67   S    
C22   C34   A    
O17   V1    S    
N1    C49   S    
O10   V2    S    
C50   H7    S    
C24   C36   A    
C69   H65   S    
O5    V1    S    
N3    C51   S    
C9    C29   A    
C71   H73   S    
C54   H24   S    
C23   C35   A    
O7    V3    S    
C11   C31   A    
C27   C28   A    
O8    V4    S    
O20   V4    S    
C63   H51   S    
N6    C54   S    
C60   H48   S    
N4    H13   S    
N2    C50   S    
O18   V4    S    
C57   H36   S    
C15   C19   A    
C64   H61   S    
C67   H69   S    
N3    H9    S    
O19   V3    S    
C35   N11   S    
C50   H6    S    
C62   H52   S    
C11   C15   A    
C49   H2    S    
N10   C58   S    
O5    C1    A    
C12   C32   A    
C10   N2    S    
N4    C52   S    
C29   C38   A    
C4    C41   S    
C70   C71   S    
C39   C67   S    
O8    C4    A    
C72   H72   S    
C31   C40   A    
C8    C13   S    
C32   C39   A    
O9    C5    A    
C55   H27   S    
C26   C30   A    
C40   C70   S    
C33   C37   A    
C49   H3    S    
N9    H33   S    
C68   H66   S    
C72   H70   S    
C62   H53   S    
C61   H55   S    
C12   N4    S    
C9    N1    S    
C71   C72   S    
C53   H19   S    
C65   H59   S    
C10   C30   A    
C52   H16   S    
C51   H11   S    
C68   C69   S    
C17   N5    S    
C56   H32   S    
O12   V4    S    
N10   H37   S    
C69   H63   S    
C50   H8    S    
C70   H75   S    
C62   C63   S    
O16   V4    S    
C59   H43   S    
C3    O13   A    
O6    V2    S    
C10   C14   A    
O17   V3    S    
O6    C2    A    
C23   C27   A    
N12   H45   S    
O11   V3    S    
C30   C37   A    
C64   H62   S    
C66   H58   S    
C7    C14   S    
C54   H22   S    
C22   C26   A    
C35   C39   A    
C53   H18   S    
C36   C40   A    
O10   C6    A    
C60   H47   S    
C58   H38   S    
C1    C44   S    
C47   C48   S    
N7    H25   S    
N12   C60   S    
N11   H41   S    
C5    C16   S    
C41   C45   T    
C6    C15   S    
O20   V2    S    
C72   H71   S    
C55   H28   S    
C43   C47   T    
C13   C17   A    
C45   C46   S    
C49   H4    S    
C9    C13   A    
N9    C57   S    
C71   H74   S    
C36   N12   S    
C33   N9    S    
N2    H5    S    
C11   N3    S    
C28   C32   A    
C24   C28   A    
C53   H20   S    
C66   H57   S    
C25   C26   A    
C51   H12   S    
C4    O14   A    
C64   C65   S    
N11   C59   S    
C17   C21   A    
C19   N7    S    
C60   H46   S    
C19   C23   A    
O4    V2    S    
C20   C24   A    
C70   H76   S    
C58   H39   S    
O18   V2    S    
