data_mof_unit_19402.cif
_audit_creation_date              2012-12-10T17:43:19-0500
_audit_creation_method            fapswitch 2.2
_symmetry_space_group_name_H-M    P1
_symmetry_Int_Tables_number       1
_space_group_crystal_system       triclinic
_cell_length_a                    15.064234
_cell_length_b                    13.701114
_cell_length_c                    10.623203
_cell_angle_alpha                 90.417843
_cell_angle_beta                  90.461457
_cell_angle_gamma                 89.802549
_cell_volume                      2192.4529748

loop_
_atom_site_label
_atom_site_type_symbol
_atom_type_description
_atom_site_fract_x
_atom_site_fract_y
_atom_site_fract_z
_atom_type_partial_charge
C1    C     C_R   0.328537 0.500144 0.500709 0.807589
C2    C     C_R   0.671463 0.499856 0.499292 0.807586
C3    C     C_R   0.953469 0.499853 0.499388 0.061577
C4    C     C_R   0.046531 0.500145 0.500607 0.061569
C5    C     C_R   0.906509 0.584928 0.464616 0.108059
C6    C     C_R   0.093491 0.415070 0.535382 0.108067
C7    C     C_R   0.954661 0.330447 0.567804 -0.215338
C8    C     C_R   0.045339 0.669552 0.432201 -0.215334
C9    C     C_R   0.047222 0.330760 0.569097 -0.216834
C10   C     C_R   0.952778 0.669241 0.430909 -0.216854
C11   C     C_R   0.444442 0.793988 0.578708 0.001237
C12   C     C_R   0.555557 0.206012 0.421292 0.001234
C13   C     C_R   0.555620 0.792684 0.421375 0.010135
C14   C     C_R   0.444380 0.207316 0.578625 0.010139
C15   C     C_R   0.556920 0.895718 0.419461 -0.004844
C16   C     C_R   0.443079 0.104281 0.580539 -0.004843
C17   C     C_R   0.443115 0.897067 0.580590 -0.005890
C18   C     C_R   0.556885 0.102933 0.419410 -0.005892
C19   C     C_R   0.500006 0.948184 0.500009 0.087328
C20   C     C_R   0.499993 0.051816 0.499991 0.087326
C21   C     C_R   0.613525 0.947326 0.339272 -0.207238
C22   C     C_R   0.386474 0.052674 0.660728 -0.207239
C23   C     C_R   0.386500 0.950034 0.660760 -0.205409
C24   C     C_R   0.613499 0.049966 0.339239 -0.205407
C25   C     C_R   0.498840 0.499621 0.259236 0.791067
C26   C     C_R   0.501158 0.500379 0.740765 0.791067
C27   C     C_3   0.430640 0.553935 0.041060 -0.204763
C28   C     C_3   0.569357 0.446065 0.958942 -0.204737
C29   C     C_3   0.508103 0.593145 0.960769 -0.180413
C30   C     C_3   0.491894 0.406855 0.039233 -0.180361
C31   C     C_3   0.424649 0.462427 0.956064 0.135537
C32   C     C_3   0.575347 0.537571 0.043940 0.135534
C33   C     C_3   0.501194 0.501109 0.877390 -0.038044
C34   C     C_3   0.498802 0.498891 0.122611 -0.038033
C35   C     C_R   0.814029 0.584243 0.464521 -0.251440
C36   C     C_R   0.185971 0.415755 0.535480 -0.251418
C37   C     C_R   0.768220 0.499585 0.498311 -0.076357
C38   C     C_R   0.231780 0.500414 0.501689 -0.076363
C39   C     C_R   0.814958 0.414843 0.531694 -0.255381
C40   C     C_R   0.185042 0.585155 0.468305 -0.255389
C41   C     C_R   0.907453 0.414495 0.532998 0.108176
C42   C     C_R   0.092546 0.585503 0.466999 0.108179
Cu1   Cu    Cu3+1 0.500000 0.597420 0.500000 0.929048
Cu2   Cu    Cu3+1 0.500000 0.402580 0.500000 0.929046
H1    H     H_    0.373826 0.597147 0.077628 0.133473
H2    H     H_    0.626170 0.402851 0.922372 0.133449
H3    H     H_    0.515509 0.668948 0.926246 0.141489
H4    H     H_    0.484489 0.331051 0.073756 0.141468
H5    H     H_    0.777755 0.649436 0.437514 0.150072
H6    H     H_    0.222245 0.350563 0.562489 0.150061
H7    H     H_    0.779406 0.349526 0.558169 0.154807
H8    H     H_    0.220593 0.650472 0.441831 0.154809
H9    H     H_    0.919996 0.264566 0.594024 0.142906
H10   H     H_    0.080004 0.735436 0.405989 0.142907
H11   H     H_    0.082619 0.265112 0.596241 0.142062
H12   H     H_    0.917381 0.734891 0.403776 0.142074
H13   H     H_    0.401115 0.753605 0.640104 0.127923
H14   H     H_    0.598885 0.246395 0.359896 0.127925
H15   H     H_    0.599051 0.751314 0.360101 0.117790
H16   H     H_    0.400949 0.248686 0.639900 0.117785
H17   H     H_    0.657813 0.908326 0.276567 0.132918
H18   H     H_    0.342187 0.091674 0.723433 0.132926
H19   H     H_    0.342227 0.912102 0.723489 0.135772
H20   H     H_    0.657772 0.087898 0.276511 0.135772
N1    N     N_R   0.500000 0.743810 0.500000 -0.181935
N2    N     N_R   0.500000 0.256190 0.500000 -0.181936
O1    O     O_R   0.370260 0.582280 0.500030 -0.588317
O2    O     O_R   0.629740 0.417720 0.499970 -0.588316
O3    O     O_R   0.629740 0.582280 0.499970 -0.587970
O4    O     O_R   0.370260 0.417720 0.500030 -0.587974
O5    O     O_R   0.499980 0.582260 0.316850 -0.587625
O6    O     O_R   0.500020 0.417740 0.683150 -0.587633
O7    O     O_R   0.500020 0.582260 0.683150 -0.587336
O8    O     O_R   0.499980 0.417740 0.316850 -0.587337
C43   C     C_3   0.339455 0.420363 0.898822 -0.416401
C44   C     C_3   0.273740 0.390901 0.000780 -0.341190
C45   C     C_3   0.188958 0.349336 0.942226 -0.839237
H21   H     H_    0.156227 0.404610 0.881310 0.259568
H22   H     H_    0.204347 0.283334 0.884955 0.244667
H23   H     H_    0.142326 0.328724 0.017876 0.244284
H24   H     H_    0.304479 0.334866 0.062659 0.219816
H25   H     H_    0.256339 0.455591 0.059457 0.218666
H26   H     H_    0.308634 0.476246 0.836797 0.189969
H27   H     H_    0.356810 0.355568 0.840382 0.196005
C46   C     C_3   0.660532 0.579651 0.101186 -0.416387
C47   C     C_3   0.726303 0.608953 0.999231 -0.341178
C48   C     C_3   0.811020 0.650685 0.057787 -0.839233
H28   H     H_    0.795551 0.716772 0.114849 0.244652
H29   H     H_    0.843750 0.595545 0.118899 0.259571
H30   H     H_    0.857689 0.671209 0.982143 0.244287
H31   H     H_    0.743775 0.544154 0.940794 0.218624
H32   H     H_    0.695577 0.664842 0.937125 0.219859
H33   H     H_    0.643176 0.644524 0.159488 0.196024
H34   H     H_    0.691308 0.523828 0.163343 0.189941

loop_
_geom_bond_atom_site_label_1
_geom_bond_atom_site_label_2
_ccdc_geom_bond_type
Cu1   O7    S    
C39   H7    S    
C48   H28   S    
C27   C29   S    
C26   O6    A    
Cu2   N2    S    
C19   C20   A    
Cu1   Cu2   S    
C6    C9    A    
C39   C41   A    
C13   N1    A    
C45   H21   S    
C15   C19   A    
C28   H2    S    
C17   C23   A    
C29   H3    S    
C18   C24   A    
C30   H4    S    
C35   C37   A    
C8    C42   A    
C29   C32   S    
C2    O2    A    
C47   H31   S    
C46   C47   S    
C30   C31   S    
C43   H27   S    
C29   C33   S    
C26   O7    A    
C25   O8    A    
C17   C19   A    
C46   H33   S    
C11   C17   A    
C35   H5    S    
C16   C22   A    
C31   C33   S    
Cu2   O4    S    
C25   O5    A    
C2    O3    A    
C10   H12   S    
C21   H17   S    
C16   C20   A    
C25   C34   S    
C12   H14   S    
C27   H1    S    
C40   C42   A    
C24   H20   S    
C45   H22   S    
C27   C34   S    
C23   H19   S    
C30   C34   S    
C27   C31   S    
C28   C32   S    
C44   C45   S    
C4    C6    A    
C44   H25   S    
C47   C48   S    
C40   H8    S    
C12   N2    A    
C32   C34   S    
C43   C44   S    
Cu1   O1    S    
C22   H18   S    
C46   H34   S    
C26   C33   S    
C31   C43   S    
Cu1   N1    S    
C14   N2    A    
Cu2   O8    S    
C1    C38   S    
C9    H11   S    
C8    C10   A    
C28   C33   S    
C13   C15   A    
C14   C16   A    
C21   C24   A    
Cu2   O2    S    
C7    H9    S    
C8    H10   S    
C3    C4    A    
C36   H6    S    
C45   H23   S    
C7    C9    A    
C3    C41   A    
Cu1   O5    S    
C3    C5    A    
C44   H24   S    
C13   H15   S    
C14   H16   S    
C1    O4    A    
C36   C38   A    
C5    C10   A    
C37   C39   A    
C47   H32   S    
C38   C40   A    
C2    C37   S    
C43   H26   S    
C4    C42   A    
C32   C46   S    
C5    C35   A    
C28   C30   S    
C1    O1    A    
C6    C36   A    
Cu2   O6    S    
C18   C20   A    
C7    C41   A    
C15   C21   A    
Cu1   O3    S    
C48   H30   S    
C12   C18   A    
C48   H29   S    
C22   C23   A    
C11   H13   S    
C11   N1    A    
