data_mof_unit_12407.cif
_audit_creation_date              2012-12-10T18:00:48-0500
_audit_creation_method            fapswitch 2.2
_symmetry_space_group_name_H-M    P1
_symmetry_Int_Tables_number       1
_space_group_crystal_system       triclinic
_cell_length_a                    15.863806
_cell_length_b                    10.834576
_cell_length_c                    9.517512
_cell_angle_alpha                 89.154442
_cell_angle_beta                  92.047003
_cell_angle_gamma                 92.271104
_cell_volume                      1633.37340222

loop_
_atom_site_label
_atom_site_type_symbol
_atom_type_description
_atom_site_fract_x
_atom_site_fract_y
_atom_site_fract_z
_atom_type_partial_charge
C1    C     C_R   0.503128 0.262449 0.500681 0.788291
C2    C     C_R   0.497855 0.737674 0.499372 0.792524
C3    C     C_R   0.535608 0.936944 0.390054 -0.249774
C4    C     C_R   0.467602 0.063203 0.610631 -0.246709
C5    C     C_R   0.496248 0.871589 0.499035 -0.078298
C6    C     C_R   0.506518 0.128661 0.501462 -0.080958
C7    C     C_R   0.452661 0.414249 0.073738 -0.213106
C8    C     C_R   0.547999 0.585097 0.926309 -0.236680
C9    C     C_R   0.452018 0.413330 0.923578 0.582444
C10   C     C_R   0.550412 0.583968 0.076904 0.562402
C11   C     C_R   0.339659 0.498893 0.497453 0.810970
C12   C     C_R   0.660080 0.503034 0.502642 0.812981
C13   C     C_3   0.971931 0.402978 0.588467 0.253984
C14   C     C_3   0.025456 0.595610 0.428136 0.260270
C15   C     C_3   0.016602 0.392515 0.447714 0.285312
C16   C     C_3   0.982164 0.605923 0.569491 0.300930
C17   C     C_1   0.249780 0.496718 0.490808 -0.208068
C18   C     C_1   0.749453 0.507944 0.510686 -0.215731
C19   C     C_3   0.037874 0.504315 0.634559 0.284483
C20   C     C_3   0.960963 0.493106 0.381275 0.250827
C21   C     C_3   0.082453 0.495008 0.493489 -0.180023
C22   C     C_3   0.916122 0.504541 0.522609 -0.188431
C23   C     C_1   0.174107 0.495112 0.487662 0.076222
C24   C     C_1   0.824812 0.509781 0.518878 0.054823
C25   C     C_R   0.542747 0.065240 0.391007 -0.001808
C26   C     C_R   0.461167 0.935114 0.610282 -0.003936
Cu1   Cu    Cu3+1 0.500000 0.500020 0.640660 0.980154
Cu2   Cu    Cu3+1 0.500000 0.499980 0.359340 0.993024
H1    H     H_    0.563726 0.887707 0.306374 0.184217
H2    H     H_    0.439157 0.112219 0.693992 0.193604
H3    H     H_    0.416824 0.345372 0.131934 0.167451
H4    H     H_    0.584191 0.653473 0.867825 0.149571
N1    N     N_R   0.500020 0.500030 0.852070 -0.203345
N2    N     N_R   0.499980 0.499970 0.147930 -0.205946
O1    O     O_R   0.500000 0.319660 0.618740 -0.539224
O2    O     O_R   0.500000 0.680340 0.381260 -0.542797
O3    O     O_R   0.499990 0.319630 0.381170 -0.579968
O4    O     O_R   0.500010 0.680370 0.618830 -0.577972
O5    O     O_R   0.379080 0.500000 0.618760 -0.554257
O6    O     O_R   0.620920 0.500000 0.381240 -0.526760
O7    O     O_R   0.379080 0.499970 0.381190 -0.578701
O8    O     O_R   0.620920 0.500030 0.618810 -0.590901
O9    O     O_3   0.038698 0.284297 0.379871 -0.565147
C27   C     C_3   0.967796 0.201634 0.369577 0.102596
H5    H     H_    0.908239 0.248602 0.340559 0.146716
H6    H     H_    0.960081 0.151212 0.471028 0.184265
C28   C     C_3   0.981938 0.107813 0.257076 -0.851635
H7    H     H_    0.040384 0.058261 0.283825 0.265732
H8    H     H_    0.927196 0.040794 0.250998 0.202617
H9    H     H_    0.988466 0.154242 0.153086 0.244761
O10   O     O_3   0.959003 0.715960 0.632878 -0.568517
C29   C     C_3   0.032080 0.783660 0.680616 0.088087
H10   H     H_    0.080555 0.792344 0.598831 0.162444
H11   H     H_    0.059835 0.739406 0.776612 0.191203
C30   C     C_3   0.008108 0.912975 0.719001 -0.804261
H12   H     H_    0.962003 0.907805 0.804216 0.249149
H13   H     H_    0.065160 0.967419 0.756231 0.215986
H14   H     H_    0.979666 0.960153 0.625508 0.245567
O11   O     O_3   0.954739 0.300227 0.678039 -0.573446
C31   C     C_3   0.867697 0.284705 0.699833 0.066987
H15   H     H_    0.832565 0.265223 0.598727 0.131171
H16   H     H_    0.843425 0.367686 0.749837 0.161293
C32   C     C_3   0.852407 0.175472 0.798934 -0.821265
H17   H     H_    0.887051 0.191415 0.900988 0.248441
H18   H     H_    0.783906 0.163335 0.817871 0.203264
H19   H     H_    0.874083 0.089999 0.751433 0.251872
O12   O     O_3   0.059839 0.690905 0.342479 -0.580448
C33   C     C_3   0.996060 0.768646 0.291097 0.106655
H20   H     H_    0.991688 0.847149 0.363762 0.166167
H21   H     H_    0.932449 0.721964 0.280489 0.180284
C34   C     C_3   0.019450 0.817873 0.146187 -0.833362
H22   H     H_    0.027704 0.740460 0.073594 0.258537
H23   H     H_    0.968633 0.875595 0.101272 0.205688
H24   H     H_    0.079440 0.874115 0.153841 0.255798
O13   O     O_3   0.909717 0.489550 0.257068 -0.597270
C35   C     C_3   0.958384 0.471727 0.139379 0.096154
H25   H     H_    0.973323 0.373049 0.133345 0.175141
H26   H     H_    0.018028 0.529189 0.142107 0.188122
C36   C     C_3   0.906471 0.506654 0.008378 -0.800881
H27   H     H_    0.847094 0.448886 0.002011 0.229705
H28   H     H_    0.890554 0.605438 0.011971 0.250738
H29   H     H_    0.942590 0.491844 0.913127 0.270260
O14   O     O_3   0.076781 0.511844 0.770096 -0.601544
C37   C     C_3   0.130797 0.412583 0.795705 0.111298
H30   H     H_    0.196692 0.450888 0.802070 0.132348
H31   H     H_    0.127094 0.339889 0.713632 0.169536
C38   C     C_3   0.110470 0.350083 0.935023 -0.800192
H32   H     H_    0.043777 0.315200 0.932006 0.270026
H33   H     H_    0.151005 0.270177 0.954077 0.199638
H34   H     H_    0.121809 0.416224 0.022181 0.238735
C39   C     C_R   0.590616 0.129382 0.278224 0.129731
C40   C     C_R   0.564879 0.114225 0.136556 -0.155876
C41   C     C_R   0.607791 0.178342 0.030481 -0.131856
C42   C     C_R   0.677217 0.256961 0.064963 -0.127368
C43   C     C_R   0.704494 0.270386 0.205376 -0.115803
C44   C     C_R   0.661621 0.206605 0.311785 -0.116766
H35   H     H_    0.510809 0.054390 0.108779 0.121398
H36   H     H_    0.586846 0.167717 0.921655 0.146553
H37   H     H_    0.709889 0.307388 0.982899 0.120812
H38   H     H_    0.758498 0.330841 0.231882 0.163237
H39   H     H_    0.683090 0.218365 0.420264 0.085933
C45   C     C_R   0.414730 0.871253 0.724495 0.128027
C46   C     C_R   0.339095 0.803389 0.694177 -0.116192
C47   C     C_R   0.296393 0.741310 0.801932 -0.129443
C48   C     C_R   0.328736 0.746870 0.940393 -0.112361
C49   C     C_R   0.403630 0.814986 0.971436 -0.138926
C50   C     C_R   0.446619 0.876957 0.863916 -0.163718
H40   H     H_    0.313622 0.798080 0.587220 0.108770
H41   H     H_    0.238335 0.688743 0.777987 0.137037
H42   H     H_    0.295793 0.698371 0.023586 0.137189
H43   H     H_    0.428694 0.819097 0.078647 0.149144
H44   H     H_    0.505126 0.928155 0.888743 0.123379
O15   O     O_3   0.411416 0.318842 0.846927 -0.565801
C51   C     C_3   0.330159 0.285166 0.894693 0.012105
H45   H     H_    0.286649 0.279660 0.800926 0.169371
H46   H     H_    0.303720 0.353376 0.966008 0.124391
C52   C     C_3   0.329933 0.156969 0.963230 -0.833288
H47   H     H_    0.377690 0.153002 0.050771 0.240703
H48   H     H_    0.266883 0.133349 0.005233 0.218084
H49   H     H_    0.343870 0.087059 0.884353 0.253912
O16   O     O_3   0.598968 0.669653 0.155751 -0.560854
C53   C     C_3   0.676540 0.702891 0.093810 0.021561
H50   H     H_    0.666496 0.773986 0.010085 0.137807
H51   H     H_    0.706744 0.621218 0.050039 0.147942
C54   C     C_3   0.737327 0.759410 0.204487 -0.745466
H52   H     H_    0.797546 0.788386 0.155416 0.191457
H53   H     H_    0.709931 0.841661 0.250700 0.232747
H54   H     H_    0.750679 0.690703 0.289078 0.262320

loop_
_geom_bond_atom_site_label_1
_geom_bond_atom_site_label_2
_ccdc_geom_bond_type
C30   H12   S    
C32   H18   S    
C41   C42   A    
C50   H44   S    
C43   C44   A    
C35   C36   S    
C48   H42   S    
C10   O16   S    
C51   H45   S    
C28   H8    S    
Cu1   N1    S    
C17   C23   T    
C31   C32   S    
C18   C24   T    
C42   H37   S    
C14   C21   S    
C19   C21   S    
C35   H26   S    
C52   H48   S    
C47   H41   S    
C6    C25   A    
C49   C50   A    
Cu2   O6    S    
Cu1   O4    S    
Cu2   O7    S    
C31   H16   S    
C3    H1    S    
C12   O8    A    
C39   C44   A    
C28   H7    S    
C27   H6    S    
C33   H20   S    
C54   H54   S    
C14   O12   S    
C16   O10   S    
C46   H40   S    
C29   C30   S    
C1    O3    A    
C32   H19   S    
Cu2   N2    S    
O11   C31   S    
C44   H39   S    
C9    N1    A    
C45   C46   A    
C19   O14   S    
C47   C48   A    
C29   H11   S    
C40   H35   S    
C28   H9    S    
C49   H43   S    
C16   C19   S    
C15   C20   S    
C25   C39   S    
C7    H3    S    
C13   C19   S    
O12   C33   S    
C8    H4    S    
C14   C20   S    
C3    C25   A    
C37   H30   S    
C4    C6    A    
C52   H49   S    
Cu1   O5    S    
C39   C40   A    
C36   H28   S    
C43   H38   S    
Cu1   O1    S    
O10   C29   S    
C20   O13   S    
C31   H15   S    
C12   O6    A    
O13   C35   S    
C36   H29   S    
C2    O4    A    
C4    C26   A    
O14   C37   S    
C13   C15   S    
C45   C50   A    
C10   N2    A    
C29   H10   S    
C35   H25   S    
C11   O5    A    
O16   C53   S    
C33   H21   S    
C20   C22   S    
C21   C23   S    
O9    C27   S    
C54   H52   S    
C7    N2    A    
C14   C16   S    
C36   H27   S    
C30   H14   S    
C2    C5    S    
C53   H51   S    
Cu1   Cu2   S    
C27   H5    S    
C1    O1    A    
C34   H23   S    
O15   C51   S    
C2    O2    A    
C7    C9    A    
C11   C17   S    
C16   C22   S    
C1    C6    S    
C37   H31   S    
C32   H17   S    
C3    C5    A    
C34   H24   S    
C51   H46   S    
C27   C28   S    
C13   O11   S    
C37   C38   S    
C48   C49   A    
C9    O15   S    
C53   C54   S    
C30   H13   S    
C15   O9    S    
C34   H22   S    
C52   H47   S    
C26   C45   S    
Cu1   O8    S    
Cu2   O3    S    
C33   C34   S    
C40   C41   A    
C13   C22   S    
C11   O7    A    
C22   C24   S    
C8    N1    A    
C42   C43   A    
C51   C52   S    
C5    C26   A    
C15   C21   S    
Cu2   O2    S    
C38   H32   S    
C8    C10   A    
C38   H34   S    
C12   C18   S    
C46   C47   A    
C54   H53   S    
C38   H33   S    
C53   H50   S    
C41   H36   S    
C4    H2    S    
