data_mof_unit_18370.cif
_audit_creation_date              2012-12-10T16:57:46-0500
_audit_creation_method            fapswitch 2.2
_symmetry_space_group_name_H-M    P1
_symmetry_Int_Tables_number       1
_space_group_crystal_system       triclinic
_cell_length_a                    7.801107
_cell_length_b                    8.577197
_cell_length_c                    19.036164
_cell_angle_alpha                 91.761939
_cell_angle_beta                  85.193953
_cell_angle_gamma                 92.712452
_cell_volume                      1267.38126706

loop_
_atom_site_label
_atom_site_type_symbol
_atom_type_description
_atom_site_fract_x
_atom_site_fract_y
_atom_site_fract_z
_atom_type_partial_charge
C1    C     C_R   0.544000 0.794201 0.497924 0.959802
C2    C     C_R   0.455997 0.205804 0.502050 0.953956
C3    C     C_2   0.560601 0.953774 0.484720 0.084177
C4    C     C_2   0.439384 0.046256 0.515245 0.085803
C5    C     C_R   0.500746 0.497825 0.634573 0.907685
C6    C     C_R   0.498351 0.495660 0.365442 0.913555
C7    C     C_R   0.357514 0.520352 0.754880 -0.210468
C8    C     C_R   0.625569 0.390775 0.252189 -0.196750
C9    C     C_R   0.352172 0.493287 0.826550 0.366263
C10   C     C_R   0.618645 0.357332 0.180825 0.403702
C11   C     C_R   0.490195 0.420962 0.853552 -0.003663
C12   C     C_R   0.478305 0.404888 0.146274 -0.051483
C13   C     C_R   0.633515 0.378019 0.808610 0.078047
C14   C     C_R   0.342136 0.481810 0.184548 0.068175
C15   C     C_R   0.638071 0.407815 0.737064 -0.220272
C16   C     C_R   0.350133 0.512392 0.256327 -0.133889
C17   C     C_R   0.500213 0.478258 0.710086 -0.102123
C18   C     C_R   0.492655 0.469462 0.289961 -0.144193
C19   C     C_R   0.486128 0.393171 0.069964 0.320441
C20   C     C_R   0.491918 0.401937 0.928834 0.360538
H1    H     H_    0.250808 0.575738 0.734356 0.191617
H2    H     H_    0.733933 0.352693 0.278292 0.200490
H3    H     H_    0.747936 0.372513 0.702580 0.174812
H4    H     H_    0.246124 0.571981 0.285525 0.183787
N1    N     N_R   0.627489 0.461726 0.962311 -0.096562
N2    N     N_R   0.351776 0.330369 0.036431 -0.132702
N3    N     N_R   0.624455 0.457636 0.031916 -0.087383
N4    N     N_R   0.354669 0.334639 0.966677 -0.092844
N5    N     N_2   0.950330 0.457950 0.481240 -0.004594
N6    N     N_2   0.049670 0.542050 0.518760 -0.004012
O1    O     O_R   0.389250 0.738570 0.504600 -0.593965
O2    O     O_R   0.610750 0.261430 0.495400 -0.599528
O3    O     O_R   0.678400 0.711620 0.492580 -0.583567
O4    O     O_R   0.321600 0.288380 0.507420 -0.585862
O5    O     O_R   0.355380 0.513500 0.607880 -0.616640
O6    O     O_R   0.644620 0.486500 0.392120 -0.613747
O7    O     O_R   0.644530 0.486550 0.595850 -0.621312
O8    O     O_R   0.355470 0.513450 0.404150 -0.619352
Zn1   Zn    Zn3+2 0.306930 0.517990 0.508030 1.024787
Zn2   Zn    Zn3+2 0.693070 0.482010 0.491970 1.023517
Cl1   Cl    Cl    0.175324 0.560675 0.881012 -0.578453
Cl2   Cl    Cl    0.786974 0.252874 0.136763 -0.557811
N7    N     N_3   0.772993 0.301655 0.835429 -0.396676
H5    H     H_    0.784693 0.193392 0.809122 0.210934
H6    H     H_    0.886297 0.368473 0.822813 0.243758
N8    N     N_3   0.198474 0.536151 0.151492 -0.408404
H7    H     H_    0.130770 0.439930 0.130767 0.261382
H8    H     H_    0.244507 0.608841 0.110359 0.226698
Cl3   Cl    Cl    0.713324 0.007595 0.413904 -0.610602
Cl4   Cl    Cl    0.286614 0.992531 0.586043 -0.625822
N9    N     N_3   0.033543 0.359531 0.431911 -0.302520
H9    H     H_    0.993104 0.385711 0.382845 0.189423
H10   H     H_    0.986946 0.246151 0.443097 0.238619
N10   N     N_3   0.966448 0.640382 0.568120 -0.303289
H11   H     H_    0.006812 0.614030 0.617177 0.187523
H12   H     H_    0.013117 0.753775 0.556995 0.238997

loop_
_geom_bond_atom_site_label_1
_geom_bond_atom_site_label_2
_ccdc_geom_bond_type
O5    Zn1   S    
N7    H5    S    
C6    O8    A    
N5    N6    D    
C5    O7    A    
C9    Cl1   S    
C10   Cl2   S    
N7    H6    S    
C8    H2    S    
O1    Zn1   S    
C13   N7    S    
C9    C11   A    
C2    O4    A    
C15   H3    S    
C3    Cl3   S    
C1    O3    A    
N9    H9    S    
C16   H4    S    
N8    H7    S    
C11   C13   A    
C10   C12   A    
C2    C4    S    
C5    O5    A    
N5    Zn2   S    
C16   C18   A    
C19   N3    A    
C6    O6    A    
N6    Zn1   S    
O7    Zn2   S    
N10   H12   S    
C13   C15   A    
O8    Zn1   S    
C6    C18   S    
C14   C16   A    
N6    N10   S    
O3    Zn2   S    
N1    N3    A    
C20   N1    A    
O4    Zn1   S    
N8    H8    S    
C7    C9    A    
C1    O1    A    
O2    Zn2   S    
C5    C17   S    
C12   C19   S    
C2    O2    A    
N5    N9    S    
C4    Cl4   S    
C1    C3    S    
C15   C17   A    
C19   N2    A    
N10   H11   S    
O6    Zn2   S    
C20   N4    A    
N9    H10   S    
C7    H1    S    
N2    N4    A    
C11   C20   S    
C8    C10   A    
C8    C18   A    
C3    C4    D    
C12   C14   A    
C14   N8    S    
C7    C17   A    
