data_mof_unit_15951.cif
_audit_creation_date              2012-12-10T18:31:56-0500
_audit_creation_method            fapswitch 2.2
_symmetry_space_group_name_H-M    P1
_symmetry_Int_Tables_number       1
_space_group_crystal_system       triclinic
_cell_length_a                    10.650595
_cell_length_b                    15.008113
_cell_length_c                    15.546497
_cell_angle_alpha                 81.725744
_cell_angle_beta                  90.283026
_cell_angle_gamma                 104.239032
_cell_volume                      2382.41463754

loop_
_atom_site_label
_atom_site_type_symbol
_atom_type_description
_atom_site_fract_x
_atom_site_fract_y
_atom_site_fract_z
_atom_type_partial_charge
C1    C     C_R   0.481034 0.441596 0.661500 0.911812
C2    C     C_3   0.121194 0.499549 0.501771 0.167562
C3    C     C_3   0.069069 0.495337 0.408900 -0.421309
C4    C     C_3   0.102651 0.589846 0.533026 -0.386150
C5    C     C_R   0.474541 0.405379 0.753425 -0.102562
C6    C     C_R   0.513023 0.593936 0.245373 -0.084531
C7    C     C_R   0.527761 0.299015 0.872245 0.220220
C8    C     C_R   0.524077 0.328919 0.783125 -0.238232
C9    C     C_R   0.427672 0.452630 0.811816 0.041711
C10   C     C_R   0.459395 0.437529 0.899864 0.010086
C11   C     C_R   0.495663 0.354081 0.931455 0.075850
C12   C     C_R   0.741854 0.500381 0.500986 0.856896
C13   C     C_R   0.459770 0.503548 0.956640 0.038003
C14   C     C_R   0.468820 0.477228 0.047329 0.056806
C15   C     C_R   0.464185 0.382170 0.078535 0.162813
C16   C     C_R   0.492193 0.325841 0.021212 -0.231435
C17   C     C_R   0.461387 0.596927 0.924487 -0.227213
C18   C     C_R   0.456925 0.660516 0.980068 -0.234103
C19   C     C_R   0.467124 0.636393 0.069012 0.150196
C20   C     C_R   0.483542 0.547234 0.102063 0.095160
C21   C     C_R   0.467800 0.701978 0.124933 -0.248866
C22   C     C_R   0.484535 0.679729 0.214324 0.118756
C23   C     C_R   0.516675 0.558591 0.338008 0.859013
C24   C     C_R   0.523549 0.533458 0.187315 -0.314215
C25   C     C_R   0.719433 0.845470 0.621539 -0.320468
C26   C     C_R   0.671218 0.753737 0.608544 0.009020
C27   C     C_R   0.519404 0.796108 0.508812 -0.056057
C28   C     C_R   0.565902 0.890672 0.517832 -0.004665
C29   C     C_R   0.667303 0.914560 0.575818 0.180589
C30   C     C_R   0.513935 0.961398 0.472222 0.092631
C31   C     C_R   0.551132 0.053428 0.493437 0.114120
C32   C     C_R   0.662515 0.075896 0.543374 -0.257198
C33   C     C_R   0.718095 0.007382 0.585149 -0.219223
C34   C     C_R   0.257950 0.499441 0.500545 0.829455
C35   C     C_R   0.430409 0.943681 0.403430 -0.251512
C36   C     C_R   0.369766 0.009495 0.365364 -0.186539
C37   C     C_R   0.382722 0.093311 0.398140 0.090148
C38   C     C_R   0.478421 0.119214 0.460417 -0.098184
C39   C     C_R   0.298271 0.149906 0.371132 0.114328
C40   C     C_R   0.327327 0.240750 0.391995 0.287930
C41   C     C_R   0.489454 0.207245 0.489193 0.146083
C42   C     C_3   0.898853 0.413273 0.563447 -0.058549
C43   C     C_3   0.044334 0.414946 0.565287 -0.439141
C44   C     C_3   0.925606 0.497402 0.408972 -0.454328
C45   C     C_3   0.960232 0.590853 0.532750 -0.402662
C46   C     C_3   0.878657 0.500685 0.502488 0.176861
H1    H     H_    0.848707 0.350382 0.535187 0.144615
H2    H     H_    0.158440 0.652532 0.489489 0.177055
H3    H     H_    0.913023 0.559254 0.364107 0.170527
H4    H     H_    0.125995 0.555326 0.362901 0.160454
H5    H     H_    0.501290 0.256914 0.047376 0.170362
H6    H     H_    0.561820 0.474473 0.210285 0.189570
H7    H     H_    0.452680 0.730369 0.952888 0.145618
H8    H     H_    0.558404 0.292179 0.736735 0.170518
H9    H     H_    0.470318 0.623338 0.856126 0.156286
H10   H     H_    0.451849 0.769286 0.099364 0.132026
H11   H     H_    0.801243 0.027229 0.625028 0.144318
H12   H     H_    0.309904 0.992597 0.310684 0.154294
H13   H     H_    0.798131 0.862431 0.665521 0.143674
H14   H     H_    0.713951 0.700081 0.640933 0.133728
H15   H     H_    0.440977 0.771396 0.467455 0.124719
H16   H     H_    0.082072 0.418631 0.631945 0.168486
H17   H     H_    0.712249 0.146169 0.548473 0.138814
H18   H     H_    0.412582 0.879995 0.375838 0.136511
H19   H     H_    0.057791 0.349124 0.546137 0.166984
H20   H     H_    0.867405 0.434645 0.383855 0.178520
H21   H     H_    0.078991 0.430842 0.385418 0.179628
H22   H     H_    0.948438 0.652977 0.487862 0.182680
H23   H     H_    0.927732 0.598075 0.598715 0.172418
H24   H     H_    0.139015 0.594348 0.599975 0.177062
N1    N     N_R   0.573860 0.731700 0.552730 -0.102800
N2    N     N_R   0.426060 0.268290 0.447230 -0.112237
O1    O     O_R   0.462770 0.383110 0.605620 -0.588088
O2    O     O_R   0.510160 0.531900 0.639510 -0.622577
O3    O     O_R   0.661510 0.425600 0.483070 -0.624880
O4    O     O_R   0.708900 0.574390 0.516960 -0.630095
O5    O     O_R   0.489840 0.468100 0.360490 -0.631113
O6    O     O_R   0.537230 0.616890 0.394380 -0.587236
O7    O     O_R   0.291100 0.425610 0.483040 -0.625077
O8    O     O_R   0.338490 0.574400 0.516930 -0.634872
Zn1   Zn    Zn3+2 0.468350 0.400660 0.477370 0.939138
Zn2   Zn    Zn3+2 0.531650 0.599340 0.522630 0.936389
N3    N     N_3   0.471787 0.743120 0.272827 -0.437679
H25   H     H_    0.384409 0.714610 0.308238 0.165520
H26   H     H_    0.463813 0.806448 0.238113 0.169154
C47   C     C_3   0.572303 0.211922 0.901993 -0.949658
H27   H     H_    0.599449 0.181001 0.846241 0.240433
H28   H     H_    0.658544 0.228262 0.942727 0.243655
H29   H     H_    0.493144 0.159101 0.940176 0.240199
N4    N     N_3   0.327408 0.498779 0.783645 -0.481940
H30   H     H_    0.270426 0.504106 0.836305 0.193301
H31   H     H_    0.367835 0.564820 0.749576 0.198373
N5    N     N_3   0.842924 0.405694 0.651171 -0.484767
H32   H     H_    0.844498 0.340641 0.685328 0.182684
H33   H     H_    0.900086 0.455696 0.684821 0.196563
C48   C     C_3   0.411308 0.333378 0.167273 -0.927607
H34   H     H_    0.490486 0.317724 0.208873 0.245331
H35   H     H_    0.356922 0.374852 0.198287 0.253895
H36   H     H_    0.340535 0.266673 0.161257 0.242871
N6    N     N_3   0.544203 0.228445 0.570294 -0.412474
H37   H     H_    0.526808 0.169352 0.617461 0.169574
H38   H     H_    0.641982 0.262157 0.561626 0.182531
C49   C     C_3   0.238572 0.302619 0.361590 -0.847154
H39   H     H_    0.290099 0.375632 0.344493 0.273903
H40   H     H_    0.190267 0.285691 0.300643 0.213394
H41   H     H_    0.162280 0.294221 0.412509 0.228981
C50   C     C_3   0.172285 0.111300 0.327118 -0.937018
H42   H     H_    0.091508 0.136837 0.351008 0.251531
H43   H     H_    0.185092 0.130980 0.255535 0.241126
H44   H     H_    0.137375 0.034784 0.343473 0.240947

loop_
_geom_bond_atom_site_label_1
_geom_bond_atom_site_label_2
_ccdc_geom_bond_type
C44   H3    S    
C24   H6    S    
N5    H32   S    
C42   N5    S    
C44   H20   S    
C19   C20   A    
C16   H5    S    
C4    H24   S    
C7    C8    A    
C45   C46   S    
C7    C11   A    
C30   C35   A    
C1    C5    S    
C1    O2    A    
C28   C29   A    
C19   C21   A    
C36   H12   S    
C30   C31   A    
C47   H28   S    
C7    C47   S    
C6    C23   S    
C15   C16   A    
C6    C22   A    
C48   H36   S    
C29   C33   A    
C18   C19   A    
C42   C46   S    
C20   C24   A    
C27   H15   S    
C18   H7    S    
C34   O8    A    
N3    H25   S    
C48   H35   S    
C50   H42   S    
C35   H18   S    
C9    C10   A    
C17   H9    S    
N2    Zn1   S    
N1    Zn2   S    
C2    C34   S    
N5    H33   S    
C21   C22   A    
C26   N1    A    
C50   H43   S    
O2    Zn2   S    
O1    Zn1   S    
C3    H4    S    
C44   C46   S    
C4    C45   S    
C25   C29   A    
C3    C44   S    
C45   H23   S    
C14   C20   A    
C38   C41   A    
O8    Zn2   S    
O4    Zn2   S    
C39   C40   A    
O7    Zn1   S    
C47   H27   S    
O3    Zn1   S    
C25   C26   A    
C47   H29   S    
C35   C36   A    
C39   C50   S    
C5    C9    A    
C37   C38   A    
C34   O7    A    
C5    C8    A    
C11   C16   A    
O6    Zn2   S    
N4    H31   S    
C31   C32   A    
O5    Zn1   S    
C2    C43   S    
C43   H19   S    
C6    C24   A    
C48   H34   S    
C45   H22   S    
N6    H38   S    
C17   C18   A    
C41   N6    S    
C49   H40   S    
C23   O5    A    
C41   N2    A    
C12   C46   S    
N3    H26   S    
C12   O4    A    
C50   H44   S    
C42   C43   S    
C8    H8    S    
C15   C48   S    
C27   N1    A    
C4    H2    S    
C36   C37   A    
C33   H11   S    
C40   N2    A    
C3    H21   S    
C32   H17   S    
C10   C13   A    
C9    N4    S    
C21   H10   S    
C31   C38   A    
C13   C17   A    
C1    O1    A    
C32   C33   A    
C28   C30   A    
C2    C3    S    
C37   C39   A    
C22   N3    S    
C40   C49   S    
N4    H30   S    
C2    C4    S    
N6    H37   S    
C49   H41   S    
C42   H1    S    
C23   O6    A    
C10   C11   A    
C12   O3    A    
C49   H39   S    
C14   C15   A    
C25   H13   S    
C13   C14   A    
C26   H14   S    
C43   H16   S    
C27   C28   A    
