data_mof_unit_66878.cif
_audit_creation_date              2013-03-05T15:57:23-0500
_audit_creation_method            fapswitch 2.2
_symmetry_space_group_name_H-M    P1
_symmetry_Int_Tables_number       1
_space_group_crystal_system       triclinic
_cell_length_a                    17.695248
_cell_length_b                    19.339481
_cell_length_c                    8.646842
_cell_angle_alpha                 89.838712
_cell_angle_beta                  102.33578
_cell_angle_gamma                 89.655307
_cell_volume                      2890.69923698

loop_
_atom_site_label
_atom_site_type_symbol
_atom_site_description
_atom_site_fract_x
_atom_site_fract_y
_atom_site_fract_z
_atom_type_partial_charge
P1    P     P_3+3 0.834140 0.419320 0.003900 0.516353
P2    P     P_3+3 0.834140 0.580680 0.503900 0.475704
P3    P     P_3+3 0.334140 0.919320 0.003900 0.516349
P4    P     P_3+3 0.334140 0.080680 0.503900 0.476030
O1    O     O_2   0.841960 0.394640 0.833410 -0.331078
O2    O     O_2   0.841960 0.605360 0.333410 -0.358693
O3    O     O_2   0.341960 0.894640 0.833410 -0.331445
O4    O     O_2   0.341960 0.105360 0.333410 -0.357862
O5    O     O_3   0.907950 0.463080 0.102990 -0.434212
O6    O     O_3   0.907950 0.536920 0.602990 -0.406826
O7    O     O_3   0.407950 0.963080 0.102990 -0.434063
O8    O     O_3   0.407950 0.036920 0.602990 -0.407234
O9    O     O_3   0.972780 0.329600 0.629720 -0.422010
O10   O     O_3   0.972780 0.670400 0.129720 -0.438627
O11   O     O_3   0.472780 0.829600 0.629720 -0.421688
O12   O     O_3   0.472780 0.170400 0.129720 -0.438539
O13   O     O_2   0.825457 0.303230 0.643463 -0.332149
O14   O     O_2   0.835850 0.714488 0.185351 -0.343921
O15   O     O_2   0.325523 0.803197 0.643459 -0.332119
O16   O     O_2   0.335868 0.214489 0.185480 -0.343953
O17   O     O_3   0.751100 0.466606 0.956235 -0.487112
O18   O     O_3   0.750932 0.535038 0.473040 -0.580418
O19   O     O_3   0.250991 0.966476 0.956233 -0.487321
O20   O     O_3   0.250936 0.035042 0.472945 -0.579960
O21   O     O_3   0.910558 0.195767 0.654058 -0.564238
O22   O     O_3   0.915285 0.806643 0.101991 -0.554854
O23   O     O_3   0.410602 0.695686 0.654308 -0.564402
O24   O     O_3   0.415219 0.306657 0.101889 -0.554833
H1    H     H_    0.026395 0.212321 0.747039 0.169697
H2    H     H_    0.002749 0.771891 0.286109 0.163368
H3    H     H_    0.526492 0.712065 0.747297 0.170634
H4    H     H_    0.502921 0.271979 0.285609 0.163151
C1    C     C_3   0.000941 0.103526 0.726337 -0.804335
C2    C     C_3   0.000062 0.880075 0.257393 -0.759378
C3    C     C_3   0.500825 0.603327 0.726380 -0.804245
C4    C     C_3   0.500060 0.380176 0.256946 -0.759467
H5    H     H_    0.523493 0.605047 0.853820 0.254661
H6    H     H_    0.554084 0.381127 0.340958 0.259305
H7    H     H_    0.025708 0.105518 0.852975 0.254582
H8    H     H_    0.054157 0.881084 0.341169 0.259428
H9    H     H_    0.947547 0.073958 0.712564 0.260309
H10   H     H_    0.954699 0.888845 0.324899 0.233563
H11   H     H_    0.447788 0.573099 0.707809 0.262921
H12   H     H_    0.454642 0.388976 0.324288 0.233589
P5    P     P_3+3 0.165830 0.418670 0.685610 0.502789
P6    P     P_3+3 0.165830 0.581330 0.185610 0.496353
P7    P     P_3+3 0.665830 0.918670 0.685610 0.502663
P8    P     P_3+3 0.665830 0.081330 0.185610 0.496061
P9    P     P_3+3 0.101736 0.268878 0.110856 0.497835
P10   P     P_3+3 0.105179 0.728416 0.613390 0.474814
P11   P     P_3+3 0.601646 0.768803 0.110789 0.498385
P12   P     P_3+3 0.605171 0.228427 0.613332 0.474987
O25   O     O_2   0.157990 0.394030 0.856030 -0.353459
O26   O     O_2   0.157990 0.605970 0.356030 -0.385965
O27   O     O_2   0.657990 0.894030 0.856030 -0.353269
O28   O     O_2   0.657990 0.105970 0.356030 -0.386155
O29   O     O_3   0.027110 0.329490 0.059550 -0.420231
O30   O     O_3   0.027110 0.670510 0.559550 -0.413494
O31   O     O_3   0.527110 0.829490 0.059550 -0.420168
O32   O     O_3   0.527110 0.170510 0.559550 -0.413637
O33   O     O_2   0.153097 0.281733 0.991045 -0.300778
O34   O     O_2   0.158242 0.717873 0.495773 -0.332347
O35   O     O_2   0.652941 0.781632 0.990837 -0.300181
O36   O     O_2   0.658264 0.217893 0.495753 -0.332207
O37   O     O_3   0.244359 0.474372 0.738003 -0.481441
O38   O     O_3   0.242270 0.522896 0.233724 -0.460147
O39   O     O_3   0.744298 0.974416 0.738085 -0.481473
O40   O     O_3   0.742310 0.022938 0.233919 -0.460600
O41   O     O_3   0.057807 0.189213 0.058903 -0.481158
O42   O     O_3   0.066668 0.811018 0.570661 -0.495475
O43   O     O_3   0.557501 0.689205 0.058851 -0.480680
O44   O     O_3   0.566620 0.311000 0.570429 -0.495327
C5    C     C_3   0.981328 0.192384 0.083363 0.307842
C6    C     C_3   0.996916 0.816733 0.623513 0.289189
C7    C     C_3   0.481087 0.692505 0.083747 0.308042
C8    C     C_3   0.496704 0.316631 0.622679 0.289150
H13   H     H_    0.942752 0.216829 0.978927 0.094987
H14   H     H_    0.947504 0.803173 0.525830 0.070593
H15   H     H_    0.442431 0.716939 0.979398 0.094964
H16   H     H_    0.447441 0.303133 0.524626 0.070806
H17   H     H_    0.976860 0.222999 0.189042 0.041885
H18   H     H_    0.994793 0.782532 0.725073 0.054744
H19   H     H_    0.476820 0.723202 0.189419 0.041630
H20   H     H_    0.494372 0.282339 0.723986 0.054899
C9    C     C_3   0.950769 0.120147 0.107051 -0.456638
C10   C     C_3   0.987930 0.890898 0.675911 -0.384936
C11   C     C_3   0.450392 0.620364 0.108026 -0.457939
C12   C     C_3   0.487620 0.390743 0.675244 -0.385255
H21   H     H_    0.396763 0.625774 0.154470 0.208177
H22   H     H_    0.475261 0.426114 0.572147 0.270917
H23   H     H_    0.896685 0.125369 0.151988 0.207627
H24   H     H_    0.975471 0.926188 0.572676 0.271013
H25   H     H_    0.934414 0.093434 0.992321 0.206366
H26   H     H_    0.042589 0.907005 0.755549 0.294911
H27   H     H_    0.433098 0.593737 0.993401 0.206076
H28   H     H_    0.542220 0.406805 0.755100 0.295208
C13   C     C_3   0.215766 0.454423 0.236960 0.349679
C14   C     C_3   0.222552 0.544128 0.712421 0.290156
C15   C     C_3   0.715812 0.954466 0.237218 0.349652
C16   C     C_3   0.722392 0.044136 0.712273 0.290733
H29   H     H_    0.194510 0.446129 0.346942 0.019579
H30   H     H_    0.208225 0.564743 0.822006 0.007953
H31   H     H_    0.694519 0.946203 0.347170 0.019457
H32   H     H_    0.707784 0.064731 0.821607 0.007783
H33   H     H_    0.169955 0.441738 0.132563 0.097555
H34   H     H_    0.173467 0.553542 0.612484 0.125899
H35   H     H_    0.670027 0.941758 0.132786 0.097515
H36   H     H_    0.673473 0.053467 0.611974 0.126078
C17   C     C_3   0.282279 0.404409 0.231731 -0.067848
C18   C     C_3   0.290632 0.583936 0.676156 -0.104595
C19   C     C_3   0.782331 0.904440 0.232137 -0.067999
C20   C     C_3   0.790510 0.084041 0.676577 -0.104464
H37   H     H_    0.314828 0.390838 0.352397 0.098394
H38   H     H_    0.337082 0.583374 0.783844 0.094680
H39   H     H_    0.814830 0.890892 0.352860 0.098386
H40   H     H_    0.836644 0.083655 0.784803 0.093397
H41   H     H_    0.259384 0.355219 0.175148 0.100334
H42   H     H_    0.273203 0.638552 0.648473 0.119935
H43   H     H_    0.759447 0.855244 0.175544 0.100146
H44   H     H_    0.772998 0.138609 0.648502 0.119863
Ba1   Ba    Ba6+2 1.000000 0.447380 0.844850 1.570567
Ba2   Ba    Ba6+2 1.000000 0.552620 0.344850 1.559360
Ba3   Ba    Ba6+2 0.500000 0.947380 0.844850 1.570666
Ba4   Ba    Ba6+2 0.500000 0.052620 0.344850 1.559515
C21   C     C_3   0.766771 0.532796 0.911912 0.178704
C22   C     C_3   0.759742 0.475711 0.391997 0.242155
C23   C     C_3   0.266434 0.032629 0.911293 0.179627
C24   C     C_3   0.259878 0.975577 0.392510 0.242209
H45   H     H_    0.795415 0.532346 0.809352 0.068098
H46   H     H_    0.776581 0.486672 0.277629 0.099138
H47   H     H_    0.294554 0.032073 0.808002 0.068898
H48   H     H_    0.276862 0.986343 0.278192 0.099204
H49   H     H_    0.802786 0.560671 0.013806 0.112116
H50   H     H_    0.801993 0.439701 0.466236 0.100055
H51   H     H_    0.302840 0.060579 0.012587 0.111402
H52   H     H_    0.302075 0.939667 0.467214 0.100291
C25   C     C_3   0.687797 0.565572 0.864274 0.339066
C26   C     C_3   0.680421 0.446102 0.360943 0.327517
C27   C     C_3   0.187395 0.065420 0.864976 0.338107
C28   C     C_3   0.180562 0.945967 0.361377 0.328183
H53   H     H_    0.660696 0.545300 0.746722 0.115552
H54   H     H_    0.640027 0.480344 0.280449 0.123963
H55   H     H_    0.159666 0.045169 0.747777 0.116202
H56   H     H_    0.140188 0.980140 0.280694 0.124826
O45   O     O_3   0.092100 0.536880 0.086720 -0.444466
O46   O     O_3   0.092100 0.463120 0.586720 -0.448018
O47   O     O_3   0.592100 0.036880 0.086720 -0.444397
O48   O     O_3   0.592100 0.963120 0.586720 -0.448204
P13   P     P_3+3 0.888696 0.721656 0.066117 0.444646
P14   P     P_3+3 0.890281 0.276948 0.565694 0.453567
P15   P     P_3+3 0.388676 0.221644 0.066174 0.444805
P16   P     P_3+3 0.390350 0.776863 0.565766 0.453558
C29   C     C_3   0.988604 0.177424 0.662564 0.765098
C30   C     C_3   0.991126 0.809580 0.186172 0.662206
C31   C     C_3   0.488623 0.677252 0.662778 0.763354
C32   C     C_3   0.491123 0.309673 0.185692 0.662684
H57   H     H_    0.540529 0.573097 0.670854 0.263649
H58   H     H_    0.497521 0.420084 0.164322 0.264188
H59   H     H_    0.038891 0.072523 0.667685 0.264876
H60   H     H_    0.997400 0.919934 0.164639 0.264380
C33   C     C_R   0.141591 0.676410 0.925227 -0.163778
C34   C     C_R   0.138789 0.322028 0.424251 -0.161658
C35   C     C_R   0.641549 0.176432 0.925218 -0.163669
C36   C     C_R   0.638801 0.822013 0.424205 -0.161412
C37   C     C_R   0.859271 0.323392 0.253495 -0.517323
C38   C     C_R   0.854562 0.672298 0.757221 -0.559871
C39   C     C_R   0.359352 0.823347 0.253498 -0.517293
C40   C     C_R   0.354466 0.172228 0.757327 -0.559664
C41   C     C_R   0.791487 0.217728 0.292904 -0.064188
C42   C     C_R   0.786893 0.778927 0.794126 -0.098929
C43   C     C_R   0.291472 0.717751 0.292943 -0.064135
C44   C     C_R   0.286772 0.278838 0.794259 -0.098314
C45   C     C_R   0.846834 0.269312 0.350868 0.270090
C46   C     C_R   0.839212 0.724864 0.854687 0.317444
C47   C     C_R   0.346893 0.769272 0.350894 0.269749
C48   C     C_R   0.339105 0.224783 0.854801 0.317533
C49   C     C_R   0.819120 0.329656 0.097086 0.346258
C50   C     C_R   0.815837 0.667473 0.599892 0.316209
C51   C     C_R   0.319202 0.829617 0.097066 0.346540
C52   C     C_R   0.315788 0.167443 0.599959 0.316194
C53   C     C_R   0.763852 0.273954 0.034210 -0.014993
C54   C     C_R   0.759558 0.722525 0.535919 -0.011160
C55   C     C_R   0.263930 0.773910 0.034189 -0.014917
C56   C     C_R   0.259511 0.222501 0.536007 -0.011294
C57   C     C_R   0.249499 0.716862 0.134734 -0.124287
C58   C     C_R   0.245727 0.280395 0.635132 -0.076468
C59   C     C_R   0.749464 0.216876 0.134725 -0.124248
C60   C     C_R   0.745811 0.780449 0.635014 -0.076079
C61   C     C_R   0.188312 0.665395 0.077779 0.223032
C62   C     C_R   0.185787 0.333168 0.577056 0.239091
C63   C     C_R   0.688286 0.165405 0.077767 0.222925
C64   C     C_R   0.685832 0.833188 0.576980 0.238901
C65   C     C_R   0.161553 0.725600 0.822242 0.181360
C66   C     C_R   0.157464 0.271087 0.322069 0.174788
C67   C     C_R   0.661496 0.225642 0.822238 0.181188
C68   C     C_R   0.657439 0.771048 0.322012 0.174581
C69   C     C_R   0.219757 0.774703 0.877981 -0.170016
C70   C     C_R   0.214786 0.220729 0.379777 -0.200894
C71   C     C_R   0.719677 0.274759 0.878006 -0.169872
C72   C     C_R   0.714777 0.720703 0.379724 -0.200930
H61   H     H_    0.274668 0.683417 0.376529 0.210136
H62   H     H_    0.275018 0.317233 0.875158 0.216015
H63   H     H_    0.774818 0.183270 0.376429 0.209890
H64   H     H_    0.775157 0.817343 0.875012 0.215922
H65   H     H_    0.728227 0.315127 0.799718 0.251279
H66   H     H_    0.722159 0.678780 0.302463 0.244139
H67   H     H_    0.228322 0.815050 0.799665 0.251332
H68   H     H_    0.222203 0.178837 0.302481 0.244627
H69   H     H_    0.895937 0.365346 0.305990 0.147840
H70   H     H_    0.893772 0.631311 0.809149 0.154013
H71   H     H_    0.396011 0.865303 0.306001 0.147859
H72   H     H_    0.393679 0.131239 0.809244 0.153995
N1    N     N_R   0.334259 0.435602 0.142417 0.290045
O49   O     O_R   0.327820 0.421029 0.994460 -0.383502
O50   O     O_R   0.376542 0.487664 0.201049 -0.368180
N2    N     N_R   0.318731 0.553002 0.544008 0.290527
O51   O     O_R   0.353311 0.590813 0.456751 -0.395469
O52   O     O_R   0.328506 0.486805 0.538174 -0.414291
N3    N     N_R   0.834363 0.935612 0.142916 0.289997
O53   O     O_R   0.827810 0.921186 0.994846 -0.383399
O54   O     O_R   0.876693 0.987625 0.201708 -0.368227
N4    N     N_R   0.819077 0.053072 0.544974 0.290838
O55   O     O_R   0.853790 0.090867 0.457936 -0.394366
O56   O     O_R   0.828659 0.986858 0.538888 -0.413716
N5    N     N_R   0.693934 0.639358 0.857601 0.187689
O57   O     O_R   0.721149 0.671893 0.987348 -0.349739
O58   O     O_R   0.660046 0.673310 0.732728 -0.483400
N6    N     N_R   0.681305 0.380946 0.283651 0.162615
O59   O     O_R   0.698350 0.325017 0.366178 -0.382903
O60   O     O_R   0.679870 0.381339 0.133301 -0.444823
N7    N     N_R   0.193551 0.139206 0.858079 0.187932
O61   O     O_R   0.221106 0.171831 0.987532 -0.349628
O62   O     O_R   0.159987 0.173112 0.732881 -0.483405
N8    N     N_R   0.181476 0.880772 0.284339 0.162570
O63   O     O_R   0.198669 0.824935 0.367109 -0.382767
O64   O     O_R   0.180102 0.881081 0.134020 -0.445231
N9    N     N_R   0.642269 0.547526 0.980520 0.249093
O65   O     O_R   0.594737 0.495785 0.953946 -0.436093
O66   O     O_R   0.662267 0.572285 0.122732 -0.422817
N10   N     N_R   0.652907 0.440658 0.508289 0.241541
O67   O     O_R   0.594370 0.478477 0.525282 -0.497173
O68   O     O_R   0.694230 0.409618 0.630916 -0.342271
N11   N     N_R   0.142503 0.047391 0.982343 0.248550
O69   O     O_R   0.094744 0.995795 0.956392 -0.437206
O70   O     O_R   0.162969 0.072253 0.124381 -0.422756
N12   N     N_R   0.152945 0.940644 0.508602 0.241298
O71   O     O_R   0.094385 0.978505 0.525229 -0.498115
O72   O     O_R   0.194183 0.909689 0.631445 -0.342990
C73   C     C_3   0.011856 0.181542 0.502203 -0.928701
H73   H     H_    0.962431 0.165580 0.409497 0.255250
H74   H     H_    0.027361 0.234794 0.478972 0.218933
H75   H     H_    0.063475 0.149779 0.498133 0.262763
C74   C     C_3   0.046767 0.798409 0.075341 -0.805279
H76   H     H_    0.101706 0.776534 0.142627 0.276183
H77   H     H_    0.023412 0.761057 0.983072 0.193033
H78   H     H_    0.055358 0.846272 0.011219 0.272644
C75   C     C_3   0.511834 0.681310 0.502373 -0.927967
H79   H     H_    0.462406 0.665261 0.409825 0.255609
H80   H     H_    0.527301 0.734565 0.478945 0.218841
H81   H     H_    0.563439 0.649536 0.498264 0.262670
C76   C     C_3   0.546587 0.298559 0.074483 -0.805208
H82   H     H_    0.601592 0.276690 0.141465 0.276052
H83   H     H_    0.523127 0.261215 0.982260 0.192716
H84   H     H_    0.555087 0.346446 0.010364 0.272676
C77   C     C_3   0.509249 0.575149 0.220299 -0.503981
H85   H     H_    0.563939 0.602323 0.268134 0.257705
H86   H     H_    0.486035 0.557085 0.322505 0.274964
H87   H     H_    0.522707 0.529524 0.155580 0.261715
C78   C     C_3   0.422053 0.397288 0.761489 -0.754119
H88   H     H_    0.366991 0.381502 0.683033 0.262478
H89   H     H_    0.432318 0.363252 0.865382 0.271791
H90   H     H_    0.418135 0.451412 0.801578 0.313938
C79   C     C_3   0.009316 0.075209 0.220737 -0.503623
H91   H     H_    0.064077 0.102329 0.268243 0.257869
H92   H     H_    0.985823 0.057692 0.323019 0.274649
H93   H     H_    0.022736 0.029198 0.157313 0.261684
C80   C     C_3   0.922457 0.897554 0.762397 -0.753262
H94   H     H_    0.867348 0.881695 0.684213 0.262551
H95   H     H_    0.932821 0.863637 0.866475 0.271844
H96   H     H_    0.918548 0.951717 0.802241 0.313542
C81   C     C_3   0.065912 0.639207 0.870662 -0.702158
H97   H     H_    0.037888 0.626118 0.964398 0.267932
H98   H     H_    0.020174 0.674904 0.812954 0.176634
H99   H     H_    0.071886 0.593447 0.796929 0.242478
C82   C     C_3   0.063297 0.360110 0.369449 -0.731679
H100  H     H_    0.035981 0.375591 0.462802 0.272809
H101  H     H_    0.068534 0.404791 0.291981 0.239352
H102  H     H_    0.018187 0.323952 0.314013 0.183673
C83   C     C_3   0.565877 0.139217 0.870650 -0.701937
H103  H     H_    0.537865 0.126111 0.964390 0.267954
H104  H     H_    0.520130 0.174900 0.812928 0.176595
H105  H     H_    0.571848 0.093460 0.796911 0.242423
C84   C     C_3   0.563310 0.860085 0.369464 -0.731839
H106  H     H_    0.536020 0.875564 0.462851 0.272849
H107  H     H_    0.568529 0.904767 0.291980 0.239359
H108  H     H_    0.518205 0.823919 0.314089 0.183594

loop_
_geom_bond_atom_site_label_1
_geom_bond_atom_site_label_2
_geom_bond_distance
_ccdc_geom_bond_type
C44   H62   1.071070 S    
C15   H31   1.106500 S    
C12   H28   1.107480 S    
P1    O17   1.699502 S    
O23   P16   1.745980 S    
C14   C18   1.521037 S    
O43   C7    1.414983 S    
C84   H106  1.068228 S    
C37   C49   1.391418 A    
O12   P15   1.768817 S    
C40   H72   1.081512 S    
P3    O19   1.699716 S    
O13   P14   1.533232 D    
C2    H10   1.101339 S    
C71   H65   1.064335 S    
P4    O4    1.582476 D    
O6    Ba1   2.918146 S    
C7    H19   1.106819 S    
C3    H11   1.091345 S    
C18   H42   1.109591 S    
N6    O60   1.294861 A    
C53   C59   1.459869 A    
C17   H41   1.109524 S    
Ba3   Ba4   4.773344 S    
C9    H23   1.111315 S    
C66   C70   1.412594 A    
N1    O49   1.292013 A    
C81   H99   1.109813 S    
C25   N9    1.458967 S    
C44   C48   1.415118 A    
Ba4   O48   2.918098 S    
C73   H73   1.099036 S    
C55   C69   1.408636 A    
O11   Ba3   2.921463 S    
P1    O1    1.584475 D    
O28   Ba4   2.968070 S    
O38   C13   1.409683 S    
O19   C23   1.381756 S    
C3    H5    1.089865 S    
C79   H91   1.104567 S    
N2    O52   1.293377 A    
O9    P14   1.774886 S    
P6    O38   1.737320 S    
C84   H108  1.095822 S    
C17   N1    1.453937 S    
P11   C68   1.882248 S    
C24   H52   1.114554 S    
C27   N7    1.433833 S    
C76   H82   1.102031 S    
P4    O20   1.693209 S    
P10   C65   1.867735 S    
C1    C29   1.527936 S    
O18   C22   1.371425 S    
P6    O45   1.647204 S    
N3    O54   1.296367 A    
P9    C66   1.881796 S    
C22   H46   1.112292 S    
C37   C45   1.388593 A    
N11   O69   1.300238 A    
P8    O47   1.647204 S    
O1    Ba1   2.964378 S    
C16   H32   1.106587 S    
C83   H105  1.109787 S    
P9    O29   1.744357 S    
P4    Ba4   3.536865 S    
C19   H43   1.109612 S    
C75   H79   1.098780 S    
C10   C80   1.512293 S    
C5    H17   1.106871 S    
P7    C64   1.970858 S    
O32   Ba4   2.920818 S    
C49   C53   1.483679 A    
P3    C51   1.953726 S    
O37   C14   1.404751 S    
O11   P16   1.774827 S    
P8    C63   1.956722 S    
C25   N5    1.433682 S    
C10   H26   1.107680 S    
N5    O58   1.292757 A    
H4    C32   1.113098 S    
P16   C47   1.859391 S    
C9    H25   1.103107 S    
C10   H24   1.105406 S    
O20   C24   1.371365 S    
O7    Ba4   2.936704 S    
C44   C58   1.412146 A    
N11   O70   1.298513 A    
C79   H92   1.107637 S    
C11   H27   1.102885 S    
O42   C6    1.408611 S    
C72   H66   1.076935 S    
N8    O64   1.294808 A    
O41   C5    1.414682 S    
C38   C50   1.390014 A    
P4    O8    1.631156 S    
O14   P13   1.539258 D    
P12   O32   1.768035 S    
C77   H85   1.104600 S    
C18   H38   1.102534 S    
C42   H64   1.071170 S    
P6    O26   1.583765 D    
C19   N3    1.453931 S    
P11   O35   1.537792 D    
C4    H58   1.104470 S    
C13   H33   1.105962 S    
C39   H71   1.080676 S    
C20   H44   1.109566 S    
P2    Ba2   3.536865 S    
C30   C74   1.528479 S    
O26   Ba2   2.968070 S    
C16   H36   1.100229 S    
P5    O25   1.581769 D    
P9    O41   1.746094 S    
C80   H94   1.106853 S    
C28   N8    1.429261 S    
C8    H20   1.105163 S    
P2    O2    1.582476 D    
P12   C67   1.867846 S    
P1    C49   1.953463 S    
O3    Ba3   2.964378 S    
P4    C52   1.930655 S    
C24   H48   1.112342 S    
C68   C72   1.412622 A    
P7    O39   1.745760 S    
N6    O59   1.292240 A    
P3    Ba3   3.541093 S    
C4    H12   1.101281 S    
O5    Ba2   2.936704 S    
C67   C71   1.413151 A    
N1    O50   1.296321 A    
O31   Ba3   2.908127 S    
N9    O66   1.298478 A    
Ba4   O47   3.046748 S    
N12   O72   1.295812 A    
O30   Ba2   2.920818 S    
C73   H74   1.096368 S    
C43   C57   1.410505 A    
O21   C29   1.410363 S    
P5    O46   1.636464 S    
P10   O30   1.768052 S    
C51   C55   1.483781 A    
C28   H56   1.101210 S    
P1    O5    1.641777 S    
N2    O51   1.295350 A    
C41   C59   1.410558 A    
C33   C61   1.413935 A    
C26   H54   1.101381 S    
C31   C75   1.530292 S    
N3    O53   1.292099 A    
C76   H83   1.093271 S    
C78   H89   1.094891 S    
O4    Ba4   2.952585 S    
C54   C60   1.462690 A    
P5    Ba1   3.539214 S    
C81   H97   1.067244 S    
C40   C52   1.390006 A    
C43   C47   1.417827 A    
C78   H88   1.106836 S    
P8    O40   1.737434 S    
C36   C68   1.409463 A    
O21   P14   1.745514 S    
C75   H80   1.096618 S    
O25   Ba1   2.956166 S    
C43   H61   1.069201 S    
C18   N2    1.467599 S    
C3    H57   1.098491 S    
P2    O18   1.693328 S    
C82   H100  1.068266 S    
P12   O44   1.740273 S    
C41   H63   1.069286 S    
C55   C57   1.459838 A    
O9    Ba1   2.921463 S    
C12   C78   1.512196 S    
C13   H29   1.106488 S    
C74   H77   1.093212 S    
C79   H93   1.097636 S    
P7    O48   1.636464 S    
C41   C45   1.417898 A    
C35   C67   1.398844 A    
C15   C19   1.527108 S    
C34   C66   1.409322 A    
C76   H84   1.105492 S    
N10   O68   1.295838 A    
O15   P16   1.533226 D    
C25   H53   1.101408 S    
C54   C72   1.413008 A    
O44   C8    1.408573 S    
N7    O62   1.292773 A    
C1    H7    1.089963 S    
P13   C46   1.851384 S    
C26   N6    1.429577 S    
C77   H86   1.107658 S    
C5    C9    1.529979 S    
Ba1   Ba2   4.773344 S    
C50   C54   1.476421 A    
O39   C16   1.404692 S    
C11   C77   1.531030 S    
C40   C48   1.384456 A    
C7    C11   1.530293 S    
Ba3   O47   2.936653 S    
C39   C51   1.391596 A    
C16   C20   1.520720 S    
C2    C30   1.492872 S    
C56   C70   1.412878 A    
C11   H21   1.111151 S    
O22   C30   1.384875 S    
P12   O36   1.537785 D    
C33   C81   1.509012 S    
P10   O34   1.537676 D    
C2    H8    1.070254 S    
C69   H67   1.064289 S    
C81   H98   1.095168 S    
N8    O63   1.292110 A    
O2    Ba2   2.952585 S    
P6    C61   1.956650 S    
O17   C21   1.381770 S    
P2    O6    1.631156 S    
O27   Ba3   2.956166 S    
C34   C62   1.420587 A    
C52   C56   1.476438 A    
C27   N11   1.458881 S    
C4    C32   1.493136 S    
P7    O27   1.581769 D    
C42   C46   1.415143 A    
C21   H49   1.113511 S    
P8    O28   1.583765 D    
C8    C12   1.522784 S    
N12   O71   1.298353 A    
C22   C26   1.489833 S    
C73   H75   1.104533 S    
C12   H22   1.105415 S    
P15   C48   1.851309 S    
P1    Ba1   3.541093 S    
N5    O57   1.289681 A    
N4    O56   1.293406 A    
C78   H90   1.109990 S    
C28   N12   1.461404 S    
C20   N4    1.468039 S    
C82   H102  1.095931 S    
Ba2   O45   3.046748 S    
O22   P13   1.723020 S    
P6    Ba2   3.543535 S    
C8    H16   1.111336 S    
C3    C31   1.527795 S    
P8    Ba4   3.543535 S    
C36   C84   1.505543 S    
H3    C31   1.111472 S    
P11   O43   1.746441 S    
C57   C61   1.481032 A    
P7    Ba3   3.539214 S    
C27   H55   1.101461 S    
C17   H37   1.108659 S    
C6    C10   1.522977 S    
C15   H35   1.106013 S    
C38   C46   1.384489 A    
P3    O3    1.584475 D    
C14   H34   1.100367 S    
O16   P15   1.539225 D    
C60   C64   1.474820 A    
C75   H81   1.104536 S    
C21   C25   1.505437 S    
C74   H78   1.105498 S    
C80   H95   1.094758 S    
C13   C17   1.527129 S    
P10   O42   1.740361 S    
H1    C29   1.111615 S    
C1    H9    1.092090 S    
C59   C63   1.480983 A    
C84   H107  1.108264 S    
C14   H30   1.106639 S    
C38   H70   1.081491 S    
P5    O37   1.745981 S    
P9    O33   1.537735 D    
C37   H69   1.080696 S    
C74   H76   1.102076 S    
O8    Ba3   2.918146 S    
C29   C73   1.530318 S    
C65   C69   1.413187 A    
N9    O65   1.300150 A    
O10   P13   1.768736 S    
C4    H6    1.070272 S    
N10   O67   1.298466 A    
C83   H104  1.095146 S    
C9    C79   1.531063 S    
C56   C58   1.462600 A    
C39   C47   1.388757 A    
Ba1   O45   2.936653 S    
Ba2   O46   2.918098 S    
O12   Ba4   2.908751 S    
N4    O55   1.295297 A    
C23   H51   1.113601 S    
C77   H87   1.098018 S    
C23   H47   1.111440 S    
C26   N10   1.461607 S    
O40   C15   1.409683 S    
P3    O7    1.641777 S    
C33   C65   1.398731 A    
C82   H101  1.108257 S    
O29   Ba1   2.908127 S    
C32   C76   1.528408 S    
Ba1   O46   3.047451 S    
C34   C82   1.505708 S    
C21   H45   1.111522 S    
P5    C62   1.970637 S    
H2    C30   1.113113 S    
P14   C45   1.859066 S    
P11   O31   1.744164 S    
Ba3   O48   3.047451 S    
C22   H50   1.114547 S    
O24   P15   1.723147 S    
C19   H39   1.108684 S    
C6    H14   1.111367 S    
C80   H96   1.109980 S    
C42   C60   1.412223 A    
N7    O61   1.289685 A    
O24   C32   1.384854 S    
O10   Ba2   2.908751 S    
C5    H13   1.111431 S    
C83   H103  1.067220 S    
C20   H40   1.102587 S    
C35   C63   1.414053 A    
C58   C62   1.474883 A    
P2    C50   1.930668 S    
C36   C64   1.420709 A    
C7    H15   1.111445 S    
C23   C27   1.505728 S    
C70   H68   1.076832 S    
C6    H18   1.105088 S    
C1    H59   1.100014 S    
C2    H60   1.104364 S    
C24   C28   1.489751 S    
C35   C83   1.509039 S    
O23   C31   1.410411 S    
C53   C71   1.408621 A    
