data_mof_unit_55049.cif
_audit_creation_date              2012-12-11T17:14:58-0500
_audit_creation_method            fapswitch 2.2
_symmetry_space_group_name_H-M    P1
_symmetry_Int_Tables_number       1
_space_group_crystal_system       triclinic
_cell_length_a                    7.220641
_cell_length_b                    12.163244
_cell_length_c                    21.31021
_cell_angle_alpha                 89.994356
_cell_angle_beta                  90.545708
_cell_angle_gamma                 89.978964
_cell_volume                      1871.51439236

loop_
_atom_site_label
_atom_site_type_symbol
_atom_type_description
_atom_site_fract_x
_atom_site_fract_y
_atom_site_fract_z
_atom_type_partial_charge
O1    O     O_R   0.354460 0.152320 0.595720 -0.533276
O2    O     O_R   0.645540 0.847680 0.404280 -0.533586
O3    O     O_R   0.145540 0.652320 0.404280 -0.533543
O4    O     O_R   0.854460 0.347680 0.595720 -0.533614
O5    O     O_R   0.683670 0.140090 0.727290 -0.537554
O6    O     O_R   0.316330 0.859910 0.272710 -0.538118
O7    O     O_R   0.816330 0.640090 0.272710 -0.537991
O8    O     O_R   0.183670 0.359910 0.727290 -0.539322
O9    O     O_R   0.854010 0.349340 0.727750 -0.534438
O10   O     O_R   0.145990 0.650660 0.272250 -0.535763
O11   O     O_R   0.645990 0.849340 0.272250 -0.535593
O12   O     O_R   0.354010 0.150660 0.727750 -0.536548
C1    C     C_R   0.516471 0.112140 0.746857 0.684524
C2    C     C_R   0.483538 0.887830 0.253148 0.683442
C3    C     C_R   0.983630 0.612143 0.253176 0.683337
C4    C     C_R   0.016307 0.387920 0.746789 0.683967
O13   O     O_R   0.684170 0.139420 0.596190 -0.536669
O14   O     O_R   0.315830 0.860580 0.403810 -0.536323
O15   O     O_R   0.815830 0.639420 0.403810 -0.536364
O16   O     O_R   0.184170 0.360580 0.596190 -0.536265
C5    C     C_R   0.515118 0.113125 0.574438 0.711324
C6    C     C_R   0.484882 0.886875 0.425561 0.711260
C7    C     C_R   0.984907 0.613129 0.425560 0.711244
C8    C     C_R   0.015093 0.386872 0.574440 0.711266
O17   O     O_3   0.520730 0.319480 0.661730 -0.375846
O18   O     O_3   0.479270 0.680520 0.338270 -0.375925
O19   O     O_3   0.979270 0.819480 0.338270 -0.375921
O20   O     O_3   0.020730 0.180520 0.661730 -0.376018
V1    V     V_3+5 0.795560 0.238090 0.661730 1.431875
V2    V     V_3+5 0.204440 0.761910 0.338270 1.431134
V3    V     V_3+5 0.704440 0.738090 0.338270 1.431248
V4    V     V_3+5 0.295560 0.261910 0.661730 1.429686
C9    C     C_R   0.010184 0.466664 0.798207 -0.027568
C10   C     C_R   0.988783 0.533789 0.201548 -0.028001
C11   C     C_R   0.488211 0.966178 0.201491 -0.028097
C12   C     C_R   0.511933 0.033420 0.798363 -0.028692
C13   C     C_R   0.977319 0.652198 0.835830 -0.173703
C14   C     C_R   0.008731 0.347898 0.163519 -0.178334
C15   C     C_R   0.506516 0.152129 0.163402 -0.177696
C16   C     C_R   0.534873 0.847753 0.836891 -0.163995
C17   C     C_R   0.985794 0.578172 0.786225 -0.179335
C18   C     C_R   0.005033 0.421728 0.213286 -0.174991
C19   C     C_R   0.505445 0.078202 0.213166 -0.175323
C20   C     C_R   0.539692 0.921926 0.787270 -0.180228
C21   C     C_R   0.020920 0.428242 0.859666 -0.183144
C22   C     C_R   0.980500 0.572844 0.140182 -0.181563
C23   C     C_R   0.476819 0.927244 0.140153 -0.181805
C24   C     C_R   0.486948 0.071770 0.859260 -0.184759
C25   C     C_R   0.004931 0.500618 0.911297 0.072792
C26   C     C_R   0.987368 0.500350 0.088328 0.076036
C27   C     C_R   0.483186 0.999746 0.088298 0.076158
C28   C     C_R   0.492332 0.999389 0.911205 0.070771
C29   C     C_R   0.991432 0.615452 0.898566 0.046625
C30   C     C_R   0.995247 0.385218 0.100869 0.045783
C31   C     C_R   0.490357 0.114902 0.100790 0.047304
C32   C     C_R   0.506056 0.884493 0.898898 0.049392
C33   C     C_R   0.000386 0.462035 0.974707 -0.006003
C34   C     C_R   0.988884 0.538990 0.024865 -0.007308
C35   C     C_R   0.485165 0.961021 0.024880 -0.007094
C36   C     C_R   0.487203 0.038021 0.974579 -0.005463
C37   C     C_R   0.982446 0.652328 0.010098 -0.140504
C38   C     C_R   0.000946 0.348617 0.989287 -0.140369
C39   C     C_R   0.490419 0.151419 0.989126 -0.140933
C40   C     C_R   0.489983 0.847593 0.010308 -0.145009
C41   C     C_R   0.987251 0.690755 0.948784 0.354314
C42   C     C_R   0.994388 0.310057 0.050529 0.345447
C43   C     C_R   0.487766 0.190051 0.050407 0.346775
C44   C     C_R   0.496733 0.809165 0.949018 0.349099
H1    H     H_    0.969633 0.660620 0.135229 0.091295
H2    H     H_    0.041767 0.341107 0.864986 0.091715
H3    H     H_    0.464403 0.158853 0.863995 0.093386
H4    H     H_    0.462366 0.839637 0.135150 0.091456
H5    H     H_    0.015051 0.391448 0.261018 0.103638
H6    H     H_    0.973411 0.607879 0.738431 0.103671
H7    H     H_    0.563352 0.892234 0.740084 0.104070
H8    H     H_    0.517486 0.108422 0.260860 0.103748
H9    H     H_    0.955163 0.737768 0.824223 0.132299
H10   H     H_    0.026081 0.261885 0.174958 0.131188
H11   H     H_    0.524042 0.238106 0.174838 0.130690
H12   H     H_    0.558744 0.762088 0.826068 0.132341
H13   H     H_    0.976630 0.715549 0.045250 0.138954
H14   H     H_    0.999992 0.285589 0.953913 0.139950
H15   H     H_    0.496683 0.214344 0.953761 0.139812
H16   H     H_    0.489600 0.784433 0.045590 0.139961
C45   C     C_1   0.995390 0.533132 0.478085 -0.177936
C46   C     C_1   0.004610 0.466868 0.521915 -0.177939
C47   C     C_1   0.504644 0.033130 0.521914 -0.177904
C48   C     C_1   0.495358 0.966871 0.478085 -0.177911
O21   O     O_3   0.987506 0.803310 0.940410 -0.638975
H17   H     H_    0.068797 0.821062 0.904680 0.279563
O22   O     O_3   0.988324 0.197515 0.058695 -0.642724
H18   H     H_    0.907551 0.181046 0.094741 0.291146
O23   O     O_3   0.485735 0.302642 0.058552 -0.642500
H19   H     H_    0.407161 0.320095 0.095001 0.290131
O24   O     O_3   0.495210 0.696626 0.940593 -0.639155
H20   H     H_    0.422844 0.679704 0.902122 0.279820

loop_
_geom_bond_atom_site_label_1
_geom_bond_atom_site_label_2
_ccdc_geom_bond_type
C47   C48   T    
C5    C47   S    
O1    C5    A    
O23   H19   S    
O3    V2    S    
C9    C21   A    
O3    C7    A    
O24   H20   S    
C10   C18   A    
O15   V3    S    
C25   C33   A    
C33   C38   A    
C45   C46   T    
C41   O21   S    
C35   C40   A    
C26   C30   A    
C36   C39   A    
C40   C44   A    
O20   V1    S    
O9    C4    A    
C14   C18   A    
O10   C3    A    
O4    C8    A    
O11   C2    A    
O13   V1    S    
C40   H16   S    
C22   H1    S    
C28   C36   A    
C17   H6    S    
C15   C31   A    
O16   C8    A    
C16   C32   A    
O2    C6    A    
C16   H12   S    
C10   C22   A    
C6    C48   S    
C11   C19   A    
C3    C10   S    
O5    C1    A    
O4    V1    S    
O9    V1    S    
C13   C29   A    
C34   C37   A    
O7    C3    A    
C38   H14   S    
C11   C23   A    
C35   C36   A    
O8    C4    A    
O12   V4    S    
O19   V2    S    
O5    V1    S    
C39   C43   A    
C44   O24   S    
O7    V3    S    
C38   C42   A    
O8    V4    S    
C1    C12   S    
C2    C11   S    
C23   C27   A    
C14   H10   S    
C32   C44   A    
C13   H9    S    
O1    V4    S    
O13   C5    A    
C39   H15   S    
O2    V3    S    
C26   C34   A    
C20   H7    S    
O15   C7    A    
C4    C9    S    
O6    C2    A    
O10   V2    S    
C31   C43   A    
C14   C30   A    
C21   C25   A    
O14   V2    S    
O6    V2    S    
C16   C20   A    
C12   C20   A    
C27   C35   A    
C24   H3    S    
O22   H18   S    
C29   C41   A    
O16   V4    S    
C19   H8    S    
C18   H5    S    
C21   H2    S    
O14   C6    A    
O18   V3    S    
C15   C19   A    
C42   O22   S    
C30   C42   A    
C22   C26   A    
C9    C17   A    
C37   H13   S    
C33   C34   A    
O17   V4    S    
C25   C29   A    
C12   C24   A    
C27   C31   A    
C13   C17   A    
C23   H4    S    
O11   V3    S    
C37   C41   A    
C24   C28   A    
O12   C1    A    
C7    C45   S    
C43   O23   S    
O21   H17   S    
C8    C46   S    
C28   C32   A    
C15   H11   S    
