data_mof_unit_61291.cif
_audit_creation_date              2012-12-11T19:34:27-0500
_audit_creation_method            fapswitch 2.2
_symmetry_space_group_name_H-M    P1
_symmetry_Int_Tables_number       1
_space_group_crystal_system       triclinic
_cell_length_a                    8.252465
_cell_length_b                    15.111096
_cell_length_c                    18.761242
_cell_angle_alpha                 98.980066
_cell_angle_beta                  92.908532
_cell_angle_gamma                 98.934931
_cell_volume                      2276.12786114

loop_
_atom_site_label
_atom_site_type_symbol
_atom_type_description
_atom_site_fract_x
_atom_site_fract_y
_atom_site_fract_z
_atom_type_partial_charge
Ba1   Ba    Ba6+2 0.852320 0.543020 0.467270 1.665482
Ba2   Ba    Ba6+2 0.337520 0.457050 0.532740 1.663206
C1    C     C_3   0.683608 0.861487 0.279185 0.155461
C2    C     C_3   0.450424 0.502930 0.242612 -0.008928
C3    C     C_2   0.386106 0.511410 0.166976 -0.126332
C4    C     C_3   0.099717 0.739271 0.274265 0.247479
C5    C     C_2   0.222335 0.493795 0.146673 -0.076773
C6    C     C_2   0.105315 0.471697 0.203021 -0.113023
C7    C     C_1   0.161632 0.469903 0.270553 0.048875
C8    C     C_R   0.049904 0.491985 0.928862 0.476383
C9    C     C_R   0.160727 0.494154 0.069653 0.522264
C10   C     C_R   0.090744 0.527712 0.801591 -0.120391
C11   C     C_R   0.035053 0.519378 0.727926 0.048899
C12   C     C_3   0.680020 0.770659 0.306302 0.346486
C13   C     C_R   0.773940 0.435193 0.752202 0.020005
C14   C     C_R   0.828608 0.443433 0.825413 -0.090512
C15   C     C_R   0.989572 0.487803 0.851083 -0.069181
C16   C     C_3   0.048398 0.770314 0.203675 0.129834
C17   C     C_R   0.880323 0.469341 0.703659 -0.298798
C18   C     C_R   0.855787 0.170319 0.552759 0.000634
C19   C     C_R   0.788695 0.076979 0.546762 -0.029378
C20   C     C_R   0.651615 0.888947 0.530634 -0.032003
C21   C     C_R   0.804341 0.924198 0.569908 -0.035149
C22   C     C_R   0.872699 0.015913 0.576690 -0.108930
C23   C     C_3   0.440798 0.304630 0.309772 0.310910
C24   C     C_R   0.584003 0.794720 0.519042 0.042382
C25   C     C_R   0.428954 0.765014 0.482357 -0.261810
C26   C     C_R   0.611140 0.196550 0.486651 0.017554
C27   C     C_R   0.542767 0.104045 0.479568 -0.034496
C28   C     C_3   0.256273 0.736532 0.629043 0.308476
C29   C     C_R   0.631001 0.043977 0.510111 0.018688
C30   C     C_R   0.387812 0.070060 0.443014 0.002014
C31   C     C_R   0.316536 0.980498 0.439825 -0.015621
C32   C     C_R   0.402689 0.918883 0.467641 -0.020212
C33   C     C_R   0.562370 0.950388 0.502413 0.007218
C34   C     C_3   0.407564 0.267780 0.229270 -0.362743
C35   C     C_R   0.334696 0.826310 0.460163 0.070435
C36   C     C_R   0.762860 0.229001 0.525322 -0.297889
C37   C     C_3   0.313229 0.837784 0.655455 -0.385989
C38   C     C_3   0.947392 0.265585 0.377576 0.293451
C39   C     C_3   0.912551 0.162530 0.356791 -0.371861
C40   C     C_3   0.790839 0.695056 0.692911 0.262065
C41   C     C_3   0.896211 0.761338 0.753999 -0.265559
C42   C     C_2   0.678480 0.624066 0.721682 0.475971
C43   C     C_2   0.260199 0.706000 0.266627 0.502663
C44   C     C_3   0.068063 0.268837 0.726477 0.353894
C45   C     C_3   0.087761 0.245398 0.802002 -0.347198
C46   C     C_3   0.534668 0.213643 0.681731 0.357925
C47   C     C_3   0.494903 0.119326 0.701733 -0.358747
C48   C     C_2   0.316972 0.498871 0.294526 -0.195135
Cl1   Cl    Cl    0.493992 0.902812 0.287974 -0.725161
Cl2   Cl    Cl    0.974093 0.676205 0.133930 -0.666268
H1    H     H_    0.805776 0.766324 0.326529 0.008683
H2    H     H_    0.874117 0.661245 0.657502 -0.022666
H3    H     H_    0.781717 0.913248 0.311162 0.040477
H4    H     H_    0.976620 0.813695 0.730916 0.093495
H5    H     H_    0.974204 0.724747 0.785141 0.097664
H6    H     H_    0.817315 0.796495 0.791375 0.142659
H7    H     H_    0.602947 0.769896 0.352946 0.086028
H8    H     H_    0.323031 0.318919 0.331325 0.019989
H9    H     H_    0.532425 0.368134 0.317295 0.019563
H10   H     H_    0.322268 0.201889 0.220970 0.144400
H11   H     H_    0.349995 0.315983 0.201465 0.052611
H12   H     H_    0.415944 0.848184 0.698085 0.148197
H13   H     H_    0.524657 0.257539 0.205028 0.129448
H14   H     H_    0.708277 0.854715 0.221222 0.117200
H15   H     H_    0.152857 0.814371 0.184898 0.115798
H16   H     H_    0.144625 0.335956 0.725859 0.084936
H17   H     H_    0.936645 0.272993 0.714570 -0.067392
H18   H     H_    0.218691 0.242240 0.816361 0.156732
H19   H     H_    0.047095 0.297993 0.842067 0.067368
H20   H     H_    0.011708 0.178587 0.804189 0.112386
H21   H     H_    0.668143 0.227572 0.674308 -0.071329
H22   H     H_    0.463389 0.213953 0.630006 0.089727
H23   H     H_    0.355982 0.872407 0.610502 0.039432
H24   H     H_    0.527011 0.067953 0.658047 0.065015
H25   H     H_    0.361598 0.102743 0.709120 0.148898
H26   H     H_    0.006393 0.683188 0.284115 0.094888
H27   H     H_    0.566750 0.116423 0.752752 0.116792
H28   H     H_    0.475222 0.525775 0.127951 0.130459
H29   H     H_    0.974333 0.454310 0.187752 0.129663
H30   H     H_    0.211899 0.565500 0.820077 0.134481
H31   H     H_    0.745413 0.415175 0.861952 0.102021
H32   H     H_    0.353498 0.514008 0.352122 0.083922
H33   H     H_    0.837499 0.462743 0.647313 0.061208
H34   H     H_    0.210505 0.869799 0.677806 0.106557
H35   H     H_    0.874530 0.881884 0.595733 0.101492
H36   H     H_    0.991668 0.038307 0.606208 0.099766
H37   H     H_    0.194102 0.960684 0.413579 0.113361
H38   H     H_    0.316568 0.112033 0.417359 0.101843
H39   H     H_    0.376979 0.693587 0.474594 0.087066
H40   H     H_    0.813990 0.300244 0.529844 0.063900
H41   H     H_    0.949642 0.811107 0.212585 0.074756
H42   H     H_    0.361536 0.705898 0.608705 0.017269
H43   H     H_    0.157192 0.727387 0.584986 0.044152
H44   H     H_    0.619084 0.565746 0.683564 0.028864
H45   H     H_    0.836353 0.290204 0.397445 0.011925
H46   H     H_    0.314691 0.698888 0.215011 0.062211
H47   H     H_    0.048466 0.284042 0.421037 0.079951
H48   H     H_    0.804707 0.141764 0.316469 0.158897
H49   H     H_    0.886333 0.130222 0.404911 0.065925
H50   H     H_    0.021374 0.137904 0.333160 0.121065
N1    N     N_R   0.209796 0.524439 0.952669 -0.215174
N2    N     N_R   0.263765 0.525418 0.021265 -0.216366
N3    N     N_R   0.000744 0.462064 0.045937 -0.209128
N4    N     N_R   0.946891 0.460865 0.977298 -0.221502
O1    O     O_2   0.865600 0.448450 0.327030 -0.470778
O2    O     O_2   0.193358 0.176667 0.542295 -0.502978
O3    O     O_3   0.120034 0.201615 0.676552 -0.601268
O4    O     O_3   0.118270 0.449980 0.414460 -0.497300
O5    O     O_3   0.581870 0.610700 0.539390 -0.492485
O6    O     O_2   0.335870 0.275730 0.458590 -0.477784
O7    O     O_3   0.503054 0.239455 0.343714 -0.628819
O8    O     O_2   0.437738 0.445391 0.753305 -0.451940
O9    O     O_3   0.491304 0.277823 0.736971 -0.597781
O10   O     O_3   0.656870 0.615610 0.375490 -0.484196
O11   O     O_2   0.787812 0.564871 0.252471 -0.472719
O12   O     O_3   0.692927 0.743962 0.656507 -0.657976
O13   O     O_3   0.990527 0.302681 0.316116 -0.634556
O14   O     O_3   0.622204 0.697550 0.249695 -0.576824
O15   O     O_2   0.853830 0.724300 0.541460 -0.480400
O16   O     O_3   0.080790 0.663040 0.412350 -0.463570
O17   O     O_2   0.994693 0.824556 0.459067 -0.517966
O18   O     O_2   0.652209 0.630613 0.785664 -0.569939
O19   O     O_2   0.329068 0.684231 0.318332 -0.644479
O20   O     O_3   0.111270 0.813479 0.331068 -0.619281
O21   O     O_2   0.324110 0.551580 0.673010 -0.452267
O22   O     O_3   0.071440 0.550090 0.585550 -0.502102
O23   O     O_3   0.532840 0.384460 0.624520 -0.494811
O24   O     O_3   0.198234 0.696967 0.687254 -0.632829
O25   O     O_3   0.607840 0.389380 0.460620 -0.480126
O26   O     O_3   0.108920 0.337040 0.587660 -0.485729
P1    P     P_3+3 0.033440 0.421460 0.337070 0.983170
P2    P     P_3+3 0.679060 0.710980 0.562120 0.961508
P3    P     P_3+3 0.126621 0.780771 0.417161 0.987874
P4    P     P_3+3 0.156270 0.578610 0.662940 0.986885
P5    P     P_3+3 0.068824 0.220283 0.589126 0.934149
P6    P     P_3+3 0.628149 0.593768 0.280652 1.041094
P7    P     P_3+3 0.517540 0.274702 0.437484 0.944367
P8    P     P_3+3 0.559466 0.386666 0.717961 0.971706

loop_
_geom_bond_atom_site_label_1
_geom_bond_atom_site_label_2
_ccdc_geom_bond_type
C6    C7    D    
C4    C43   S    
C32   C35   A    
O11   P6    D    
Ba1   O22   S    
C38   H47   S    
C16   Cl2   S    
C5    C6    S    
C13   C17   A    
C37   H12   S    
C19   C29   A    
Ba2   O6    S    
C24   C25   A    
O13   P1    S    
C42   H44   S    
C8    N1    A    
C32   C33   A    
C27   C30   A    
C31   H37   S    
C43   H46   S    
O22   P4    S    
O2    P5    D    
C34   H10   S    
C4    H26   S    
C8    C15   S    
C13   C14   A    
C36   H40   S    
Ba2   O23   S    
C39   H50   S    
C44   O3    S    
O3    P5    S    
Ba1   Ba2   S    
Ba1   O16   S    
C44   H17   S    
C41   H6    S    
C1    H3    S    
C30   H38   S    
C43   O19   D    
C14   C15   A    
C10   C15   A    
C9    N3    A    
Ba2   O26   S    
C21   C22   A    
C35   P3    S    
C25   H39   S    
C9    N2    A    
O1    P1    D    
C23   H8    S    
C37   H23   S    
O15   P2    D    
C34   H11   S    
O12   P2    S    
Ba2   O21   S    
O16   P3    S    
C21   H35   S    
O6    P7    D    
C26   P7    S    
C40   C42   S    
Ba1   P1    S    
Ba2   O25   S    
O10   P6    S    
C4    C16   S    
Ba2   O5    S    
C47   H24   S    
C11   C17   A    
C48   H32   S    
C6    H29   S    
C46   H22   S    
O21   P4    D    
C4    O20   S    
C38   H45   S    
C3    C5    D    
C1    Cl1   S    
C34   H13   S    
C40   O12   S    
C17   H33   S    
O26   P5    S    
C28   O24   S    
C42   O18   D    
C14   H31   S    
Ba2   P4    S    
C47   H27   S    
O17   P3    D    
C18   P5    S    
C5    C9    S    
C45   H18   S    
C44   H16   S    
C28   H43   S    
C24   P2    S    
C23   O7    S    
Ba1   O4    S    
C18   C36   A    
C26   C36   A    
C38   O13   S    
O7    P7    S    
C31   C32   A    
C39   H48   S    
C10   H30   S    
C23   H9    S    
C18   C19   A    
C3    H28   S    
C22   H36   S    
C45   H19   S    
C1    C12   S    
Ba1   O1    S    
C46   O9    S    
C38   C39   S    
Ba1   O10   S    
O20   P3    S    
O8    P8    D    
C11   P4    S    
C29   C33   A    
C8    N4    A    
C1    H14   S    
O14   P6    S    
C40   C41   S    
Ba1   P2    S    
C13   P8    S    
C44   C45   S    
C26   C27   A    
C46   H21   S    
O24   P4    S    
C7    C48   D    
C2    C3    S    
Ba1   O25   S    
O5    P2    S    
N3    N4    A    
C12   O14   S    
Ba2   O22   S    
C30   C31   A    
C20   C33   A    
C16   H15   S    
C27   C29   A    
C47   H25   S    
C40   H2    S    
O23   P8    S    
C25   C35   A    
C46   C47   S    
C39   H49   S    
C28   C37   S    
Ba1   O15   S    
C45   H20   S    
O25   P7    S    
C41   H5    S    
C23   C34   S    
C2    P6    S    
C41   H4    S    
C12   H1    S    
C10   C11   A    
C28   H42   S    
C20   C24   A    
C19   C22   A    
C2    C48   S    
N1    N2    A    
C16   H41   S    
C20   C21   A    
O4    P1    S    
C37   H34   S    
C12   H7    S    
O9    P8    S    
Ba1   O5    S    
C7    P1    S    
Ba2   O4    S    
