data_mof_unit_55467.cif
_audit_creation_date              2012-12-10T19:21:30-0500
_audit_creation_method            fapswitch 2.2
_symmetry_space_group_name_H-M    P1
_symmetry_Int_Tables_number       1
_space_group_crystal_system       triclinic
_cell_length_a                    10.92965
_cell_length_b                    15.987819
_cell_length_c                    14.732511
_cell_angle_alpha                 89.898297
_cell_angle_beta                  90.772412
_cell_angle_gamma                 90.105745
_cell_volume                      2574.13536394

loop_
_atom_site_label
_atom_site_type_symbol
_atom_type_description
_atom_site_fract_x
_atom_site_fract_y
_atom_site_fract_z
_atom_type_partial_charge
C1    C     C_R   0.499967 0.340788 0.500067 0.836961
C2    C     C_R   0.499447 0.659172 0.499923 0.783149
C3    C     C_R   0.871903 0.517532 0.501799 -0.253736
C4    C     C_R   0.128639 0.519378 0.498616 -0.251173
C5    C     C_R   0.939998 0.519868 0.584242 -0.156877
C6    C     C_R   0.060664 0.525138 0.416352 -0.159655
C7    C     C_R   0.443434 0.955941 0.571112 -0.180051
C8    C     C_R   0.552761 0.043742 0.428866 -0.176254
C9    C     C_R   0.497327 0.912644 0.499536 0.162747
C10   C     C_R   0.498765 0.087085 0.500358 0.155886
C11   C     C_R   0.552114 0.956492 0.428489 -0.180397
C12   C     C_R   0.444178 0.043228 0.571538 -0.177303
C13   C     C_1   0.497334 0.823229 0.499353 -0.083136
C14   C     C_1   0.499217 0.176566 0.500470 -0.070537
C15   C     C_1   0.499606 0.251643 0.500310 -0.174340
C16   C     C_1   0.498150 0.748208 0.499598 -0.187267
C17   C     C_R   0.473984 0.573277 0.951670 -0.149065
C18   C     C_R   0.529472 0.427178 0.048327 -0.184963
C19   C     C_R   0.500044 0.499997 0.902879 0.051402
C20   C     C_R   0.503106 0.500440 0.097132 0.047899
C21   C     C_R   0.527748 0.426929 0.952420 -0.186153
C22   C     C_R   0.476117 0.573606 0.047541 -0.166334
C23   C     C_R   0.261870 0.506449 0.499382 0.847425
C24   C     C_R   0.738394 0.505340 0.500670 0.846643
C25   C     C_1   0.499648 0.499964 0.802777 0.107892
C26   C     C_1   0.501500 0.500170 0.197224 0.133056
C27   C     C_R   0.212795 0.608012 0.205981 -0.213530
C28   C     C_R   0.839445 0.435195 0.810663 -0.258677
C29   C     C_R   0.176147 0.600964 0.295956 -0.133820
C30   C     C_R   0.882890 0.438607 0.722133 -0.101797
C31   C     C_R   0.117840 0.527952 0.325662 0.123721
C32   C     C_R   0.882835 0.514586 0.674704 0.172191
C33   C     C_R   0.100870 0.461043 0.265354 -0.118491
C34   C     C_R   0.835543 0.586622 0.715584 -0.259436
C35   C     C_R   0.139102 0.466231 0.175144 0.498610
C36   C     C_R   0.790178 0.583414 0.804971 0.500470
C37   C     C_R   0.192345 0.542288 0.145189 -0.253569
C38   C     C_R   0.797103 0.507638 0.852635 -0.162910
C39   C     C_R   0.932795 0.530005 0.418969 0.408078
C40   C     C_R   0.067478 0.527311 0.581946 0.408913
Cu1   Cu    Cu3+1 0.500040 0.500000 0.589220 0.967818
Cu2   Cu    Cu3+1 0.499960 0.500000 0.410780 0.981152
H1    H     H_    0.217225 0.552522 0.075358 0.144570
H2    H     H_    0.767545 0.504634 0.922387 0.168502
H3    H     H_    0.451401 0.630356 0.915600 0.119354
H4    H     H_    0.550526 0.369808 0.084422 0.138979
H5    H     H_    0.254674 0.665416 0.182654 0.147935
H6    H     H_    0.840760 0.376586 0.847491 0.152634
H7    H     H_    0.188880 0.653393 0.341610 0.120247
H8    H     H_    0.919008 0.382594 0.691208 0.133378
H9    H     H_    0.054641 0.404946 0.288182 0.148009
H10   H     H_    0.837329 0.644837 0.678174 0.109030
H11   H     H_    0.402321 0.076441 0.627107 0.136188
H12   H     H_    0.594208 0.923348 0.373015 0.135678
H13   H     H_    0.401140 0.922296 0.626398 0.135635
H14   H     H_    0.595196 0.077343 0.373609 0.138712
H15   H     H_    0.455330 0.631004 0.083027 0.126761
H16   H     H_    0.548410 0.369539 0.916871 0.136891
N1    N     N_1   0.500040 0.499980 0.276710 -0.154060
N2    N     N_1   0.499960 0.500020 0.723290 -0.162353
O1    O     O_R   0.500060 0.380310 0.575320 -0.567413
O2    O     O_R   0.499940 0.619690 0.424680 -0.587187
O3    O     O_R   0.500000 0.380310 0.424640 -0.568363
O4    O     O_R   0.500000 0.619690 0.575360 -0.601920
O5    O     O_R   0.319670 0.500010 0.575340 -0.530567
O6    O     O_R   0.680330 0.499990 0.424660 -0.530209
O7    O     O_R   0.319610 0.500010 0.424650 -0.579179
O8    O     O_R   0.680390 0.499990 0.575350 -0.582027
O9    O     O_3   0.113129 0.397122 0.120298 -0.621895
C41   C     C_3   0.179009 0.394055 0.038438 0.051145
H17   H     H_    0.196907 0.327161 0.023371 0.163569
H18   H     H_    0.271102 0.423274 0.043258 0.149370
C42   C     C_3   0.101159 0.429632 0.960344 -0.371969
H19   H     H_    0.021249 0.387820 0.948825 0.224741
H20   H     H_    0.065975 0.492589 0.977971 0.223953
C43   C     C_3   0.174062 0.436027 0.873169 -0.859345
H21   H     H_    0.246543 0.484190 0.880739 0.257362
H22   H     H_    0.112351 0.454905 0.816577 0.293375
H23   H     H_    0.216037 0.374881 0.856273 0.251018
O10   O     O_3   0.748415 0.653239 0.851447 -0.623058
C44   C     C_3   0.676261 0.707245 0.796394 0.049486
H24   H     H_    0.592904 0.723273 0.834896 0.154425
H25   H     H_    0.642135 0.678378 0.731952 0.151238
C45   C     C_3   0.746427 0.788487 0.778485 -0.354376
H26   H     H_    0.760906 0.822211 0.843677 0.226030
H27   H     H_    0.837700 0.774455 0.750067 0.211698
C46   C     C_3   0.676569 0.844918 0.712381 -0.910259
H28   H     H_    0.668372 0.813989 0.645224 0.262996
H29   H     H_    0.726853 0.904756 0.703829 0.259891
H30   H     H_    0.583794 0.858702 0.738305 0.251720
O11   O     O_3   0.866912 0.541954 0.338732 -0.582631
C47   C     C_3   0.872514 0.627117 0.311554 0.051624
H31   H     H_    0.893215 0.628605 0.237924 0.174425
H32   H     H_    0.945327 0.664538 0.346739 0.113548
C48   C     C_3   0.749162 0.669239 0.326512 -0.286878
H33   H     H_    0.675874 0.632539 0.291948 0.249443
H34   H     H_    0.730959 0.671119 0.400440 0.203284
C49   C     C_3   0.747450 0.758394 0.289549 -0.956331
H35   H     H_    0.817645 0.797155 0.325000 0.255820
H36   H     H_    0.656044 0.786376 0.300864 0.259377
H37   H     H_    0.765391 0.758467 0.215512 0.261188
O12   O     O_3   0.132877 0.536683 0.662720 -0.593344
C50   C     C_3   0.127930 0.621004 0.692608 0.036094
H38   H     H_    0.103703 0.620373 0.765628 0.169656
H39   H     H_    0.057923 0.660194 0.656681 0.113950
C51   C     C_3   0.252967 0.662564 0.682410 -0.279580
H40   H     H_    0.324032 0.623640 0.716427 0.241949
H41   H     H_    0.273871 0.667752 0.609095 0.209670
C52   C     C_3   0.255816 0.749865 0.723977 -0.979530
H42   H     H_    0.186805 0.790664 0.690102 0.259879
H43   H     H_    0.347915 0.777882 0.714815 0.257233
H44   H     H_    0.236805 0.746483 0.797774 0.256272

loop_
_geom_bond_atom_site_label_1
_geom_bond_atom_site_label_2
_ccdc_geom_bond_type
C46   H28   S    
C27   C29   A    
C18   C21   A    
C42   H19   S    
C48   H33   S    
C43   H23   S    
C7    H13   S    
C8    H14   S    
C22   H15   S    
C44   H24   S    
C48   C49   S    
C29   H7    S    
C20   C26   S    
C35   C37   A    
C17   H3    S    
C52   H43   S    
C51   H40   S    
C18   H4    S    
Cu1   Cu2   S    
C23   O7    A    
C9    C13   S    
C33   C35   A    
C4    C40   A    
C45   C46   S    
C41   H17   S    
C1    C15   S    
C25   N2    T    
Cu1   O1    S    
C2    C16   S    
C26   N1    T    
Cu2   O2    S    
C18   C20   A    
C12   H11   S    
C24   O6    A    
C5    C32   S    
C6    C31   S    
C30   H8    S    
C3    C39   A    
C42   H20   S    
C3    C24   S    
O9    C41   S    
C1    O3    A    
C39   O11   S    
C44   H25   S    
C2    O4    A    
Cu1   O8    S    
C7    C12   A    
C45   H26   S    
C4    C6    A    
C36   O10   S    
C52   H44   S    
O11   C47   S    
C4    C23   S    
Cu1   O5    S    
C47   C48   S    
C32   C34   A    
C37   H1    S    
C38   H2    S    
C28   C38   A    
C41   C42   S    
C31   C33   A    
C50   H39   S    
C43   H21   S    
C9    C11   A    
C11   H12   S    
C10   C12   A    
C20   C22   A    
C49   H36   S    
C46   H29   S    
C10   C14   S    
Cu2   O7    S    
C42   C43   S    
C46   H30   S    
C44   C45   S    
C27   H5    S    
C7    C9    A    
C28   H6    S    
C19   C21   A    
C6    C39   A    
Cu1   N2    S    
C43   H22   S    
O10   C44   S    
C3    C5    A    
C1    O1    A    
Cu2   N1    S    
C48   H34   S    
C33   H9    S    
C49   H37   S    
C34   H10   S    
C17   C22   A    
C23   O5    A    
C36   C38   A    
C21   H16   S    
C29   C31   A    
C52   H42   S    
C30   C32   A    
C47   H32   S    
C51   H41   S    
C27   C37   A    
C8    C11   A    
C28   C30   A    
C47   H31   S    
C17   C19   A    
C50   C51   S    
C34   C36   A    
O12   C50   S    
C19   C25   S    
C24   O8    A    
C40   O12   S    
C35   O9    S    
C8    C10   A    
C49   H35   S    
C13   C16   T    
C50   H38   S    
Cu2   O6    S    
C14   C15   T    
C45   H27   S    
C41   H18   S    
Cu1   O4    S    
C5    C40   A    
Cu2   O3    S    
C2    O2    A    
C51   C52   S    
