data_mof_unit_21102.cif
_audit_creation_date              2012-10-26T19:03:29-0400
_audit_creation_method            fapswitch 2.2
_symmetry_space_group_name_H-M    P1
_symmetry_Int_Tables_number       1
_space_group_crystal_system       triclinic
_cell_length_a                    10.779627
_cell_length_b                    12.999859
_cell_length_c                    11.674057
_cell_angle_alpha                 99.847238
_cell_angle_beta                  93.643398
_cell_angle_gamma                 90.303464
_cell_volume                      1608.35118999

loop_
_atom_site_label
_atom_site_type_symbol
_atom_type_description
_atom_site_fract_x
_atom_site_fract_y
_atom_site_fract_z
_atom_type_partial_charge
C1    C     C_R   0.498406 0.299072 0.478648 0.530555
C2    C     C_R   0.490612 0.123189 0.355341 -0.128742
C3    C     C_R   0.505440 0.139395 0.566315 -0.137964
C4    C     C_R   0.262441 0.496536 0.500080 0.540163
C5    C     C_R   0.505283 0.031353 0.555975 0.044492
C6    C     C_R   0.497640 0.968718 0.444083 0.050155
C7    C     C_R   0.496979 0.860677 0.433739 -0.112537
C8    C     C_R   0.511724 0.876856 0.644715 -0.122478
C9    C     C_R   0.512498 0.984990 0.655774 -0.132434
C10   C     C_R   0.389343 0.398578 0.021403 -0.159046
C11   C     C_R   0.398685 0.408275 0.143354 0.052595
C12   C     C_R   0.068725 0.415801 0.554660 0.029086
C13   C     C_R   0.547610 0.545251 0.158277 0.085460
C14   C     C_R   0.541808 0.538944 0.035000 -0.002970
C15   C     C_R   0.460985 0.463817 0.966212 -0.031597
C16   C     C_R   0.502059 0.700936 0.521359 0.555934
C17   C     C_R   0.453370 0.455576 0.843457 0.030603
C18   C     C_R   0.601666 0.592391 0.855067 0.071053
C19   C     C_R   0.613287 0.604430 0.977815 0.219636
C20   C     C_R   0.737411 0.496080 0.499139 0.543291
C21   C     C_R   0.135605 0.340479 0.606669 -0.105860
C22   C     C_R   0.073716 0.267641 0.658212 -0.118706
C23   C     C_R   0.128689 0.489520 0.499785 0.001563
C24   C     C_R   0.944622 0.267024 0.657155 -0.109859
C25   C     C_R   0.876612 0.339276 0.604594 -0.093852
C26   C     C_R   0.937445 0.415170 0.553541 0.029692
C27   C     C_R   0.060209 0.557127 0.440426 -0.137408
C28   C     C_R   0.932220 0.556476 0.439265 -0.133767
C29   C     C_R   0.870857 0.488266 0.497561 0.003000
C30   C     C_R   0.503671 0.814363 0.533715 -0.002597
C31   C     C_R   0.498038 0.185681 0.466328 -0.002201
C32   C     C_R   0.490487 0.015067 0.344280 -0.117740
Cu1   Cu    Cu3+1 0.509250 0.507730 0.615930 0.939585
Cu2   Cu    Cu3+1 0.490750 0.492270 0.384070 0.958354
H1    H     H_    0.106402 0.612337 0.396825 0.145016
H2    H     H_    0.235584 0.335399 0.606136 0.126203
H3    H     H_    0.126114 0.210490 0.697702 0.113492
H4    H     H_    0.896812 0.209371 0.695802 0.121617
H5    H     H_    0.776432 0.333309 0.602480 0.139758
H6    H     H_    0.880798 0.611388 0.395142 0.161003
H7    H     H_    0.490986 0.812891 0.347725 0.157713
H8    H     H_    0.517222 0.842301 0.722955 0.151798
H9    H     H_    0.484679 0.967846 0.258024 0.146056
H10   H     H_    0.840930 0.819369 0.013931 0.376505
H11   H     H_    0.518527 0.032207 0.742029 0.113105
H12   H     H_    0.484914 0.157737 0.277104 0.135785
H13   H     H_    0.511209 0.187192 0.652327 0.117975
H14   H     H_    0.391228 0.398289 0.790321 0.121852
H15   H     H_    0.655496 0.641858 0.810592 0.184296
H16   H     H_    0.326515 0.340316 0.970611 0.094674
H17   H     H_    0.343264 0.357499 0.184911 0.129457
H18   H     H_    0.608603 0.601169 0.214155 0.194335
N1    N     N_R   0.523180 0.519350 0.790130 -0.270263
N2    N     N_R   0.476820 0.480650 0.209890 -0.247306
O1    O     O_R   0.506570 0.354460 0.582000 -0.527909
O2    O     O_2   0.814221 0.651477 0.124372 -0.298548
O3    O     O_3   0.786425 0.766408 0.963263 -0.538350
O4    O     O_R   0.490940 0.341410 0.386200 -0.508575
O5    O     O_R   0.327470 0.506530 0.597920 -0.500192
O6    O     O_R   0.311840 0.493480 0.402120 -0.500702
O7    O     O_R   0.509060 0.658590 0.613800 -0.504073
O8    O     O_R   0.493430 0.645540 0.418000 -0.508378
O9    O     O_R   0.688160 0.506520 0.597880 -0.505127
O10   O     O_R   0.672530 0.493470 0.402080 -0.496274
O11   O     O_2   0.645523 0.777886 0.137400 -0.324810
S1    S     S_3+6 0.716798 0.701882 0.055448 -0.035593

loop_
_geom_bond_atom_site_label_1
_geom_bond_atom_site_label_2
_ccdc_geom_bond_type
Cu1   O1    S    
C6    C32   A    
C1    O4    A    
C9    H11   S    
C6    C7    A    
C23   C27   A    
C8    C9    A    
C13   H18   S    
C13   N2    A    
H10   O3    S    
C24   H4    S    
C17   H14   S    
Cu2   O8    S    
O3    S1    S    
Cu1   O9    S    
C8    C30   A    
C20   O10   A    
C4    O6    A    
C20   O9    A    
Cu2   O10   S    
Cu1   Cu2   S    
C1    O1    A    
Cu1   O5    S    
C21   H2    S    
C21   C22   A    
C25   H5    S    
C3    C31   A    
Cu2   O6    S    
C12   C23   A    
C5    C9    A    
C11   N2    A    
C16   O8    A    
C19   S1    S    
O2    S1    D    
C2    C32   A    
C12   C21   A    
C4    O5    A    
C3    H13   S    
C28   C29   A    
C25   C26   A    
C32   H9    S    
C8    H8    S    
Cu2   N2    S    
C20   C29   S    
C7    H7    S    
Cu1   N1    S    
C5    C6    A    
Cu2   O4    S    
C22   C24   A    
C11   H17   S    
C10   C11   A    
C28   H6    S    
C16   C30   S    
C10   H16   S    
C17   N1    A    
C1    C31   S    
C24   C25   A    
C26   C29   A    
Cu1   O7    S    
O11   S1    D    
C16   O7    A    
C27   C28   A    
C15   C17   A    
C4    C23   S    
C14   C15   A    
C18   C19   A    
C18   N1    A    
C27   H1    S    
C10   C15   A    
C13   C14   A    
C22   H3    S    
C14   C19   A    
C2    H12   S    
C18   H15   S    
C12   C26   A    
C2    C31   A    
C3    C5    A    
C7    C30   A    
