data_mof_unit_41467.cif
_audit_creation_date              2012-12-10T19:45:19-0500
_audit_creation_method            fapswitch 2.2
_symmetry_space_group_name_H-M    P1
_symmetry_Int_Tables_number       1
_space_group_crystal_system       triclinic
_cell_length_a                    14.760754
_cell_length_b                    14.202635
_cell_length_c                    10.711784
_cell_angle_alpha                 89.843331
_cell_angle_beta                  91.204001
_cell_angle_gamma                 89.469143
_cell_volume                      2245.03375607

loop_
_atom_site_label
_atom_site_type_symbol
_atom_type_description
_atom_site_fract_x
_atom_site_fract_y
_atom_site_fract_z
_atom_type_partial_charge
C1    C     C_R   0.327452 0.500098 0.497345 0.908179
C2    C     C_R   0.577073 0.893517 0.546435 0.241544
C3    C     C_R   0.425794 0.896824 0.455371 0.235996
C4    C     C_R   0.571341 0.794093 0.554360 0.387765
C5    C     C_R   0.428798 0.797281 0.447860 0.392846
C6    C     C_R   0.502121 0.946797 0.499912 -0.169391
C7    C     C_R   0.503006 0.500068 0.262687 0.913743
C8    C     C_R   0.499327 0.499795 0.737486 0.914463
C9    C     C_2   0.518726 0.422302 0.933578 -0.163459
C10   C     C_2   0.513569 0.420690 0.067500 -0.160045
C11   C     C_2   0.494291 0.499306 0.869165 -0.338146
C12   C     C_R   0.672855 0.499545 0.496401 0.900247
C13   C     C_2   0.515204 0.500798 0.131971 -0.348420
C14   C     C_R   0.101480 0.548721 0.353344 0.477369
C15   C     C_R   0.911443 0.577787 0.464270 0.463802
C16   C     C_R   0.192783 0.556351 0.383612 -0.307264
C17   C     C_R   0.819583 0.579512 0.488712 -0.335893
C18   C     C_R   0.231602 0.498377 0.475768 -0.163298
C19   C     C_R   0.768521 0.498061 0.472011 -0.177053
C20   C     C_R   0.180989 0.430143 0.535533 -0.353171
C21   C     C_R   0.807418 0.416631 0.421862 -0.309808
C22   C     C_R   0.088448 0.425264 0.512008 0.485238
C23   C     C_R   0.048628 0.485638 0.421587 -0.064726
C24   C     C_R   0.898049 0.415385 0.391067 0.506842
C25   C     C_3   0.638216 0.749234 0.739342 0.131381
C26   C     C_3   0.704446 0.677131 0.797000 -0.336675
C27   C     C_3   0.704554 0.680575 0.939336 -0.982329
C28   C     C_3   0.354262 0.756541 0.265329 0.144593
C29   C     C_3   0.261816 0.794455 0.219079 -0.332402
C30   C     C_3   0.246885 0.776753 0.079676 -0.989038
C31   C     C_3   0.051821 0.562629 0.151888 0.060347
C32   C     C_3   0.989963 0.621568 0.065649 -0.271890
C33   C     C_3   0.970565 0.571116 0.942564 -1.046225
C34   C     C_R   0.950858 0.494663 0.417827 -0.063980
C35   C     C_3   0.985453 0.667397 0.609351 0.071612
C36   C     C_3   0.053728 0.746976 0.624231 -0.297125
C37   C     C_3   0.083723 0.759438 0.760348 -0.995345
C38   C     C_3   0.032716 0.381134 0.703071 0.056054
C39   C     C_3   0.062402 0.294380 0.778687 -0.292920
C40   C     C_3   0.050469 0.309950 0.918201 -1.021122
C41   C     C_3   0.919123 0.324176 0.217442 0.073602
C42   C     C_3   0.861252 0.237220 0.191472 -0.358685
C43   C     C_3   0.908646 0.146530 0.234870 -0.787052
C44   C     C_3   0.330994 0.265790 0.316622 0.150554
C45   C     C_R   0.466726 0.105133 0.397573 -0.322271
C46   C     C_3   0.277311 0.202687 0.226995 -0.425409
C47   C     C_3   0.175679 0.222212 0.234707 -0.936327
C48   C     C_3   0.671497 0.259009 0.683388 0.130043
C49   C     C_3   0.721755 0.193453 0.775492 -0.406185
C50   C     C_3   0.823702 0.209999 0.774203 -0.958378
C51   C     C_3   0.713148 0.956989 0.491562 0.104073
C52   C     C_3   0.784298 0.878246 0.480114 -0.308951
C53   C     C_3   0.859152 0.905599 0.391293 -0.975648
C54   C     C_3   0.288943 0.951318 0.518320 0.108464
C55   C     C_3   0.213362 0.021861 0.485230 -0.341204
C56   C     C_R   0.536746 0.104455 0.601559 -0.340627
C57   C     C_3   0.145376 0.030902 0.589966 -0.975722
C58   C     C_R   0.462571 0.204223 0.401234 0.493722
C59   C     C_R   0.538895 0.203610 0.598107 0.510578
C60   C     C_R   0.502250 0.053301 0.499560 0.109530
H1    H     H_    0.233879 0.605221 0.332859 0.187279
H2    H     H_    0.773914 0.691658 0.764447 0.202973
H3    H     H_    0.726924 0.750776 0.972692 0.264678
H4    H     H_    0.751976 0.626206 0.977881 0.274271
H5    H     H_    0.635663 0.666430 0.974068 0.261742
H6    H     H_    0.364469 0.684502 0.227738 0.152469
H7    H     H_    0.408653 0.801363 0.225882 0.100513
H8    H     H_    0.206503 0.760464 0.270935 0.251140
H9    H     H_    0.257499 0.871352 0.236391 0.247379
H10   H     H_    0.301035 0.810640 0.025374 0.262240
H11   H     H_    0.180362 0.806846 0.048909 0.275455
H12   H     H_    0.789082 0.643718 0.523177 0.206784
H13   H     H_    0.246782 0.699925 0.060387 0.262491
H14   H     H_    0.468047 0.562884 0.911517 0.141244
H15   H     H_    0.527892 0.568769 0.090007 0.143415
H16   H     H_    0.020436 0.492226 0.163784 0.120032
H17   H     H_    0.118988 0.553468 0.107800 0.132573
H18   H     H_    0.924738 0.635531 0.112597 0.230646
H19   H     H_    0.022619 0.690153 0.046335 0.225827
H20   H     H_    0.034759 0.556989 0.893602 0.264339
H21   H     H_    0.926105 0.616043 0.881961 0.268471
H22   H     H_    0.935527 0.503558 0.959599 0.265354
H23   H     H_    0.212819 0.382371 0.602624 0.169334
H24   H     H_    0.016981 0.601331 0.647232 0.124220
H25   H     H_    0.924100 0.685245 0.663380 0.126701
H26   H     H_    0.114208 0.731229 0.567439 0.239806
H27   H     H_    0.022357 0.813729 0.589388 0.221859
H28   H     H_    0.024417 0.775825 0.818886 0.271781
H29   H     H_    0.132333 0.818456 0.767788 0.265228
H30   H     H_    0.117847 0.694393 0.795883 0.273216
H31   H     H_    0.961241 0.398952 0.724456 0.160104
H32   H     H_    0.074640 0.442345 0.733426 0.111966
H33   H     H_    0.021624 0.232782 0.748623 0.238827
H34   H     H_    0.767701 0.353906 0.406133 0.171695
H35   H     H_    0.134808 0.278313 0.760914 0.212058
H36   H     H_    0.092742 0.369563 0.951349 0.266821
H37   H     H_    0.071560 0.245391 0.970111 0.271903
H38   H     H_    0.978281 0.325218 0.937942 0.257244
H39   H     H_    0.984879 0.315522 0.170357 0.163068
H40   H     H_    0.884842 0.386640 0.172782 0.071545
H41   H     H_    0.795414 0.244366 0.238987 0.205167
H42   H     H_    0.847009 0.232576 0.089352 0.181017
H43   H     H_    0.973796 0.137219 0.186286 0.244102
H44   H     H_    0.864748 0.085591 0.212422 0.225535
H45   H     H_    0.540520 0.358170 0.887833 0.213758
H46   H     H_    0.921632 0.147819 0.337365 0.285655
H47   H     H_    0.441894 0.069242 0.314897 0.200155
H48   H     H_    0.561867 0.068044 0.684241 0.199581
H49   H     H_    0.314544 0.340214 0.292432 0.175092
H50   H     H_    0.308108 0.254327 0.414340 0.124007
H51   H     H_    0.299129 0.215688 0.129801 0.239201
H52   H     H_    0.290929 0.127579 0.250222 0.232129
H53   H     H_    0.138610 0.174299 0.170373 0.257940
H54   H     H_    0.151972 0.209940 0.331097 0.286446
H55   H     H_    0.159995 0.296155 0.207113 0.261251
H56   H     H_    0.507745 0.352514 0.112664 0.211228
H57   H     H_    0.690273 0.332692 0.706051 0.169793
H58   H     H_    0.695009 0.245375 0.586431 0.119782
H59   H     H_    0.696977 0.206100 0.871356 0.229010
H60   H     H_    0.708535 0.118985 0.750349 0.235749
H61   H     H_    0.850238 0.196844 0.679461 0.278236
H62   H     H_    0.858491 0.161380 0.841349 0.268878
H63   H     H_    0.838900 0.283528 0.802060 0.259436
H64   H     H_    0.748335 0.023838 0.514214 0.161518
H65   H     H_    0.677180 0.968778 0.399971 0.118358
H66   H     H_    0.815040 0.862438 0.573580 0.236981
H67   H     H_    0.568872 0.734361 0.773345 0.130143
H68   H     H_    0.751322 0.813561 0.444049 0.239905
H69   H     H_    0.830090 0.920519 0.296752 0.259184
H70   H     H_    0.908714 0.846641 0.384340 0.303249
H71   H     H_    0.895311 0.968743 0.426544 0.262973
H72   H     H_    0.324665 0.976432 0.604736 0.132271
H73   H     H_    0.258529 0.881280 0.536669 0.168275
H74   H     H_    0.243675 0.091904 0.468375 0.226025
H75   H     H_    0.177355 0.999118 0.398388 0.228823
H76   H     H_    0.112963 0.962081 0.607680 0.266895
H77   H     H_    0.091849 0.082918 0.562658 0.277010
H78   H     H_    0.658595 0.820689 0.770784 0.166721
H79   H     H_    0.179689 0.055526 0.677066 0.263076
H80   H     H_    0.685409 0.605247 0.765907 0.226947
N1    N     N_R   0.500000 0.252470 0.500000 -0.171586
N2    N     N_R   0.500000 0.747550 0.500000 -0.201352
O1    O     O_R   0.369060 0.579480 0.500010 -0.561619
O2    O     O_3   0.355539 0.749705 0.397488 -0.608743
O3    O     O_3   0.062562 0.610004 0.266830 -0.608160
O4    O     O_3   0.962392 0.658157 0.481521 -0.609084
O5    O     O_3   0.036616 0.359950 0.574175 -0.611696
O6    O     O_3   0.937290 0.333433 0.347213 -0.586672
O7    O     O_3   0.425222 0.252400 0.300378 -0.640885
O8    O     O_3   0.576677 0.251415 0.697846 -0.642268
O9    O     O_3   0.654431 0.937608 0.591077 -0.648914
O10   O     O_3   0.348297 0.944942 0.416878 -0.643607
O11   O     O_R   0.630940 0.579480 0.499990 -0.560875
O12   O     O_R   0.369050 0.420520 0.500010 -0.642387
O13   O     O_R   0.630950 0.420520 0.499990 -0.645354
O14   O     O_R   0.500000 0.579460 0.319080 -0.633431
O15   O     O_R   0.500000 0.579460 0.680920 -0.624189
O16   O     O_R   0.499990 0.420500 0.319080 -0.574451
O17   O     O_R   0.500010 0.420500 0.680920 -0.569947
O18   O     O_3   0.641811 0.742657 0.608016 -0.613645
Zn1   Zn    Zn3+2 0.500000 0.606140 0.500000 0.982026
Zn2   Zn    Zn3+2 0.500000 0.393860 0.500000 0.970241

loop_
_geom_bond_atom_site_label_1
_geom_bond_atom_site_label_2
_ccdc_geom_bond_type
C47   H54   S    
C5    N2    A    
C45   C60   A    
C46   H52   S    
C41   C42   S    
C37   H28   S    
C2    C4    A    
C35   C36   S    
C50   H62   S    
C12   O11   A    
C3    C6    A    
N2    Zn1   S    
C30   H11   S    
C52   H68   S    
C7    O16   A    
C4    O18   S    
C47   H55   S    
C14   O3    S    
C3    O10   S    
C37   H30   S    
C1    O1    A    
C36   C37   S    
C19   C21   A    
C48   O8    S    
C4    N2    A    
C38   C39   S    
C49   H60   S    
C21   H34   S    
C9    H45   S    
C38   H32   S    
C57   H79   S    
C15   C17   A    
C43   H44   S    
C56   H48   S    
C46   C47   S    
C39   H33   S    
C7    O14   A    
C13   H15   S    
C41   H39   S    
C57   H76   S    
C53   H71   S    
C9    C10   S    
C15   C34   A    
C58   O7    S    
C44   H49   S    
C51   O9    S    
N1    Zn2   S    
C36   H27   S    
C46   H51   S    
C51   H64   S    
C2    C6    A    
C50   H61   S    
C40   H36   S    
C8    O15   A    
C42   H42   S    
C30   H10   S    
C44   C46   S    
C31   H17   S    
C29   H9    S    
O13   Zn2   S    
C45   C58   A    
C41   H40   S    
C51   C52   S    
C51   H65   S    
C6    C60   S    
C28   H7    S    
C24   O6    S    
C40   H37   S    
C30   H13   S    
C52   H66   S    
C5    O2    S    
C48   H58   S    
C36   H26   S    
C25   C26   S    
C54   H73   S    
C38   H31   S    
C11   H14   S    
C24   C34   A    
C56   C60   A    
O11   Zn1   S    
C35   O4    S    
C14   C23   A    
C28   H6    S    
C29   C30   S    
C27   H5    S    
C29   H8    S    
C31   C32   S    
C23   C34   S    
C25   O18   S    
C1    C18   S    
O17   Zn2   S    
C57   H77   S    
C9    C11   D    
C39   H35   S    
C27   H3    S    
C28   O2    S    
C48   C49   S    
C20   C22   A    
O14   Zn1   S    
C55   C57   S    
C26   C27   S    
C14   C16   A    
C21   C24   A    
C53   H69   S    
C42   C43   S    
C12   O13   A    
C42   H41   S    
O15   Zn1   S    
C39   C40   S    
C10   H56   S    
C52   C53   S    
C33   H22   S    
C59   O8    S    
C2    O9    S    
C47   H53   S    
C54   C55   S    
C28   C29   S    
O12   Zn2   S    
C50   H63   S    
C3    C5    A    
C10   C13   D    
C15   O4    S    
C54   O10   S    
C35   H24   S    
C33   H20   S    
C48   H57   S    
C55   H74   S    
C54   H72   S    
C26   H80   S    
C44   O7    S    
C56   C59   A    
C37   H29   S    
C32   C33   S    
C25   H78   S    
C26   H2    S    
C32   H19   S    
C40   H38   S    
C35   H25   S    
C58   N1    A    
C31   H16   S    
C49   H59   S    
C41   O6    S    
C8    C11   S    
C55   H75   S    
C12   C19   S    
C17   C19   A    
O1    Zn1   S    
C18   C20   A    
C25   H67   S    
C1    O12   A    
C43   H43   S    
C38   O5    S    
C27   H4    S    
O16   Zn2   S    
C32   H18   S    
C31   O3    S    
C7    C13   S    
C22   O5    S    
C59   N1    A    
C17   H12   S    
C16   C18   A    
C49   C50   S    
C16   H1    S    
C20   H23   S    
C22   C23   A    
C53   H70   S    
C8    O17   A    
C33   H21   S    
C43   H46   S    
C45   H47   S    
C44   H50   S    
