data_mof_unit_60341.cif
_audit_creation_date              2012-12-10T19:26:29-0500
_audit_creation_method            fapswitch 2.2
_symmetry_space_group_name_H-M    P1
_symmetry_Int_Tables_number       1
_space_group_crystal_system       triclinic
_cell_length_a                    18.539581
_cell_length_b                    18.686699
_cell_length_c                    19.079632
_cell_angle_alpha                 109.956149
_cell_angle_beta                  109.825659
_cell_angle_gamma                 108.788537
_cell_volume                      5078.05615359

loop_
_atom_site_label
_atom_site_type_symbol
_atom_type_description
_atom_site_fract_x
_atom_site_fract_y
_atom_site_fract_z
_atom_type_partial_charge
C1    C     C_R   0.116850 0.996197 0.619178 0.940907
C2    C     C_R   0.237187 0.998316 0.821831 0.314877
C3    C     C_R   0.310582 0.997913 0.815072 -0.159640
C4    C     C_R   0.121808 0.120280 0.502252 0.840758
C5    C     C_R   0.314496 0.989047 0.741121 -0.116504
C6    C     C_3   0.321573 0.918618 0.680720 0.139192
C7    C     C_3   0.242110 0.905721 0.607656 0.689516
C8    C     C_R   0.748389 0.737654 0.426509 0.058542
C9    C     C_R   0.816879 0.814035 0.501946 -0.056191
C10   C     C_R   0.821890 0.825530 0.580724 -0.126571
C11   C     C_R   0.758159 0.760105 0.580903 -0.190089
C12   C     C_R   0.268384 0.184967 0.516887 0.044936
C13   C     C_R   0.687836 0.685050 0.502079 -0.075815
C14   C     C_R   0.685687 0.676560 0.426485 0.070543
C15   C     C_3   0.635867 0.618629 0.330949 0.255021
C16   C     C_R   0.878072 0.998951 0.380707 0.934897
C17   C     C_3   0.707420 0.689341 0.330784 -0.481515
C18   C     C_R   0.828887 0.021199 0.259296 -0.014659
C19   C     C_R   0.811986 0.002217 0.318098 -0.204599
C20   C     C_R   0.738456 0.001956 0.325096 0.373065
C21   C     C_R   0.676934 0.010066 0.264881 0.080550
C22   C     C_R   0.688209 0.012570 0.195670 -0.089310
C23   C     C_R   0.190548 0.187063 0.505887 -0.118363
C24   C     C_R   0.767353 0.024783 0.198202 -0.008979
C25   C     C_3   0.788248 0.984567 0.130516 0.208288
C26   C     C_3   0.856791 0.980219 0.198936 -0.060407
C27   C     C_R   0.498311 0.618829 0.619187 0.926237
C28   C     C_R   0.880298 0.879810 0.500062 0.905267
C29   C     C_R   0.378884 0.377676 0.497363 0.893243
C30   C     C_R   0.505073 0.384265 0.380801 0.960385
C31   C     C_R   0.620581 0.619408 0.500138 0.884375
C32   C     C_R   0.500869 0.120227 0.120509 0.927529
C33   C     C_R   0.379094 0.999786 0.880513 0.953595
C34   C     C_R   0.174237 0.249744 0.491861 -0.179526
C35   C     C_R   0.500419 0.879674 0.880702 0.971348
C36   C     C_R   0.620604 0.003223 0.122595 0.953694
C37   C     C_R   0.515649 0.762792 0.691845 -0.040162
C38   C     C_R   0.494220 0.681170 0.683333 -0.150906
C39   C     C_R   0.473664 0.663862 0.742652 0.373270
C40   C     C_R   0.293120 0.133137 0.547933 -0.112680
C41   C     C_R   0.475531 0.729634 0.808137 -0.147557
C42   C     C_R   0.500290 0.812833 0.815841 -0.093614
C43   C     C_R   0.521706 0.826990 0.757211 0.005110
C44   C     C_3   0.548522 0.892532 0.730118 0.206505
C45   C     C_R   0.235167 0.312232 0.488015 0.149868
C46   C     C_3   0.541616 0.818294 0.654610 0.408725
C47   C     C_R   0.430304 0.256177 0.239001 -0.099353
C48   C     C_R   0.508279 0.319101 0.316756 -0.178045
C49   C     C_R   0.585411 0.311808 0.333884 0.363947
C50   C     C_R   0.583191 0.244535 0.269440 0.301878
C51   C     C_R   0.504505 0.186063 0.189288 -0.194035
C52   C     C_R   0.368425 0.128899 0.554252 -0.107764
C53   C     C_R   0.427940 0.189890 0.176992 -0.017924
C54   C     C_3   0.360114 0.188267 0.104801 -0.111821
C55   C     C_3   0.363153 0.262890 0.174352 0.304184
C56   C     C_R   0.310170 0.305997 0.490436 -0.112990
C57   C     C_R   0.413637 0.167425 0.520685 -0.120676
C58   C     C_R   0.388622 0.217129 0.487329 0.202774
C59   C     C_R   0.323247 0.236964 0.497509 0.052312
C60   C     C_3   0.601176 0.015167 0.275546 -0.682325
C61   C     C_3   0.952319 0.040089 0.227308 -0.863926
C62   C     C_3   0.626944 0.830611 0.653684 -0.745637
C63   C     C_3   0.391557 0.209867 0.045989 -0.641352
C64   C     C_3   0.423237 0.233899 0.430655 -0.870023
C65   C     C_3   0.219102 0.385336 0.483375 -0.734140
C66   C     C_R   0.246692 0.981762 0.674423 -0.151043
C67   C     C_R   0.177859 0.989919 0.683492 -0.197138
C68   C     C_R   0.172009 0.997391 0.757054 0.359438
Cl1   Cl    Cl    0.305230 0.827067 0.697455 -0.514474
Cl2   Cl    Cl    0.686940 0.390429 0.431102 -0.432292
Cl3   Cl    Cl    0.679032 0.235015 0.288424 -0.518761
Cl4   Cl    Cl    0.404396 0.366152 0.178067 -0.514723
Cl5   Cl    Cl    0.079424 0.997088 0.764981 -0.516575
Cl6   Cl    Cl    0.222113 0.993297 0.906974 -0.545488
Cl7   Cl    Cl    0.264959 0.927195 0.531399 -0.584169
Cl8   Cl    Cl    0.141113 0.804753 0.554878 -0.404079
Cl9   Cl    Cl    0.639137 0.518648 0.300345 -0.479394
Cl10  Cl    Cl    0.719123 0.983867 0.403993 -0.580923
Cl11  Cl    Cl    0.699749 0.878356 0.042927 -0.595447
Cl12  Cl    Cl    0.442871 0.560801 0.735173 -0.564471
Cl13  Cl    Cl    0.657135 0.983314 0.809811 -0.542823
Cl14  Cl    Cl    0.452699 0.780995 0.551597 -0.498877
H1    H     H_    0.113895 0.250296 0.485026 0.165137
H2    H     H_    0.458604 0.716010 0.852963 0.205197
H3    H     H_    0.498173 0.912241 0.709917 0.145436
H4    H     H_    0.389395 0.091979 0.581057 0.201285
H5    H     H_    0.295884 0.127144 0.068936 0.217883
H6    H     H_    0.300883 0.243082 0.176359 0.101251
H7    H     H_    0.466202 0.155508 0.517416 0.169580
H8    H     H_    0.383719 0.946839 0.679866 0.132131
H9    H     H_    0.567748 0.038489 0.235920 0.225545
H10   H     H_    0.552287 0.949875 0.258462 0.254413
H11   H     H_    0.626268 0.063283 0.343544 0.270909
H12   H     H_    0.874838 0.884014 0.641409 0.209850
H13   H     H_    0.965330 0.107655 0.243297 0.250427
H14   H     H_    0.997919 0.043122 0.285274 0.261663
H15   H     H_    0.965728 0.013221 0.174556 0.268865
H16   H     H_    0.678322 0.844591 0.715528 0.244600
H17   H     H_    0.612914 0.769753 0.600772 0.211366
H18   H     H_    0.652441 0.885243 0.641967 0.280221
H19   H     H_    0.344805 0.222634 0.004467 0.267529
H20   H     H_    0.458880 0.267780 0.084106 0.279414
H21   H     H_    0.393341 0.153459 0.003543 0.205680
H22   H     H_    0.389009 0.258496 0.393439 0.209536
H23   H     H_    0.762557 0.768930 0.641641 0.172996
H24   H     H_    0.495389 0.279066 0.470774 0.273655
H25   H     H_    0.411503 0.171407 0.381858 0.238577
H26   H     H_    0.205832 0.380054 0.420051 0.248486
H27   H     H_    0.161131 0.382680 0.489941 0.238431
H28   H     H_    0.277240 0.449975 0.536595 0.260306
H29   H     H_    0.569075 0.610946 0.299820 0.153604
H30   H     H_    0.750069 0.668321 0.310366 0.258144
H31   H     H_    0.682492 0.724458 0.301131 0.195520
H32   H     H_    0.255937 0.097887 0.569769 0.159018
H33   H     H_    0.815939 0.030376 0.109839 0.161593
H34   H     H_    0.841989 0.912663 0.185061 0.230471
O1    O     O_R   0.091620 0.948280 0.539900 -0.574627
O2    O     O_R   0.448300 0.040010 0.091670 -0.623248
O3    O     O_R   0.460120 0.051750 0.908420 -0.634893
O4    O     O_R   0.091590 0.051710 0.643320 -0.590673
O5    O     O_R   0.356670 0.948360 0.908460 -0.546750
O6    O     O_R   0.551700 0.960090 0.908430 -0.580098
O7    O     O_R   0.448250 0.856700 0.908470 -0.610560
O8    O     O_R   0.643330 0.051740 0.091640 -0.597755
O9    O     O_R   0.539880 0.948350 0.091680 -0.625337
O10   O     O_R   0.091630 0.039900 0.448300 -0.612890
O11   O     O_R   0.091610 0.143340 0.551720 -0.614017
O12   O     O_R   0.551680 0.591610 0.643340 -0.590580
O13   O     O_R   0.908410 0.948290 0.356680 -0.634834
O14   O     O_R   0.908380 0.051720 0.460100 -0.575129
O15   O     O_R   0.908390 0.856660 0.448280 -0.608581
O16   O     O_R   0.908370 0.960100 0.551700 -0.590858
O17   O     O_R   0.448240 0.591630 0.539920 -0.585490
O18   O     O_R   0.356630 0.408410 0.448290 -0.638711
O19   O     O_R   0.460070 0.408390 0.551710 -0.588310
O20   O     O_R   0.448260 0.408420 0.356690 -0.584424
O21   O     O_R   0.551700 0.408400 0.460110 -0.608556
O22   O     O_R   0.539880 0.591640 0.448310 -0.605975
O23   O     O_R   0.643310 0.591620 0.551740 -0.597313
O24   O     O_R   0.551750 0.143400 0.091630 -0.588685
Zn1   Zn    Zn3+2 0.000020 0.930940 0.430940 1.078438
Zn2   Zn    Zn3+2 0.999980 0.069060 0.569060 1.099482
Zn3   Zn    Zn3+2 0.430910 0.500030 0.430960 1.083805
Zn4   Zn    Zn3+2 0.569030 0.500000 0.569070 1.087520
Zn5   Zn    Zn3+2 0.569070 0.069080 0.000020 1.098436
Zn6   Zn    Zn3+2 0.430930 0.931020 0.000080 1.084895

loop_
_geom_bond_atom_site_label_1
_geom_bond_atom_site_label_2
_ccdc_geom_bond_type
C6    Cl1   S    
C37   C43   A    
C41   C42   A    
C36   O9    A    
C18   C26   S    
C63   H19   S    
C61   H14   S    
C17   H31   S    
C39   C41   A    
C15   Cl9   S    
C53   C54   S    
C12   C23   A    
C57   H7    S    
C46   C62   S    
C18   C24   A    
C30   C48   S    
C36   O8    A    
C26   C61   S    
C32   O24   A    
O20   Zn3   S    
C2    C68   A    
O9    Zn6   S    
C25   H33   S    
C54   H5    S    
O13   Zn1   S    
C54   C63   S    
C10   H12   S    
C27   C38   S    
C15   C17   S    
C18   C19   A    
C27   O12   A    
O6    Zn5   S    
C55   H6    S    
C35   C42   S    
O18   Zn3   S    
C62   H16   S    
C12   C59   A    
C40   H32   S    
C19   C20   A    
C45   C56   A    
C8    C9    A    
C11   H23   S    
C16   O14   A    
C9    C10   A    
C65   H26   S    
C55   Cl4   S    
O15   Zn1   S    
C47   C53   A    
C60   H11   S    
C66   C67   A    
C30   O21   A    
C46   Cl14  S    
C13   C14   A    
C33   O5    A    
C63   H20   S    
C44   C46   S    
C60   H10   S    
O16   Zn2   S    
C38   C39   A    
O17   Zn3   S    
C67   C68   A    
C27   O17   A    
C15   H29   S    
O2    Zn6   S    
O4    Zn2   S    
C24   C25   S    
C21   C60   S    
C63   H21   S    
C44   Cl13  S    
C52   C57   A    
C4    C23   S    
C7    Cl7   S    
C58   C64   S    
C68   Cl5   S    
C6    H8    S    
C41   H2    S    
C50   Cl3   S    
C28   O16   A    
C1    O4    A    
C12   C40   A    
O1    Zn1   S    
C43   C44   S    
C32   C51   S    
C37   C38   A    
O23   Zn4   S    
C47   C48   A    
C14   C15   S    
O7    Zn6   S    
C23   C34   A    
C50   C51   A    
C34   C45   A    
C1    O1    A    
C31   O22   A    
C16   O13   A    
O12   Zn4   S    
C65   H27   S    
C7    Cl8   S    
C62   H18   S    
C48   C49   A    
C29   O19   A    
O21   Zn4   S    
C33   O3    A    
C30   O20   A    
C49   Cl2   S    
C45   C65   S    
C22   C24   A    
C58   C59   A    
C42   C43   A    
C31   O23   A    
C44   H3    S    
C17   H30   S    
C64   H25   S    
C47   C55   S    
C60   H9    S    
C64   H22   S    
C54   C55   S    
O19   Zn4   S    
C8    C14   A    
C4    O11   A    
C25   Cl11  S    
C13   C31   S    
C35   O6    A    
C61   H15   S    
C32   O2    A    
C5    C66   A    
C3    C5    A    
C2    Cl6   S    
O24   Zn5   S    
C61   H13   S    
C64   H24   S    
C6    C7    S    
C29   C56   S    
C4    O10   A    
O3    Zn5   S    
C22   C36   S    
O8    Zn5   S    
O10   Zn1   S    
C8    C17   S    
C56   C59   A    
C20   Cl10  S    
O22   Zn3   S    
C28   O15   A    
C39   Cl12  S    
C35   O7    A    
C2    C3    A    
C25   C26   S    
C40   C52   A    
C7    C66   S    
C11   C13   A    
C57   C58   A    
C5    C6    S    
C16   C19   S    
C52   H4    S    
C1    C67   S    
C29   O18   A    
O14   Zn2   S    
C26   H34   S    
C65   H28   S    
C10   C11   A    
C62   H17   S    
C20   C21   A    
C49   C50   A    
C34   H1    S    
C3    C33   S    
O5    Zn6   S    
C51   C53   A    
C37   C46   S    
C21   C22   A    
O11   Zn2   S    
C9    C28   S    
