data_mof_unit_29098.cif
_audit_creation_date              2012-10-26T20:09:45-0400
_audit_creation_method            fapswitch 2.2
_symmetry_space_group_name_H-M    P1
_symmetry_Int_Tables_number       1
_space_group_crystal_system       triclinic
_cell_length_a                    10.979707
_cell_length_b                    9.507132
_cell_length_c                    15.862307
_cell_angle_alpha                 90.145143
_cell_angle_beta                  89.192551
_cell_angle_gamma                 89.043868
_cell_volume                      1655.39393526

loop_
_atom_site_label
_atom_site_type_symbol
_atom_type_description
_atom_site_fract_x
_atom_site_fract_y
_atom_site_fract_z
_atom_type_partial_charge
C1    C     C_R   0.261381 0.501312 0.503441 0.540305
C2    C     C_3   0.940116 0.406233 0.579747 0.110857
C3    C     C_3   0.081440 0.486475 0.413078 -0.173412
C4    C     C_3   0.126109 0.504417 0.504993 -0.127781
C5    C     C_3   0.883544 0.503114 0.501463 -0.089275
C6    C     C_R   0.498928 0.499890 0.340554 0.613259
C7    C     C_3   0.941884 0.454091 0.409278 0.376050
C8    C     C_3   0.561956 0.080569 0.575707 -0.102349
C9    C     C_3   0.578521 0.916417 0.567993 -0.094455
C10   C     C_3   0.374330 0.085992 0.508073 -0.098532
C11   C     C_3   0.375705 0.918950 0.517129 -0.105436
C12   C     C_3   0.619412 0.492822 0.951516 -0.237877
C13   C     C_3   0.554520 0.079250 0.423606 -0.097568
C14   C     C_3   0.537806 0.915284 0.419059 -0.090077
C15   C     C_R   0.741763 0.499928 0.501159 0.597736
C16   C     C_R   0.499126 0.500142 0.659634 0.567324
C17   C     C_3   0.422316 0.638392 0.048548 0.154640
C18   C     C_3   0.426798 0.361705 0.047737 0.160372
C19   C     C_3   0.414477 0.373720 0.950506 -0.190536
C20   C     C_3   0.424943 0.636923 0.950466 -0.193550
C21   C     C_1   0.495402 0.500394 0.749344 0.015921
C22   C     C_3   0.483782 0.499909 0.083579 0.013356
C23   C     C_3   0.617472 0.500246 0.049102 -0.324537
C24   C     C_3   0.487973 0.500608 0.917198 -0.039956
C25   C     C_1   0.875077 0.730478 0.595073 0.289819
C26   C     C_1   0.928706 0.476334 0.663644 0.258077
C27   C     C_1   0.491673 0.500423 0.824949 -0.042779
C28   C     C_1   0.489236 0.499911 0.175682 0.038393
C29   C     C_1   0.494265 0.499798 0.251104 0.082489
C30   C     C_3   0.076301 0.644698 0.542044 -0.248306
C31   C     C_3   0.079009 0.386722 0.563046 -0.210736
C32   C     C_3   0.938047 0.664379 0.521226 0.115749
Cu1   Cu    Cu3+1 0.499860 0.642410 0.500040 0.965702
Cu2   Cu    Cu3+1 0.499860 0.357590 0.500040 0.978192
H1    H     H_    0.331386 0.645172 0.924647 0.189162
H2    H     H_    0.341807 0.889268 0.581010 0.129076
H3    H     H_    0.513384 0.127025 0.366736 0.159288
H4    H     H_    0.467602 0.892785 0.370990 0.126072
H5    H     H_    0.651901 0.099479 0.420576 0.193464
H6    H     H_    0.619238 0.860278 0.394016 0.222305
H7    H     H_    0.321556 0.116304 0.451296 0.152624
H8    H     H_    0.310188 0.875505 0.471485 0.138882
H9    H     H_    0.495303 0.275982 0.058197 0.136731
H10   H     H_    0.479426 0.727733 0.068929 0.125563
H11   H     H_    0.448228 0.274414 0.920260 0.123494
H12   H     H_    0.317799 0.388411 0.932307 0.201425
H13   H     H_    0.474925 0.730283 0.926964 0.118557
H14   H     H_    0.664667 0.596798 0.070027 0.146438
H15   H     H_    0.670509 0.409220 0.074353 0.147643
H16   H     H_    0.673978 0.581031 0.925869 0.168284
H17   H     H_    0.664749 0.392873 0.930550 0.171049
H18   H     H_    0.132518 0.731935 0.518446 0.186446
H19   H     H_    0.102692 0.282725 0.536338 0.221764
H20   H     H_    0.093363 0.648269 0.611065 0.118894
H21   H     H_    0.130821 0.387594 0.623169 0.127542
H22   H     H_    0.092434 0.837650 0.362148 0.347216
H23   H     H_    0.105187 0.581155 0.377261 0.189836
H24   H     H_    0.794748 0.166356 0.503055 0.370122
H25   H     H_    0.767995 0.471768 0.208864 0.344305
H26   H     H_    0.002878 0.167229 0.258806 0.388120
H27   H     H_    0.089253 0.606991 0.074740 0.400786
H28   H     H_    0.253470 0.101410 0.167305 0.391146
H29   H     H_    0.138984 0.404196 0.381163 0.188163
H30   H     H_    0.510484 0.106141 0.634972 0.132835
H31   H     H_    0.557605 0.868369 0.630092 0.144528
H32   H     H_    0.648638 0.127437 0.583771 0.211300
H33   H     H_    0.674667 0.891350 0.553269 0.204299
H34   H     H_    0.324512 0.133077 0.563116 0.141465
N1    N     N_3   0.500250 0.143650 0.501830 -0.278931
N2    N     N_3   0.500250 0.856350 0.501830 -0.267824
N3    N     N_1   0.827425 0.783400 0.652837 -0.242953
N4    N     N_1   0.921145 0.526131 0.730329 -0.239260
O1    O     O_R   0.317570 0.620260 0.500050 -0.527737
O2    O     O_2   0.008356 0.927276 0.495282 -0.234950
O3    O     O_3   0.010844 0.796257 0.355712 -0.432245
O4    O     O_2   0.969730 0.172464 0.672030 -0.221992
O5    O     O_2   0.764259 0.266639 0.663767 -0.315690
O6    O     O_3   0.855031 0.121065 0.538660 -0.404152
O7    O     O_2   0.784459 0.659730 0.341566 -0.234579
O8    O     O_2   0.963097 0.589045 0.256313 -0.201210
O9    O     O_3   0.779803 0.427670 0.264680 -0.463499
O10   O     O_2   0.015776 0.173517 0.426082 -0.260465
O11   O     O_2   0.814363 0.217866 0.364429 -0.259293
O12   O     O_R   0.317570 0.379740 0.500050 -0.523150
O13   O     O_3   0.005546 0.267008 0.276746 -0.437315
O14   O     O_2   0.266797 0.675625 0.182759 -0.244322
O15   O     O_2   0.243359 0.832999 0.062539 -0.245595
O16   O     O_3   0.166947 0.578930 0.046458 -0.452168
O17   O     O_2   0.250740 0.383291 0.173421 -0.199648
O18   O     O_2   0.188499 0.280236 0.039551 -0.214631
O19   O     O_3   0.327435 0.132260 0.136515 -0.507513
O20   O     O_R   0.499890 0.620310 0.379470 -0.495927
O21   O     O_R   0.499890 0.379690 0.379470 -0.491035
O22   O     O_R   0.682190 0.620260 0.500020 -0.470782
O23   O     O_R   0.682190 0.379740 0.500020 -0.475191
O24   O     O_R   0.499870 0.620210 0.620600 -0.519011
O25   O     O_R   0.499870 0.379790 0.620600 -0.491764
O26   O     O_2   0.815270 0.875458 0.435308 -0.237030
S1    S     S_3+6 0.939605 0.815825 0.449409 0.073790
S2    S     S_3+6 0.879398 0.239365 0.613282 0.034269
S3    S     S_3+6 0.867783 0.539651 0.318012 0.121707
S4    S     S_3+6 0.940794 0.271221 0.373732 0.071835
S5    S     S_3+6 0.271929 0.684120 0.088175 0.055130
S6    S     S_3+6 0.291908 0.293542 0.100025 0.063233

loop_
_geom_bond_atom_site_label_1
_geom_bond_atom_site_label_2
_ccdc_geom_bond_type
C8    H32   S    
C16   C21   S    
O11   S4    D    
C26   N4    T    
Cu2   O21   S    
O19   S6    S    
Cu1   O22   S    
C12   H17   S    
C15   O22   A    
C19   H12   S    
O9    S3    S    
C1    O12   A    
C30   H20   S    
C12   C23   S    
C8    N1    S    
C11   H8    S    
C28   C29   T    
C3    C7    S    
C15   O23   A    
C16   O25   A    
C23   H15   S    
Cu2   O25   S    
O5    S2    D    
C18   C19   S    
C20   H1    S    
C20   C24   S    
C8    C9    S    
C7    S4    S    
C24   C27   S    
C25   N3    T    
C13   H3    S    
C5    C32   S    
C25   C32   S    
C21   C27   T    
C2    S2    S    
H22   O3    S    
C22   C28   S    
C13   C14   S    
C10   H7    S    
C14   N2    S    
Cu2   O12   S    
O14   S5    D    
C16   O24   A    
C5    C15   S    
C20   H13   S    
Cu2   O23   S    
Cu1   O20   S    
C5    C7    S    
C2    C31   S    
C9    H33   S    
H27   O16   S    
C14   H4    S    
C11   N2    S    
C6    O21   A    
H28   O19   S    
O3    S1    S    
Cu1   Cu2   S    
O10   S4    D    
C2    C26   S    
C18   S6    S    
C31   H19   S    
Cu2   N1    S    
O18   S6    D    
Cu1   N2    S    
C8    H30   S    
O15   S5    D    
C3    H23   S    
Cu1   O1    S    
C10   H34   S    
O17   S6    D    
O6    S2    S    
C2    C5    S    
C3    C4    S    
Cu1   O24   S    
O16   S5    S    
C30   H18   S    
C11   H2    S    
C23   H14   S    
C18   C22   S    
C17   C20   S    
H25   O9    S    
C12   H16   S    
H26   O13   S    
C19   H11   S    
O2    S1    D    
C3    H29   S    
O4    S2    D    
C12   C24   S    
C17   C22   S    
C32   S1    S    
O8    S3    D    
C1    C4    S    
C1    O1    A    
C19   C24   S    
C17   S5    S    
C17   H10   S    
C18   H9    S    
C30   C32   S    
C13   N1    S    
C6    O20   A    
C9    H31   S    
C13   H5    S    
C4    C31   S    
C10   C11   S    
H24   O6    S    
C14   H6    S    
C9    N2    S    
C10   N1    S    
C6    C29   S    
O26   S1    D    
C7    S3    S    
C22   C23   S    
O7    S3    D    
C31   H21   S    
C4    C30   S    
O13   S4    S    
