data_mof_unit_52737.cif
_audit_creation_date              2012-12-11T15:35:04-0500
_audit_creation_method            fapswitch 2.2
_symmetry_space_group_name_H-M    P1
_symmetry_Int_Tables_number       1
_space_group_crystal_system       triclinic
_cell_length_a                    30.698041
_cell_length_b                    7.241242
_cell_length_c                    25.877058
_cell_angle_alpha                 90.001827
_cell_angle_beta                  111.791642
_cell_angle_gamma                 90.000995
_cell_volume                      5341.20485235

loop_
_atom_site_label
_atom_site_type_symbol
_atom_type_description
_atom_site_fract_x
_atom_site_fract_y
_atom_site_fract_z
_atom_type_partial_charge
O1    O     O_R   0.295360 0.592990 0.320420 -0.529525
O2    O     O_R   0.704640 0.407010 0.679580 -0.535110
O3    O     O_R   0.204640 0.092990 0.179580 -0.529533
O4    O     O_R   0.795360 0.907010 0.820420 -0.535117
O5    O     O_R   0.294060 0.265620 0.213230 -0.538400
O6    O     O_R   0.705940 0.734380 0.786770 -0.538592
O7    O     O_R   0.205940 0.765620 0.286770 -0.538394
O8    O     O_R   0.794060 0.234380 0.713230 -0.538590
C1    C     C_R   0.304164 0.432372 0.199535 0.690007
C2    C     C_R   0.695708 0.567615 0.800285 0.692524
C3    C     C_R   0.195837 0.932373 0.300465 0.690035
C4    C     C_R   0.804292 0.067614 0.699715 0.692554
O9    O     O_R   0.300850 0.263360 0.322080 -0.540327
O10   O     O_R   0.699150 0.736640 0.677920 -0.534278
O11   O     O_R   0.199150 0.763360 0.177920 -0.540329
O12   O     O_R   0.800850 0.236640 0.822080 -0.534286
O13   O     O_R   0.211480 0.091820 0.289210 -0.537438
O14   O     O_R   0.788520 0.908180 0.710790 -0.537886
O15   O     O_R   0.288520 0.591820 0.210790 -0.537434
O16   O     O_R   0.711480 0.408180 0.789210 -0.537878
C5    C     C_R   0.313348 0.431401 0.343134 0.686722
C6    C     C_R   0.686743 0.568266 0.656959 0.693112
C7    C     C_R   0.186651 0.931392 0.156865 0.686693
C8    C     C_R   0.813257 0.068275 0.843041 0.693143
O17   O     O_3   0.220670 0.426670 0.239090 -0.373656
O18   O     O_3   0.779330 0.573330 0.760910 -0.375097
O19   O     O_3   0.279330 0.926670 0.260910 -0.373660
O20   O     O_3   0.720670 0.073330 0.739090 -0.375097
V1    V     V_3+5 0.255440 0.152290 0.252020 1.397157
V2    V     V_3+5 0.744560 0.847710 0.747980 1.405995
V3    V     V_3+5 0.244560 0.652290 0.247980 1.397174
V4    V     V_3+5 0.755440 0.347710 0.752020 1.406000
C9    C     C_R   0.851013 0.059326 0.898551 -0.088663
C10   C     C_R   0.149119 0.933298 0.100874 -0.096062
C11   C     C_R   0.648990 0.559274 0.601447 -0.088663
C12   C     C_R   0.350880 0.433356 0.399124 -0.096044
C13   C     C_R   0.872454 0.065947 0.998238 -0.158356
C14   C     C_R   0.123723 0.827337 0.005630 -0.166228
C15   C     C_R   0.627564 0.565393 0.501760 -0.158362
C16   C     C_R   0.376252 0.327788 0.494401 -0.166175
C17   C     C_R   0.838334 0.066446 0.944955 -0.211289
C18   C     C_R   0.158311 0.843696 0.058244 -0.209185
C19   C     C_R   0.661678 0.566032 0.555047 -0.211294
C20   C     C_R   0.341671 0.344004 0.441777 -0.209185
C21   C     C_R   0.899082 0.049079 0.905583 0.216735
C22   C     C_R   0.103695 0.006676 0.090482 0.205938
C23   C     C_R   0.600916 0.549240 0.594409 0.216706
C24   C     C_R   0.396315 0.506601 0.409497 0.205958
C25   C     C_R   0.934299 0.027540 0.960469 0.047323
C26   C     C_R   0.066018 0.967658 0.038451 0.046345
C27   C     C_R   0.565703 0.527525 0.539528 0.047319
C28   C     C_R   0.433981 0.467715 0.461546 0.046348
C29   C     C_R   0.919992 0.047604 0.006435 0.092713
C30   C     C_R   0.077897 0.886751 0.995421 0.094175
C31   C     C_R   0.580021 0.547238 0.493560 0.092718
C32   C     C_R   0.422086 0.387092 0.504600 0.094166
C33   C     C_R   0.982855 0.985009 0.971905 0.052907
C34   C     C_R   0.017046 0.999814 0.027571 0.050651
C35   C     C_R   0.517141 0.485130 0.528099 0.052892
C36   C     C_R   0.482959 0.499742 0.472423 0.050648
C37   C     C_R   0.000432 0.023881 0.071113 -0.153298
C38   C     C_R   0.997388 0.907679 0.930976 -0.152132
C39   C     C_R   0.499583 0.523484 0.428878 -0.153296
C40   C     C_R   0.502591 0.408098 0.569052 -0.152160
C41   C     C_R   0.953017 0.044975 0.060705 -0.200433
C42   C     C_R   0.043698 0.858405 0.942697 -0.206323
C43   C     C_R   0.547002 0.544433 0.439288 -0.200433
C44   C     C_R   0.456275 0.358923 0.557339 -0.206299
H1    H     H_    0.942000 0.057304 0.095815 0.132144
H2    H     H_    0.052683 0.793673 0.910180 0.132303
H3    H     H_    0.558027 0.556499 0.404178 0.132147
H4    H     H_    0.447278 0.294413 0.589876 0.132312
H5    H     H_    0.192865 0.787709 0.065663 0.127268
H6    H     H_    0.801742 0.077241 0.939820 0.123883
H7    H     H_    0.307109 0.288122 0.434370 0.127240
H8    H     H_    0.698274 0.576646 0.560186 0.123889
H9    H     H_    0.861503 0.077236 0.033409 0.129854
H10   H     H_    0.132497 0.761349 0.973151 0.130250
H11   H     H_    0.638523 0.576406 0.466590 0.129855
H12   H     H_    0.367465 0.262009 0.526899 0.130248
H13   H     H_    0.022846 0.010529 0.114247 0.171960
H14   H     H_    0.972916 0.867653 0.890555 0.173279
H15   H     H_    0.477172 0.509973 0.385748 0.171966
H16   H     H_    0.527055 0.368224 0.609493 0.173282
C45   C     C_R   0.073172 0.830543 0.459222 0.574427
C46   C     C_R   0.928402 0.170630 0.542882 0.574312
C47   C     C_R   0.426814 0.330577 0.040760 0.574424
C48   C     C_R   0.571618 0.670594 0.957144 0.574310
N1    N     N_R   0.073228 0.971624 0.423669 -0.556032
N2    N     N_R   0.928232 0.029264 0.578288 -0.556211
N3    N     N_R   0.426777 0.471616 0.076337 -0.556022
N4    N     N_R   0.571770 0.529267 0.921715 -0.556205
C49   C     C_R   0.044936 0.123549 0.418033 0.577986
C50   C     C_R   0.956511 0.877322 0.583927 0.578307
C51   C     C_R   0.455088 0.623499 0.081997 0.577968
C52   C     C_R   0.543474 0.377361 0.916055 0.578291
C53   C     C_R   0.015945 0.138931 0.449174 -0.025180
C54   C     C_R   0.985609 0.862178 0.552912 -0.025483
C55   C     C_R   0.484078 0.638886 0.050854 -0.025177
C56   C     C_R   0.514377 0.362215 0.947070 -0.025481
C57   C     C_R   0.015397 0.994644 0.485376 -0.019310
C58   C     C_R   0.986198 0.006568 0.516757 -0.019299
C59   C     C_R   0.484607 0.494639 0.014629 -0.019321
C60   C     C_R   0.513806 0.506566 0.983247 -0.019310
C61   C     C_R   0.043975 0.838470 0.490277 -0.029986
C62   C     C_R   0.957633 0.162780 0.511870 -0.029890
C63   C     C_R   0.456011 0.338503 0.009706 -0.029980
C64   C     C_R   0.542389 0.662742 0.988156 -0.029886
C65   C     C_R   0.987444 0.294765 0.444840 -0.148291
C66   C     C_R   0.014137 0.706411 0.557278 -0.148066
C67   C     C_R   0.512595 0.794687 0.055210 -0.148260
C68   C     C_R   0.485832 0.206482 0.942683 -0.148037
C69   C     C_R   0.958661 0.306534 0.475790 -0.155403
C70   C     C_R   0.042961 0.694746 0.526375 -0.154933
C71   C     C_R   0.541377 0.806460 0.024258 -0.155347
C72   C     C_R   0.457008 0.194814 0.973586 -0.154877
O21   O     O_2   0.101771 0.683932 0.465268 -0.524377
O22   O     O_2   0.899866 0.317398 0.536922 -0.524486
O23   O     O_2   0.398195 0.184012 0.034689 -0.524407
O24   O     O_2   0.600172 0.817324 0.963125 -0.524509
O25   O     O_2   0.044367 0.258854 0.381938 -0.527112
O26   O     O_2   0.956929 0.741719 0.619870 -0.526771
O27   O     O_2   0.455676 0.758757 0.118116 -0.527146
O28   O     O_2   0.543040 0.241799 0.880090 -0.526802
H17   H     H_    0.987337 0.408501 0.417606 0.170408
H18   H     H_    0.014225 0.592633 0.584489 0.170563
H19   H     H_    0.512717 0.908391 0.082462 0.170383
H20   H     H_    0.485730 0.092733 0.915454 0.170538
H21   H     H_    0.937263 0.428850 0.471357 0.171773
H22   H     H_    0.064370 0.572455 0.530820 0.171972
H23   H     H_    0.562789 0.928749 0.028708 0.171753
H24   H     H_    0.435585 0.072552 0.969124 0.171951
C73   C     C_R   0.864853 0.897402 0.604625 -0.090521
C74   C     C_R   0.136075 0.103565 0.396312 -0.089450
C75   C     C_R   0.635139 0.397385 0.895364 -0.090537
C76   C     C_R   0.363943 0.603592 0.103711 -0.089466
H25   H     H_    0.862357 0.780571 0.577549 0.152113
H26   H     H_    0.138596 0.221093 0.423148 0.152767
H27   H     H_    0.637626 0.280538 0.922429 0.152095
H28   H     H_    0.361434 0.721146 0.076890 0.152753
C77   C     C_R   0.835110 0.905871 0.634487 -0.201746
C78   C     C_R   0.165440 0.094936 0.365968 -0.202682
C79   C     C_R   0.664882 0.405856 0.865502 -0.201740
C80   C     C_R   0.334577 0.594962 0.134052 -0.202687
H29   H     H_    0.810365 0.794569 0.629840 0.133099
H30   H     H_    0.189917 0.206812 0.370032 0.133144
H31   H     H_    0.689620 0.294538 0.870138 0.133102
H32   H     H_    0.310110 0.706864 0.130001 0.133156
C81   C     C_R   0.836565 0.057987 0.668918 -0.051393
C82   C     C_R   0.163953 0.942034 0.331793 -0.052789
C83   C     C_R   0.663436 0.557990 0.831084 -0.051412
C84   C     C_R   0.336049 0.442031 0.168209 -0.052787
C85   C     C_R   0.868939 0.200359 0.673309 -0.208810
C86   C     C_R   0.132004 0.798811 0.328283 -0.208268
C87   C     C_R   0.631071 0.700380 0.826706 -0.208785
C88   C     C_R   0.367984 0.298778 0.171701 -0.208264
H33   H     H_    0.871210 0.318582 0.699829 0.136918
H34   H     H_    0.129786 0.679712 0.302106 0.137787
H35   H     H_    0.628807 0.818618 0.800197 0.136930
H36   H     H_    0.370191 0.179655 0.197863 0.137788
C89   C     C_R   0.899318 0.190088 0.644189 -0.086053
C90   C     C_R   0.101954 0.809322 0.357826 -0.085968
C91   C     C_R   0.600693 0.690112 0.855827 -0.086057
C92   C     C_R   0.398035 0.309285 0.142159 -0.085989
H37   H     H_    0.924422 0.299996 0.648889 0.156381
H38   H     H_    0.077106 0.698858 0.353692 0.157519
H39   H     H_    0.575597 0.800037 0.851140 0.156363
H40   H     H_    0.422872 0.198795 0.146279 0.157504
C93   C     C_R   0.897423 0.038945 0.609261 0.355798
C94   C     C_R   0.103817 0.961430 0.392409 0.354676
C95   C     C_R   0.602579 0.538948 0.890742 0.355826
C96   C     C_R   0.396187 0.461425 0.107596 0.354714
N5    N     N_2   0.097119 0.128647 0.130204 -0.550322
H41   H     H_    0.116900 0.100054 0.171284 0.249488
C97   C     C_3   0.097264 0.322383 0.116625 -0.481811
H42   H     H_    0.089417 0.406629 0.147965 0.187869
H43   H     H_    0.070003 0.351580 0.075031 0.200841
H44   H     H_    0.132253 0.363085 0.116864 0.201889
N6    N     N_2   0.911722 0.079114 0.858498 -0.547890
H45   H     H_    0.888368 0.028540 0.821274 0.241876
C98   C     C_3   0.926991 0.265174 0.853830 -0.528934
H46   H     H_    0.938495 0.273425 0.817963 0.196183
H47   H     H_    0.957077 0.304263 0.892097 0.210142
H48   H     H_    0.897680 0.364067 0.846963 0.198263
N7    N     N_2   0.402911 0.628331 0.369736 -0.550302
H49   H     H_    0.383124 0.599617 0.328665 0.249436
C99   C     C_3   0.402799 0.822139 0.383252 -0.481910
H50   H     H_    0.410660 0.906182 0.351885 0.187885
H51   H     H_    0.430065 0.851430 0.424837 0.200847
H52   H     H_    0.367818 0.863003 0.383001 0.201909
N8    N     N_2   0.588272 0.579634 0.641475 -0.547882
H53   H     H_    0.611617 0.529211 0.678724 0.241840
C100  C     C_3   0.573018 0.765785 0.646054 -0.528796
H54   H     H_    0.561512 0.774321 0.681915 0.196148
H55   H     H_    0.542937 0.804740 0.607768 0.210122
H56   H     H_    0.602337 0.864608 0.652878 0.198287

loop_
_geom_bond_atom_site_label_1
_geom_bond_atom_site_label_2
_ccdc_geom_bond_type
O17   V3    S    
C55   C59   A    
C25   C29   A    
C1    C84   S    
C73   H25   S    
C57   C58   A    
C54   C66   A    
C47   N3    A    
O19   V1    S    
O13   V1    S    
C78   H30   S    
O3    C7    A    
C72   H24   S    
C10   C18   A    
O1    V3    S    
C80   H32   S    
C11   C23   A    
N7    H49   S    
C77   C81   A    
C33   C38   A    
C97   H43   S    
C5    C12   S    
C71   H23   S    
C98   H46   S    
O1    C5    A    
C6    C11   S    
C35   C40   A    
C26   C30   A    
C69   H21   S    
N3    C96   S    
C36   C39   A    
C40   C44   A    
C64   C71   A    
O9    V1    S    
C49   O25   S    
N1    C94   S    
C14   C18   A    
C48   C64   A    
C51   C55   A    
N7    C99   S    
C50   C54   A    
N4    C95   S    
C60   C64   A    
C56   C60   A    
C9    C21   A    
O2    V4    S    
O3    V1    S    
C73   C93   A    
C40   H16   S    
C99   H52   S    
C81   C85   A    
C28   C36   A    
C17   H6    S    
C90   H38   S    
C76   H28   S    
C1    O15   A    
C15   C31   A    
C76   C96   A    
C68   H20   S    
C2    O16   A    
C16   C32   A    
C90   C94   A    
O2    C6    A    
C82   C86   A    
C16   H12   S    
C58   C62   A    
C10   C22   A    
C83   C87   A    
C48   O24   S    
C11   C19   A    
C66   C70   A    
C16   C20   A    
C43   H3    S    
C77   H29   S    
C13   C29   A    
C7    C10   S    
C34   C37   A    
O11   C7    A    
C38   H14   S    
O15   V3    S    
C35   C36   A    
O12   C8    A    
N5    H41   S    
C13   C17   A    
C70   H22   S    
C46   C62   A    
O10   V2    S    
C45   C61   A    
N2    C50   A    
C97   H44   S    
O5    V1    S    
C98   H47   S    
N4    C52   A    
C57   C61   A    
C39   C43   A    
O7    V3    S    
C38   C42   A    
C62   C69   A    
C87   H35   S    
N8    H53   S    
C26   C34   A    
C48   N4    A    
C61   C70   A    
C88   H36   S    
C84   C88   A    
C46   N2    A    
C45   N1    A    
O18   V4    S    
C15   C19   A    
C91   C95   A    
C14   H10   S    
C87   C91   A    
C32   C44   A    
C13   H9    S    
O11   V3    S    
N1    C49   A    
O4    V2    S    
C39   H15   S    
C44   H4    S    
O8    V4    S    
C37   H13   S    
C20   H7    S    
O7    C3    A    
N8    C100  S    
C47   O23   S    
C2    C83   S    
C74   C78   A    
C53   C65   A    
C3    C82   S    
C31   C43   A    
C97   H42   S    
C14   C30   A    
C21   C25   A    
C91   H39   S    
O8    C4    A    
C100  H56   S    
C55   C67   A    
C100  H55   S    
C22   N5    S    
O9    C5    A    
C46   O22   S    
C45   O21   S    
N5    C97   S    
C66   H18   S    
O14   V2    S    
C50   O26   S    
C92   H40   S    
C65   H17   S    
O6    V2    S    
C79   H31   S    
C75   C95   A    
C67   H19   S    
C12   C20   A    
C27   C35   A    
C49   C53   A    
C68   C72   A    
C29   C41   A    
C59   C63   A    
O16   V4    S    
C98   H48   S    
C51   O27   S    
C19   H8    S    
C3    O13   A    
C18   H5    S    
C4    C81   S    
C86   C90   A    
C52   O28   S    
O5    C1    A    
C74   H26   S    
C25   C33   A    
C23   C27   A    
C23   N8    S    
C56   C68   A    
C30   C42   A    
C65   C69   A    
O12   V4    S    
C22   C26   A    
C73   C77   A    
C8    C9    S    
C75   H27   S    
C9    C17   A    
O10   C6    A    
O20   V2    S    
C89   C93   A    
C24   N7    S    
C80   C84   A    
C54   C58   A    
C67   C71   A    
C78   C82   A    
C33   C34   A    
C42   H2    S    
O4    C8    A    
C41   H1    S    
C52   C56   A    
N2    C93   S    
C79   C83   A    
C75   C79   A    
C12   C24   A    
C27   C31   A    
C85   H33   S    
C89   H37   S    
C63   C72   A    
C99   H51   S    
C92   C96   A    
O6    C2    A    
C21   N6    S    
N3    C51   A    
N6    H45   S    
C37   C41   A    
C24   C28   A    
C47   C63   A    
C88   C92   A    
C76   C80   A    
C100  H54   S    
C74   C94   A    
C4    O14   A    
C59   C60   A    
C86   H34   S    
C99   H50   S    
C85   C89   A    
C53   C57   A    
C28   C32   A    
C15   H11   S    
N6    C98   S    
