data_mof_unit_32271.cif
_audit_creation_date              2012-12-10T18:18:19-0500
_audit_creation_method            fapswitch 2.2
_symmetry_space_group_name_H-M    P1
_symmetry_Int_Tables_number       1
_space_group_crystal_system       triclinic
_cell_length_a                    14.027459
_cell_length_b                    14.976356
_cell_length_c                    15.50878
_cell_angle_alpha                 90.104613
_cell_angle_beta                  67.82566
_cell_angle_gamma                 90.345336
_cell_volume                      3017.06362201

loop_
_atom_site_label
_atom_site_type_symbol
_atom_type_description
_atom_site_fract_x
_atom_site_fract_y
_atom_site_fract_z
_atom_type_partial_charge
C1    C     C_R   0.500353 0.672766 0.499627 0.888602
C2    C     C_R   0.499690 0.327212 0.500300 0.888268
C3    C     C_R   0.390817 0.586294 0.095284 -0.230456
C4    C     C_R   0.629960 0.534052 0.892311 -0.224863
C5    C     C_R   0.318443 0.591140 0.054149 -0.234995
C6    C     C_R   0.702360 0.528774 0.933247 -0.243485
C7    C     C_R   0.499611 0.187226 0.579858 0.022920
C8    C     C_R   0.502356 0.812225 0.418439 0.003416
C9    C     C_R   0.499306 0.232046 0.500715 -0.151558
C10   C     C_R   0.501231 0.767909 0.498415 -0.131040
C11   C     C_R   0.500068 0.187016 0.421514 0.017041
C12   C     C_R   0.500500 0.813196 0.577368 0.013045
C13   C     C_R   0.500528 0.094157 0.421065 0.087145
C14   C     C_R   0.501393 0.905935 0.576960 0.118460
C15   C     C_R   0.501001 0.046868 0.499718 -0.051670
C16   C     C_R   0.501426 0.952936 0.497817 -0.034367
C17   C     C_R   0.501050 0.093428 0.580047 0.123634
C18   C     C_R   0.501672 0.906256 0.417243 0.087290
C19   C     C_R   0.500498 0.048262 0.342660 -0.181484
C20   C     C_R   0.502336 0.952064 0.655038 -0.260602
C21   C     C_R   0.500986 0.956064 0.339341 0.086191
C22   C     C_R   0.502636 0.044525 0.657523 0.099104
C23   C     C_R   0.435957 0.500517 0.676162 0.855419
C24   C     C_R   0.564127 0.502051 0.323882 0.857916
C25   C     C_R   0.175527 0.448730 0.562863 -0.032311
C26   C     C_R   0.824257 0.551846 0.437694 -0.031162
C27   C     C_R   0.228205 0.552316 0.438184 -0.038757
C28   C     C_R   0.771265 0.448943 0.562981 -0.043616
C29   C     C_R   0.127656 0.555378 0.437525 -0.017975
C30   C     C_R   0.871406 0.446883 0.564660 -0.020061
C31   C     C_R   0.050096 0.501088 0.501013 -0.015330
C32   C     C_R   0.949162 0.500696 0.500734 -0.014335
C33   C     C_R   0.073674 0.447598 0.565170 0.010402
C34   C     C_R   0.925632 0.554125 0.436495 0.010280
C35   C     C_R   0.103548 0.610937 0.374876 0.175222
C36   C     C_R   0.894714 0.393322 0.629193 0.167958
C37   C     C_R   0.002863 0.608827 0.373273 0.027979
C38   C     C_R   0.995748 0.394675 0.630030 0.026223
C39   C     C_R   0.397622 0.513080 0.776755 -0.066062
C40   C     C_R   0.604115 0.513218 0.222958 -0.066675
C41   C     C_R   0.270373 0.566335 0.921312 -0.202466
C42   C     C_R   0.742152 0.513328 0.071405 -0.203556
C43   C     C_R   0.297314 0.541726 0.828274 -0.202199
C44   C     C_R   0.708966 0.505427 0.167912 -0.199369
C45   C     C_R   0.469243 0.507549 0.818850 -0.254196
C46   C     C_R   0.534056 0.533650 0.181830 -0.264267
C47   C     C_R   0.447122 0.539749 0.908499 0.093590
C48   C     C_R   0.565414 0.543085 0.085693 0.096002
C49   C     C_R   0.344791 0.565859 0.961688 0.178953
C50   C     C_R   0.670643 0.529266 0.029787 0.178125
C51   C     C_R   0.523730 0.543601 0.947161 0.068312
C52   C     C_R   0.493010 0.558297 0.043814 0.067216
H1    H     H_    0.240976 0.612770 0.095338 0.133021
H2    H     H_    0.782829 0.520331 0.889276 0.143790
H3    H     H_    0.196406 0.408699 0.610974 0.159683
H4    H     H_    0.803462 0.591688 0.389401 0.158847
H5    H     H_    0.289998 0.591601 0.389462 0.157738
H6    H     H_    0.709311 0.409973 0.611888 0.161788
H7    H     H_    0.453668 0.537254 0.225777 0.159263
H8    H     H_    0.543012 0.478031 0.779945 0.156181
H9    H     H_    0.764494 0.491106 0.199079 0.157970
H10   H     H_    0.240907 0.546791 0.796380 0.158066
H11   H     H_    0.192284 0.587547 0.961025 0.133862
H12   H     H_    0.823012 0.504271 0.029199 0.133834
H13   H     H_    0.365598 0.607539 0.166899 0.158656
H14   H     H_    0.659582 0.532629 0.817187 0.153515
H15   H     H_    0.499798 0.083957 0.282171 0.188108
H16   H     H_    0.503284 0.916658 0.715583 0.177587
N1    N     N_R   0.249980 0.499930 0.499960 -0.118264
N2    N     N_R   0.750020 0.500070 0.500040 -0.118127
O1    O     O_R   0.419720 0.632140 0.499980 -0.622460
O2    O     O_R   0.580280 0.367860 0.500020 -0.621392
O3    O     O_R   0.580270 0.632160 0.499970 -0.619802
O4    O     O_R   0.419730 0.367840 0.500030 -0.617680
O5    O     O_R   0.373870 0.499980 0.632250 -0.617477
O6    O     O_R   0.626130 0.500020 0.367750 -0.617191
O7    O     O_R   0.534420 0.500000 0.632240 -0.626881
O8    O     O_R   0.465580 0.500000 0.367760 -0.626289
Zn1   Zn    Zn3+2 0.392800 0.499980 0.500010 0.930738
Zn2   Zn    Zn3+2 0.607200 0.500020 0.499990 0.930669
N3    N     N_2   0.180472 0.669169 0.314142 -0.333724
H17   H     H_    0.177172 0.678525 0.249598 0.221137
C53   C     C_3   0.193339 0.752329 0.356324 -0.819384
H18   H     H_    0.259205 0.790234 0.306256 0.239224
H19   H     H_    0.122777 0.793479 0.374901 0.244596
H20   H     H_    0.209733 0.739796 0.419922 0.251970
N4    N     N_2   0.816196 0.338797 0.693456 -0.327470
H21   H     H_    0.818269 0.334242 0.758997 0.227514
C54   C     C_3   0.801446 0.253033 0.656939 -0.805729
H22   H     H_    0.870426 0.210601 0.642426 0.239724
H23   H     H_    0.786852 0.261383 0.591840 0.250124
H24   H     H_    0.733792 0.218623 0.708841 0.247142
N5    N     N_3   0.977817 0.663022 0.308583 -0.485364
H25   H     H_    0.022943 0.642897 0.240926 0.173107
H26   H     H_    0.994482 0.729721 0.317380 0.200086
N6    N     N_3   0.020222 0.342028 0.696094 -0.484277
H27   H     H_    0.975951 0.364207 0.763184 0.175277
H28   H     H_    0.002092 0.275246 0.689551 0.200891
N7    N     N_3   0.496023 0.237295 0.660312 -0.425675
H29   H     H_    0.562614 0.276397 0.642928 0.201972
H30   H     H_    0.431638 0.278894 0.681588 0.175696
N8    N     N_3   0.506466 0.760999 0.338617 -0.487837
H31   H     H_    0.570708 0.719259 0.318253 0.184323
H32   H     H_    0.439736 0.722086 0.355946 0.203295
N9    N     N_3   0.502559 0.235320 0.340459 -0.473091
H33   H     H_    0.435625 0.273281 0.357966 0.213897
H34   H     H_    0.566418 0.278165 0.318575 0.184142
N10   N     N_3   0.496612 0.765252 0.659100 -0.471329
H35   H     H_    0.432106 0.723140 0.681043 0.186461
H36   H     H_    0.562909 0.726560 0.642435 0.212421
N11   N     N_3   0.499926 0.916925 0.255267 -0.464054
H37   H     H_    0.433900 0.877488 0.270293 0.207455
H38   H     H_    0.567083 0.880124 0.222789 0.217339
N12   N     N_3   0.505284 0.087357 0.739389 -0.429029
H39   H     H_    0.441188 0.065998 0.796623 0.188282
H40   H     H_    0.571497 0.066561 0.749241 0.181275

loop_
_geom_bond_atom_site_label_1
_geom_bond_atom_site_label_2
_ccdc_geom_bond_type
C4    H14   S    
N4    H21   S    
C45   H8    S    
N5    H25   S    
C46   H7    S    
C27   C29   A    
C34   C37   A    
N11   H37   S    
O1    Zn1   S    
N3    H17   S    
C35   N3    S    
C47   C49   A    
C40   C46   A    
N9    H34   S    
C1    O1    A    
C7    N7    S    
C53   H18   S    
C5    H1    S    
C35   C37   A    
C15   C16   A    
C18   C21   A    
N10   H35   S    
C15   C17   A    
C21   N11   S    
C26   C34   A    
C31   C32   A    
N10   H36   S    
C7    C17   A    
N6    H28   S    
C11   N9    S    
C31   C33   A    
C19   H15   S    
C54   H23   S    
C27   N1    A    
C39   C45   A    
C48   C50   A    
N5    H26   S    
C41   C43   A    
C5    C49   A    
C3    H13   S    
C42   C44   A    
C6    H2    S    
C2    O2    A    
C41   C49   A    
N3    C53   S    
N12   H39   S    
C45   C47   A    
C36   N4    S    
C46   C48   A    
C13   C19   A    
C4    C51   A    
N2    Zn2   S    
C51   C52   A    
C14   C20   A    
C4    C6    A    
C27   H5    S    
C23   O5    A    
C12   N10   S    
O8    Zn1   S    
C24   O6    A    
C39   C43   A    
C8    C18   A    
C26   H4    S    
C32   C34   A    
N12   H40   S    
N7    H29   S    
C48   C52   A    
C29   C31   A    
N6    H27   S    
C37   N5    S    
N11   H38   S    
C16   C18   A    
C23   O7    A    
C54   H24   S    
N8    H32   S    
C9    C11   A    
C10   C12   A    
C42   C50   A    
C24   O8    A    
N7    H30   S    
C12   C14   A    
O4    Zn1   S    
C13   C15   A    
C26   N2    A    
C14   C16   A    
N1    Zn1   S    
C25   N1    A    
C41   H11   S    
C36   C38   A    
C42   H12   S    
O7    Zn2   S    
C7    C9    A    
C6    C50   A    
C53   H19   S    
C20   H16   S    
C28   N2    A    
C1    C10   S    
O6    Zn2   S    
C20   C22   A    
C3    C5    A    
C2    O4    A    
C47   C51   A    
C3    C52   A    
C28   H6    S    
C44   H9    S    
N9    H33   S    
C29   C35   A    
C22   N12   S    
C17   C22   A    
C30   C36   A    
C1    O3    A    
N4    C54   S    
O2    Zn2   S    
C30   C32   A    
C11   C13   A    
O5    Zn1   S    
C23   C39   S    
C28   C30   A    
C24   C40   S    
O3    Zn2   S    
C25   H3    S    
N8    H31   S    
C40   C44   A    
C53   H20   S    
C8    C10   A    
C38   N6    S    
C33   C38   A    
C54   H22   S    
C2    C9    S    
C8    N8    S    
C43   H10   S    
C25   C33   A    
C19   C21   A    
