data_mof_unit_49452.cif
_audit_creation_date              2012-12-10T19:31:56-0500
_audit_creation_method            fapswitch 2.2
_symmetry_space_group_name_H-M    P1
_symmetry_Int_Tables_number       1
_space_group_crystal_system       triclinic
_cell_length_a                    25.456493
_cell_length_b                    24.752576
_cell_length_c                    16.55734
_cell_angle_alpha                 89.979419
_cell_angle_beta                  89.987074
_cell_angle_gamma                 90.031237
_cell_volume                      10433.0055661

loop_
_atom_site_label
_atom_site_type_symbol
_atom_type_description
_atom_site_fract_x
_atom_site_fract_y
_atom_site_fract_z
_atom_type_partial_charge
C1    C     C_R   0.072422 0.427918 0.499837 0.798793
C2    C     C_R   0.927901 0.572414 0.499943 0.798605
C3    C     C_R   0.927811 0.427673 0.500051 0.799087
C4    C     C_R   0.072499 0.572007 0.500124 0.798708
C5    C     C_R   0.572966 0.928341 0.499878 0.795201
C6    C     C_R   0.427420 0.071953 0.499836 0.799903
C7    C     C_R   0.427714 0.927774 0.500090 0.792401
C8    C     C_R   0.572692 0.071941 0.500082 0.795025
C9    C     C_R   0.012470 0.546181 0.743554 0.501646
C10   C     C_R   0.012252 0.453717 0.256575 0.501723
C11   C     C_R   0.987297 0.453957 0.743785 0.505840
C12   C     C_R   0.987509 0.546045 0.256097 0.505300
C13   C     C_R   0.516006 0.044886 0.744080 0.496306
C14   C     C_R   0.515411 0.954868 0.255488 0.504132
C15   C     C_R   0.482127 0.955750 0.743440 0.504740
C16   C     C_R   0.482701 0.044667 0.256904 0.508661
C17   C     C_R   0.000185 0.500058 0.873420 -0.024733
C18   C     C_R   0.000278 0.499724 0.126590 -0.025457
C19   C     C_R   0.496071 0.001067 0.873388 -0.030456
C20   C     C_R   0.494764 0.999320 0.126587 -0.039521
C21   C     C_1   0.000499 0.499906 0.962976 -0.008558
C22   C     C_1   0.000545 0.499737 0.037025 -0.008285
C23   C     C_1   0.495622 0.000623 0.962924 0.007755
C24   C     C_1   0.495033 0.000376 0.036998 -0.007546
C25   C     C_R   0.166781 0.678142 0.575399 0.096933
C26   C     C_R   0.819962 0.333517 0.429679 0.098288
C27   C     C_R   0.843741 0.311240 0.569706 0.097618
C28   C     C_R   0.180247 0.666180 0.429325 0.097229
C29   C     C_R   0.844549 0.688962 0.429123 0.097804
C30   C     C_R   0.179349 0.332418 0.569551 0.097467
C31   C     C_R   0.166008 0.321669 0.423262 0.096886
C32   C     C_R   0.821133 0.668062 0.569810 0.098417
C33   C     C_R   0.671439 0.174445 0.576355 0.089508
C34   C     C_R   0.330600 0.822508 0.427923 0.101099
C35   C     C_R   0.323990 0.831505 0.575557 0.092833
C36   C     C_R   0.678534 0.168185 0.428065 0.105360
C37   C     C_R   0.328234 0.172529 0.422301 0.094781
C38   C     C_R   0.678146 0.831239 0.571725 0.105030
C39   C     C_R   0.678659 0.833634 0.422809 0.089870
C40   C     C_R   0.323637 0.170803 0.570694 0.097214
C41   C     C_R   0.127140 0.639209 0.573010 -0.224869
C42   C     C_R   0.857266 0.375420 0.431331 -0.210423
C43   C     C_R   0.880562 0.353046 0.568880 -0.235031
C44   C     C_R   0.141555 0.625687 0.430232 -0.210200
C45   C     C_R   0.881071 0.646929 0.430534 -0.234983
C46   C     C_R   0.140951 0.373196 0.569276 -0.210389
C47   C     C_R   0.126670 0.360841 0.426254 -0.224695
C48   C     C_R   0.857981 0.625729 0.568472 -0.210107
C49   C     C_R   0.631384 0.135473 0.573845 -0.206893
C50   C     C_R   0.369539 0.862777 0.428365 -0.223883
C51   C     C_R   0.363490 0.870583 0.573658 -0.212477
C52   C     C_R   0.639047 0.128580 0.428703 -0.208035
C53   C     C_R   0.368030 0.133838 0.425125 -0.218979
C54   C     C_R   0.637656 0.869733 0.571361 -0.208695
C55   C     C_R   0.637277 0.871115 0.425494 -0.209061
C56   C     C_R   0.362521 0.130520 0.570667 -0.213121
C57   C     C_R   0.114231 0.613026 0.500966 -0.106644
C58   C     C_R   0.887593 0.385102 0.500281 -0.103711
C59   C     C_R   0.888047 0.615326 0.499540 -0.104305
C60   C     C_R   0.113848 0.386597 0.498681 -0.106720
C61   C     C_R   0.614953 0.112689 0.500752 -0.112799
C62   C     C_R   0.386378 0.886352 0.500646 -0.102515
C63   C     C_R   0.385533 0.112860 0.498720 -0.105038
C64   C     C_R   0.616373 0.888837 0.499027 -0.111211
C65   C     C_R   0.192996 0.692242 0.502977 0.076027
C66   C     C_R   0.812542 0.302205 0.500432 0.076600
C67   C     C_R   0.813940 0.699169 0.498723 0.076563
C68   C     C_R   0.192007 0.306809 0.495481 0.076356
C69   C     C_R   0.695193 0.190255 0.502714 0.063738
C70   C     C_R   0.307605 0.807199 0.502476 0.077869
C71   C     C_R   0.306427 0.191712 0.495501 0.076461
C72   C     C_R   0.698610 0.813443 0.496737 0.063463
C73   C     C_1   0.233398 0.732834 0.503845 -0.089521
C74   C     C_1   0.771618 0.262223 0.502488 -0.085529
C75   C     C_1   0.773954 0.740195 0.496796 -0.085613
C76   C     C_1   0.232264 0.266093 0.494008 -0.087668
C77   C     C_1   0.736951 0.229410 0.503338 -0.096424
C78   C     C_1   0.267113 0.766712 0.503699 -0.085534
C79   C     C_1   0.265941 0.232188 0.494035 -0.087035
C80   C     C_1   0.739968 0.773782 0.496034 -0.095957
C81   C     C_R   0.018951 0.545018 0.829315 -0.111526
C82   C     C_R   0.018808 0.454754 0.170825 -0.111507
C83   C     C_R   0.980960 0.455243 0.829557 -0.111901
C84   C     C_R   0.981279 0.544698 0.170302 -0.111341
C85   C     C_R   0.520050 0.043722 0.830051 -0.114890
C86   C     C_R   0.516960 0.955503 0.169275 -0.096066
C87   C     C_R   0.473638 0.958236 0.828488 -0.111587
C88   C     C_R   0.473997 0.042708 0.171864 -0.107163
Cu1   Cu    Cu3+1 0.000000 0.500000 0.580420 0.987663
Cu2   Cu    Cu3+1 0.000000 0.500000 0.419580 0.987198
Cu3   Cu    Cu3+1 0.500000 1.000000 0.580420 0.984913
Cu4   Cu    Cu3+1 0.500000 1.000000 0.419580 0.976678
H1    H     H_    0.106520 0.629218 0.628222 0.204736
H2    H     H_    0.862704 0.401388 0.379660 0.137803
H3    H     H_    0.904380 0.359894 0.621975 0.209797
H4    H     H_    0.132709 0.603103 0.376390 0.140011
H5    H     H_    0.904653 0.639460 0.377379 0.211197
H6    H     H_    0.132179 0.395414 0.623480 0.139967
H7    H     H_    0.106315 0.371461 0.371098 0.205000
H8    H     H_    0.863317 0.599991 0.620397 0.137619
H9    H     H_    0.612749 0.122182 0.628730 0.203949
H10   H     H_    0.387123 0.876317 0.372680 0.135405
H11   H     H_    0.375625 0.889516 0.629617 0.193491
H12   H     H_    0.627044 0.109304 0.373438 0.142928
H13   H     H_    0.384857 0.119666 0.368962 0.203846
H14   H     H_    0.622494 0.885468 0.627183 0.143911
H15   H     H_    0.621172 0.887335 0.370467 0.202659
H16   H     H_    0.374940 0.112123 0.626322 0.141329
N1    N     N_R   0.000000 0.500000 0.701220 -0.255152
N2    N     N_R   0.000000 0.500000 0.298780 -0.255119
N3    N     N_R   0.500000 1.000000 0.701220 -0.254573
N4    N     N_R   0.500000 0.000000 0.298780 -0.260235
O1    O     O_R   0.054370 0.445630 0.567930 -0.581892
O2    O     O_R   0.945630 0.554370 0.432070 -0.530289
O3    O     O_R   0.945630 0.554370 0.567930 -0.582525
O4    O     O_R   0.054370 0.445630 0.432070 -0.531878
O5    O     O_R   0.945630 0.445630 0.432070 -0.582203
O6    O     O_R   0.054370 0.554370 0.567930 -0.531248
O7    O     O_R   0.054370 0.554370 0.432070 -0.582140
O8    O     O_R   0.945630 0.445630 0.567930 -0.529474
O9    O     O_R   0.554370 0.945630 0.567930 -0.582031
O10   O     O_R   0.445630 0.054370 0.432070 -0.524149
O11   O     O_R   0.445630 0.054370 0.567930 -0.588492
O12   O     O_R   0.554370 0.945630 0.432070 -0.535860
O13   O     O_R   0.445630 0.945630 0.432070 -0.610068
O14   O     O_R   0.554370 0.054370 0.567930 -0.525903
O15   O     O_R   0.554370 0.054370 0.432070 -0.580947
O16   O     O_R   0.445630 0.945630 0.567930 -0.520924
C89   C     C_3   0.180036 0.702871 0.656598 -0.422118
C90   C     C_3   0.209047 0.661876 0.709995 -0.333330
C91   C     C_3   0.225698 0.686739 0.790294 -0.867838
H17   H     H_    0.256215 0.718071 0.780216 0.252156
H18   H     H_    0.191410 0.705096 0.821348 0.252950
H19   H     H_    0.242454 0.654882 0.829856 0.245677
H20   H     H_    0.183050 0.626753 0.722554 0.219784
H21   H     H_    0.244640 0.647028 0.678017 0.221882
H22   H     H_    0.204273 0.739657 0.649838 0.214386
H23   H     H_    0.143113 0.715766 0.686905 0.192341
C92   C     C_3   0.787967 0.320868 0.354012 -0.399911
C93   C     C_3   0.802236 0.353553 0.278084 -0.365409
C94   C     C_3   0.770745 0.334538 0.205017 -0.858179
H24   H     H_    0.780285 0.291787 0.190964 0.255122
H25   H     H_    0.727953 0.338319 0.216888 0.252460
H26   H     H_    0.780892 0.359723 0.151724 0.241634
H27   H     H_    0.793609 0.397036 0.288316 0.217054
H28   H     H_    0.844709 0.348596 0.264226 0.210637
H29   H     H_    0.793484 0.277341 0.339689 0.200541
H30   H     H_    0.745713 0.327460 0.367871 0.196971
C95   C     C_3   0.840290 0.276394 0.644734 -0.412797
C96   C     C_3   0.810399 0.305453 0.712285 -0.327472
C97   C     C_3   0.813813 0.273863 0.791198 -0.870462
H31   H     H_    0.800071 0.231761 0.782127 0.254524
H32   H     H_    0.855057 0.272956 0.813036 0.249632
H33   H     H_    0.788923 0.293519 0.837764 0.245684
H34   H     H_    0.827105 0.346425 0.722334 0.224424
H35   H     H_    0.768468 0.309831 0.694690 0.217640
H36   H     H_    0.820989 0.237074 0.632034 0.197242
H37   H     H_    0.880797 0.266619 0.665305 0.193730
C98   C     C_3   0.208546 0.682198 0.351539 -0.395192
C99   C     C_3   0.189512 0.653881 0.274136 -0.371201
C100  C     C_3   0.218561 0.674720 0.199834 -0.851569
H38   H     H_    0.211597 0.718694 0.192132 0.253202
H39   H     H_    0.261343 0.667001 0.205772 0.253267
H40   H     H_    0.203955 0.653458 0.145210 0.240909
H41   H     H_    0.196532 0.609670 0.278882 0.215894
H42   H     H_    0.146824 0.661406 0.265500 0.211096
H43   H     H_    0.203545 0.726452 0.342990 0.198196
H44   H     H_    0.251155 0.673837 0.359243 0.196463
C101  C     C_3   0.840810 0.722486 0.352784 -0.412290
C102  C     C_3   0.812933 0.691117 0.285354 -0.327172
C103  C     C_3   0.819018 0.719739 0.204346 -0.871938
H45   H     H_    0.805117 0.762038 0.208860 0.259181
H46   H     H_    0.860934 0.719879 0.185689 0.250453
H47   H     H_    0.795635 0.698375 0.157613 0.245179
H48   H     H_    0.829621 0.649794 0.279548 0.224573
H49   H     H_    0.770488 0.687420 0.300210 0.215835
H50   H     H_    0.819906 0.761183 0.363154 0.195706
H51   H     H_    0.881270 0.733464 0.333293 0.194781
C104  C     C_3   0.207468 0.315604 0.647074 -0.396866
C105  C     C_3   0.189385 0.344239 0.724732 -0.369124
C106  C     C_3   0.218365 0.322704 0.798626 -0.856415
H52   H     H_    0.209823 0.279075 0.806985 0.255948
H53   H     H_    0.261374 0.328684 0.791673 0.251909
H54   H     H_    0.205055 0.344762 0.853321 0.241642
H55   H     H_    0.197283 0.388299 0.719914 0.216486
H56   H     H_    0.146599 0.337591 0.733918 0.210878
H57   H     H_    0.201512 0.271454 0.655452 0.199214
H58   H     H_    0.250235 0.323031 0.639091 0.196570
C107  C     C_3   0.179522 0.297986 0.341474 -0.419700
C108  C     C_3   0.209517 0.339552 0.290254 -0.333016
C109  C     C_3   0.227290 0.315837 0.209776 -0.869082
H59   H     H_    0.258711 0.285540 0.219836 0.256248
H60   H     H_    0.193773 0.296596 0.177916 0.254720
H61   H     H_    0.243362 0.348499 0.170970 0.244970
H62   H     H_    0.183812 0.374911 0.277929 0.219154
H63   H     H_    0.244683 0.353904 0.323842 0.221489
H64   H     H_    0.202932 0.260568 0.347275 0.208182
H65   H     H_    0.142640 0.286261 0.309991 0.190644
C110  C     C_3   0.789270 0.681154 0.645450 -0.398808
C111  C     C_3   0.803036 0.648174 0.721324 -0.365842
C112  C     C_3   0.771347 0.667010 0.794253 -0.857142
H66   H     H_    0.780711 0.709793 0.808393 0.255825
H67   H     H_    0.728609 0.662951 0.782167 0.251974
H68   H     H_    0.781471 0.641848 0.847561 0.241421
H69   H     H_    0.794210 0.604760 0.710749 0.217104
H70   H     H_    0.845477 0.652904 0.735595 0.210611
H71   H     H_    0.795333 0.724595 0.659840 0.199952
H72   H     H_    0.746960 0.675061 0.631506 0.196708
C113  C     C_3   0.689539 0.199718 0.655912 -0.396219
C114  C     C_3   0.657831 0.183479 0.731368 -0.364112
C115  C     C_3   0.677655 0.212210 0.806933 -0.855338
H73   H     H_    0.717765 0.198040 0.822165 0.252611
H74   H     H_    0.678066 0.256672 0.797799 0.257979
H75   H     H_    0.651344 0.202693 0.858530 0.240779
H76   H     H_    0.615856 0.194288 0.722684 0.227297
H77   H     H_    0.661125 0.139225 0.741637 0.218611
H78   H     H_    0.731408 0.188806 0.665758 0.201217
H79   H     H_    0.687191 0.244387 0.649660 0.203033
C116  C     C_3   0.312713 0.795541 0.349627 -0.393196
C117  C     C_3   0.341525 0.813634 0.272459 -0.372052
C118  C     C_3   0.321541 0.783370 0.198389 -0.849862
H80   H     H_    0.328359 0.739326 0.205430 0.253565
H81   H     H_    0.278967 0.791105 0.189604 0.253216
H82   H     H_    0.342978 0.797548 0.143925 0.239996
H83   H     H_    0.335179 0.857558 0.262385 0.216437
H84   H     H_    0.384299 0.805592 0.278648 0.213517
H85   H     H_    0.318166 0.751198 0.356267 0.198146
H86   H     H_    0.270053 0.803548 0.341729 0.195526
C119  C     C_3   0.298869 0.818603 0.656175 -0.416316
C120  C     C_3   0.250009 0.853820 0.669044 -0.336136
C121  C     C_3   0.227387 0.846872 0.753755 -0.871340
H87   H     H_    0.213820 0.804782 0.763022 0.258787
H88   H     H_    0.257366 0.857092 0.800056 0.257810
H89   H     H_    0.193248 0.874277 0.761532 0.242386
H90   H     H_    0.260527 0.897072 0.660551 0.221702
H91   H     H_    0.219438 0.843083 0.623877 0.219424
H92   H     H_    0.288806 0.775075 0.660007 0.199586
H93   H     H_    0.327426 0.826336 0.705741 0.196409
C122  C     C_3   0.703313 0.188080 0.349430 -0.397942
C123  C     C_3   0.680645 0.164093 0.271145 -0.369590
C124  C     C_3   0.706129 0.189432 0.196801 -0.856488
H94   H     H_    0.697481 0.233372 0.194569 0.255313
H95   H     H_    0.749341 0.183254 0.198021 0.252300
H96   H     H_    0.690065 0.170297 0.141401 0.241968
H97   H     H_    0.687859 0.119814 0.269616 0.217011
H98   H     H_    0.637662 0.171793 0.268186 0.212827
H99   H     H_    0.698300 0.232671 0.346699 0.200968
H100  H     H_    0.746122 0.179264 0.351433 0.197270
C125  C     C_3   0.309486 0.190828 0.339859 -0.420145
C126  C     C_3   0.276291 0.146378 0.300071 -0.333544
C127  C     C_3   0.253011 0.164911 0.219867 -0.868067
H101  H     H_    0.222306 0.195880 0.230532 0.255907
H102  H     H_    0.284057 0.181844 0.180123 0.255306
H103  H     H_    0.234527 0.130001 0.188789 0.244233
H104  H     H_    0.301149 0.110222 0.288878 0.218030
H105  H     H_    0.243664 0.134499 0.341090 0.221789
H106  H     H_    0.286618 0.228721 0.343608 0.208363
H107  H     H_    0.344118 0.200008 0.301218 0.191173
C128  C     C_3   0.700088 0.808212 0.650420 -0.395351
C129  C     C_3   0.675140 0.829691 0.728716 -0.371992
C130  C     C_3   0.699075 0.802775 0.802964 -0.856070
H108  H     H_    0.690974 0.758709 0.802073 0.256140
H109  H     H_    0.742185 0.809648 0.804732 0.252283
H110  H     H_    0.681345 0.820177 0.858436 0.240774
H111  H     H_    0.681666 0.873996 0.733346 0.217212
H112  H     H_    0.632240 0.821265 0.728675 0.212303
H113  H     H_    0.694772 0.763636 0.649122 0.199879
H114  H     H_    0.742947 0.816821 0.652444 0.197419
C131  C     C_3   0.702365 0.814783 0.342770 -0.396727
C132  C     C_3   0.676717 0.837958 0.265990 -0.364043
C133  C     C_3   0.703151 0.816975 0.189581 -0.865704
H115  H     H_    0.744112 0.832185 0.186101 0.250835
H116  H     H_    0.703109 0.772099 0.188730 0.261458
H117  H     H_    0.681407 0.831762 0.135796 0.241149
H118  H     H_    0.634702 0.826114 0.264031 0.233578
H119  H     H_    0.679765 0.882765 0.265964 0.222353
H120  H     H_    0.744679 0.825894 0.342374 0.199256
H121  H     H_    0.699550 0.769981 0.340102 0.204410
C134  C     C_3   0.299766 0.191981 0.649199 -0.395376
C135  C     C_3   0.321989 0.167584 0.727582 -0.370364
C136  C     C_3   0.296601 0.192783 0.802000 -0.856739
H122  H     H_    0.305202 0.236726 0.804264 0.255815
H123  H     H_    0.253419 0.186382 0.800897 0.252323
H124  H     H_    0.312756 0.173615 0.857328 0.241614
H125  H     H_    0.314309 0.123373 0.728906 0.216610
H126  H     H_    0.365050 0.174863 0.730788 0.210155
H127  H     H_    0.305998 0.236420 0.651270 0.199187
H128  H     H_    0.256741 0.184288 0.647657 0.196348
C137  C     C_3   0.046096 0.591318 0.873074 -0.369738
C138  C     C_3   0.100975 0.574581 0.902344 -0.323818
C139  C     C_3   0.126411 0.619332 0.952227 -0.876611
H129  H     H_    0.129359 0.657064 0.916223 0.256028
H130  H     H_    0.102877 0.627242 0.007492 0.249284
H131  H     H_    0.166545 0.606796 0.970599 0.242230
H132  H     H_    0.098904 0.537526 0.939995 0.220225
H133  H     H_    0.126274 0.565780 0.849189 0.215475
H134  H     H_    0.051465 0.626925 0.833282 0.216826
H135  H     H_    0.021399 0.604698 0.924712 0.189408
C140  C     C_3   0.045856 0.408344 0.127240 -0.369863
C141  C     C_3   0.100824 0.424934 0.098068 -0.324044
C142  C     C_3   0.126281 0.379984 0.048656 -0.876121
H136  H     H_    0.129068 0.342374 0.084968 0.255807
H137  H     H_    0.102857 0.371904 0.993344 0.249397
H138  H     H_    0.166484 0.392413 0.030381 0.242280
H139  H     H_    0.098885 0.461856 0.060113 0.220217
H140  H     H_    0.126032 0.433903 0.151256 0.215515
H141  H     H_    0.051066 0.372775 0.167142 0.216749
H142  H     H_    0.021190 0.394960 0.075568 0.189370
C143  C     C_3   0.953521 0.409209 0.873627 -0.369795
C144  C     C_3   0.899169 0.426699 0.904307 -0.324518
C145  C     C_3   0.874083 0.382719 0.956158 -0.878503
H143  H     H_    0.869980 0.344754 0.921060 0.258377
H144  H     H_    0.898495 0.374937 0.010549 0.250018
H145  H     H_    0.834470 0.395970 0.976027 0.241922
H146  H     H_    0.901956 0.464123 0.940953 0.221559
H147  H     H_    0.873229 0.435180 0.851787 0.215878
H148  H     H_    0.947181 0.373836 0.833727 0.216913
H149  H     H_    0.978537 0.395284 0.924575 0.189537
C146  C     C_3   0.954445 0.590920 0.125864 -0.369220
C147  C     C_3   0.900093 0.573909 0.094465 -0.322631
C148  C     C_3   0.877316 0.616483 0.037760 -0.879054
H150  H     H_    0.874624 0.656126 0.068760 0.257687
H151  H     H_    0.902472 0.620675 0.983260 0.249619
H152  H     H_    0.837330 0.604094 0.018382 0.241710
H153  H     H_    0.902190 0.535012 0.061307 0.221153
H154  H     H_    0.873051 0.568322 0.146561 0.215355
H155  H     H_    0.948172 0.626415 0.165538 0.214913
H156  H     H_    0.979956 0.604569 0.075290 0.190731
C149  C     C_3   0.554247 0.084868 0.873782 -0.344992
C150  C     C_3   0.522801 0.125868 0.924341 -0.339624
C151  C     C_3   0.553613 0.143855 0.998814 -0.885546
H157  H     H_    0.530713 0.174625 0.032579 0.236900
H158  H     H_    0.561008 0.108924 0.039399 0.254398
H159  H     H_    0.591761 0.161926 0.980534 0.255390
H160  H     H_    0.514508 0.162443 0.887932 0.202136
H161  H     H_    0.484445 0.108865 0.943383 0.219796
H162  H     H_    0.582064 0.062039 0.912764 0.200166
H163  H     H_    0.579368 0.107529 0.830571 0.202419
C152  C     C_3   0.543755 0.910084 0.123225 -0.333788
C153  C     C_3   0.503723 0.870905 0.085956 -0.349366
C154  C     C_3   0.530173 0.832240 0.026853 -0.891015
H164  H     H_    0.548703 0.855098 0.976591 0.249741
H165  H     H_    0.560647 0.808019 0.058384 0.258656
H166  H     H_    0.500382 0.804349 0.001124 0.244287
H167  H     H_    0.484229 0.846779 0.133589 0.220442
H168  H     H_    0.472378 0.893535 0.054353 0.221823
H169  H     H_    0.568873 0.927890 0.075129 0.191616
H170  H     H_    0.571167 0.887254 0.162581 0.217076
C155  C     C_3   0.440999 0.914947 0.869980 -0.376160
C156  C     C_3   0.388367 0.937660 0.899857 -0.333469
C157  C     C_3   0.356090 0.894263 0.942648 -0.880374
H171  H     H_    0.347527 0.860319 0.900777 0.253065
H172  H     H_    0.377710 0.878655 0.996050 0.250870
H173  H     H_    0.318287 0.911801 0.963388 0.244204
H174  H     H_    0.394752 0.971625 0.942401 0.221126
H175  H     H_    0.365558 0.953171 0.847486 0.219013
H176  H     H_    0.431765 0.881005 0.828635 0.221512
H177  H     H_    0.463820 0.897508 0.920361 0.201912
C158  C     C_3   0.441924 0.086509 0.130616 -0.376657
C159  C     C_3   0.388120 0.064921 0.103982 -0.327110
C160  C     C_3   0.358413 0.106910 0.054338 -0.877907
H178  H     H_    0.353472 0.144747 0.089515 0.255314
H179  H     H_    0.380125 0.115976 0.997705 0.246837
H180  H     H_    0.318966 0.091019 0.038359 0.244997
H181  H     H_    0.392586 0.027839 0.066966 0.220225
H182  H     H_    0.364533 0.054464 0.158331 0.217519
H183  H     H_    0.434617 0.121374 0.171151 0.217694
H184  H     H_    0.463971 0.102363 0.078222 0.206571
O17   O     O_3   0.021392 0.593588 0.701827 -0.569822
C161  C     C_3   0.977100 0.627631 0.710139 0.067211
H185  H     H_    0.974179 0.644270 0.772279 0.112647
H186  H     H_    0.939869 0.605865 0.697144 0.143792
C162  C     C_3   0.982244 0.674761 0.651646 -0.779220
H187  H     H_    0.986097 0.659663 0.588792 0.247773
H188  H     H_    0.946898 0.700903 0.655699 0.201310
H189  H     H_    0.017581 0.699059 0.666827 0.229870
O18   O     O_3   0.020882 0.406317 0.298438 -0.569843
C163  C     C_3   0.976487 0.372386 0.289947 0.067305
H190  H     H_    0.973570 0.355813 0.227769 0.112545
H191  H     H_    0.939317 0.394235 0.302916 0.143909
C164  C     C_3   0.981406 0.325183 0.348341 -0.778843
H192  H     H_    0.985294 0.340203 0.411230 0.247860
H193  H     H_    0.945953 0.299161 0.344214 0.201174
H194  H     H_    0.016651 0.300788 0.333122 0.229861
O19   O     O_3   0.978579 0.406412 0.702359 -0.569978
C165  C     C_3   0.022728 0.372331 0.712011 0.065041
H195  H     H_    0.024700 0.355458 0.774104 0.115282
H196  H     H_    0.060033 0.394286 0.700643 0.139656
C166  C     C_3   0.018705 0.325366 0.653060 -0.792515
H197  H     H_    0.015150 0.340627 0.590242 0.249367
H198  H     H_    0.054370 0.299726 0.657586 0.203233
H199  H     H_    0.983661 0.300427 0.667487 0.226282
O20   O     O_3   0.978865 0.593633 0.297425 -0.570491
C167  C     C_3   0.023170 0.627584 0.288021 0.065582
H200  H     H_    0.025376 0.644460 0.225950 0.114930
H201  H     H_    0.060365 0.605532 0.299581 0.139875
C168  C     C_3   0.019165 0.674552 0.346965 -0.791840
H202  H     H_    0.015426 0.659294 0.409763 0.249232
H203  H     H_    0.054920 0.700114 0.342604 0.203012
H204  H     H_    0.984225 0.699563 0.332392 0.226642
O21   O     O_3   0.530155 0.091242 0.703169 -0.578447
C169  C     C_3   0.488003 0.128343 0.705751 0.086410
H205  H     H_    0.487322 0.149657 0.764288 0.121863
H206  H     H_    0.449266 0.108393 0.697725 0.132788
C170  C     C_3   0.494923 0.170523 0.639650 -0.788029
H207  H     H_    0.496711 0.150923 0.579497 0.247127
H208  H     H_    0.461242 0.199012 0.640512 0.198201
H209  H     H_    0.531732 0.193612 0.649557 0.228801
O22   O     O_3   0.535427 0.910203 0.295176 -0.581567
C171  C     C_3   0.496612 0.869563 0.303456 0.101854
H210  H     H_    0.462823 0.873626 0.261038 0.096223
H211  H     H_    0.481188 0.870363 0.365649 0.184495
C172  C     C_3   0.521434 0.814000 0.293309 -0.892971
H212  H     H_    0.551537 0.807397 0.340823 0.253839
H213  H     H_    0.490749 0.782344 0.299299 0.214097
H214  H     H_    0.540205 0.809965 0.233256 0.250099
O23   O     O_3   0.470487 0.908763 0.702390 -0.566781
C173  C     C_3   0.512169 0.871741 0.712927 0.062764
H215  H     H_    0.510990 0.853526 0.774266 0.119515
H216  H     H_    0.551123 0.891302 0.704916 0.132419
C174  C     C_3   0.506848 0.826553 0.651201 -0.773512
H217  H     H_    0.508106 0.843344 0.589046 0.247694
H218  H     H_    0.539589 0.797335 0.658514 0.192960
H219  H     H_    0.468939 0.805096 0.659970 0.238159
O24   O     O_3   0.472520 0.091888 0.298207 -0.570062
C175  C     C_3   0.515159 0.127761 0.287351 0.061525
H220  H     H_    0.514985 0.145185 0.225463 0.119716
H221  H     H_    0.553548 0.107353 0.296774 0.137567
C176  C     C_3   0.510420 0.173874 0.347633 -0.778584
H222  H     H_    0.510293 0.157849 0.410269 0.247082
H223  H     H_    0.544158 0.201941 0.340564 0.196915
H224  H     H_    0.473325 0.196396 0.337050 0.234541

loop_
_geom_bond_atom_site_label_1
_geom_bond_atom_site_label_2
_ccdc_geom_bond_type
C40   C71   A    
O24   C175  S    
C139  H129  S    
C76   C79   T    
C42   C58   A    
C102  H49   S    
C142  H136  S    
C136  H124  S    
C152  H170  S    
C103  H46   S    
C172  H212  S    
C19   C87   A    
C52   C61   A    
C168  H203  S    
C159  H181  S    
C133  H115  S    
C12   C84   A    
C158  H183  S    
C101  H50   S    
C20   C24   S    
C135  H125  S    
C159  C160  S    
C43   C58   A    
C90   H20   S    
C18   C84   A    
C120  H91   S    
C99   H42   S    
C7    O16   A    
C33   C69   A    
C46   H6    S    
C110  C111  S    
C172  H213  S    
C21   C22   T    
C1    O1    A    
C87   C155  S    
C100  H39   S    
C38   C72   A    
C106  H53   S    
C48   H8    S    
C160  H180  S    
Cu1   O1    S    
C150  C151  S    
C109  H59   S    
Cu2   O5    S    
C93   C94   S    
C84   C146  S    
C26   C92   S    
C162  H189  S    
C25   C41   A    
C2    C59   S    
C144  H147  S    
C104  H58   S    
C28   C44   A    
C17   C21   S    
C5    C64   S    
C29   C45   A    
C122  H100  S    
C6    C63   S    
C155  H177  S    
C19   C23   S    
C7    C62   S    
C119  C120  S    
C15   N3    A    
Cu1   O8    S    
C44   C57   A    
C10   O18   S    
C8    O14   A    
C37   C71   A    
C35   C51   A    
C123  H97   S    
C165  C166  S    
C119  H92   S    
Cu1   Cu2   S    
C141  C142  S    
C142  H138  S    
C107  H64   S    
C45   C59   A    
C46   C60   A    
C19   C85   A    
C93   H27   S    
C92   C93   S    
O20   C167  S    
C137  H134  S    
C94   H25   S    
C90   C91   S    
C109  H61   S    
C113  H78   S    
C27   C66   A    
C170  H207  S    
C2    O2    A    
C140  H141  S    
C18   C82   A    
C98   H43   S    
C166  H197  S    
C165  H195  S    
C121  H89   S    
Cu2   O2    S    
C156  C157  S    
C167  H200  S    
C89   H22   S    
C148  H150  S    
C13   C85   A    
C158  C159  S    
C17   C83   A    
O22   C171  S    
C33   C49   A    
C34   C116  S    
C141  H139  S    
Cu1   O3    S    
C108  C109  S    
Cu2   O4    S    
C69   C77   S    
C157  H171  S    
C125  H107  S    
Cu4   O13   S    
C71   C79   S    
O21   C169  S    
C157  H173  S    
C176  H222  S    
C14   N4    A    
C125  C126  S    
C138  H133  S    
C139  H130  S    
C32   C110  S    
C130  H108  S    
C102  C103  S    
C114  H76   S    
C66   C74   S    
C47   H7    S    
C86   C152  S    
C124  H94   S    
C56   H16   S    
C128  H114  S    
C40   C134  S    
C74   C77   T    
C166  H199  S    
C23   C24   T    
C156  H175  S    
C116  H86   S    
C95   H37   S    
C36   C52   A    
C37   C53   A    
C36   C122  S    
C97   H32   S    
C35   C119  S    
Cu3   O11   S    
C112  H67   S    
C120  C121  S    
C51   C62   A    
C6    O11   A    
C149  H162  S    
C117  C118  S    
C137  C138  S    
C173  H216  S    
C154  H165  S    
C126  H105  S    
C41   H1    S    
C92   H30   S    
C131  H120  S    
C26   C66   A    
C135  C136  S    
C14   C86   A    
C16   C88   A    
C170  H209  S    
Cu3   Cu4   S    
C127  H103  S    
C146  C147  S    
C11   N1    A    
C134  H127  S    
C118  H80   S    
C44   H4    S    
Cu4   O10   S    
C173  C174  S    
C143  H149  S    
C134  C135  S    
C148  H152  S    
C113  C114  S    
C117  H84   S    
C171  H210  S    
C105  H56   S    
C108  H62   S    
C32   C67   A    
C146  H155  S    
C174  H219  S    
C147  H154  S    
C150  H160  S    
C145  H144  S    
C67   C75   S    
C153  H167  S    
Cu4   O15   S    
C26   C42   A    
C48   C59   A    
C166  H198  S    
C89   C90   S    
C176  H224  S    
C18   C22   S    
C132  H118  S    
C30   C46   A    
C129  C130  S    
C130  H110  S    
C136  H123  S    
C152  H169  S    
C96   H34   S    
C124  H96   S    
C29   C101  S    
C129  H111  S    
C72   C80   S    
C168  H202  S    
C159  H182  S    
C53   C63   A    
C54   C64   A    
C156  H174  S    
C11   O19   S    
C110  H72   S    
C151  H159  S    
C135  H126  S    
C53   H13   S    
C115  H75   S    
Cu3   O9    S    
C6    O10   A    
C96   C97   S    
C81   C137  S    
C129  H112  S    
C39   C131  S    
C133  H117  S    
C111  H69   S    
C101  H51   S    
C122  C123  S    
C145  H143  S    
C91   H19   S    
C100  H38   S    
C127  H101  S    
C106  H52   S    
C160  H179  S    
C5    O12   A    
C155  C156  S    
C169  H205  S    
C118  H82   S    
C162  H188  S    
C14   O22   S    
C49   H9    S    
C104  H57   S    
C175  H220  S    
C51   H11   S    
C88   C158  S    
C122  H99   S    
C138  C139  S    
C112  H66   S    
C3    O5    A    
C29   C67   A    
C39   C55   A    
C40   C56   A    
C20   C86   A    
C43   H3    S    
C97   H31   S    
C4    O7    A    
C34   C70   A    
C144  H146  S    
C31   C47   A    
C131  C132  S    
C123  H98   S    
C32   C48   A    
C12   N2    A    
C161  H185  S    
C102  H48   S    
C142  H137  S    
C9    N1    A    
C31   C68   A    
C103  H47   S    
C49   C61   A    
Cu3   O16   S    
C54   H14   S    
C101  C102  S    
C168  H204  S    
C93   H28   S    
C116  C117  S    
C12   O20   S    
Cu4   N4    S    
C11   C83   A    
C126  C127  S    
C154  H164  S    
C158  H184  S    
C151  H157  S    
C109  H60   S    
C2    O3    A    
C152  C153  S    
C38   C54   A    
C120  H90   S    
C121  H88   S    
C99   H41   S    
C7    O13   A    
C39   C72   A    
C167  H201  S    
C50   H10   S    
C172  H214  S    
C94   H26   S    
C68   C76   S    
C137  H135  S    
C155  H176  S    
C91   H17   S    
C100  H40   S    
C105  C106  S    
C16   N4    A    
O19   C165  S    
C106  H54   S    
C141  H140  S    
C144  C145  S    
C52   H12   S    
C42   H2    S    
C16   O24   S    
C125  H106  S    
C167  C168  S    
C161  H186  S    
C157  H172  S    
C31   C107  S    
C163  C164  S    
C28   C65   A    
C41   C57   A    
C95   C96   S    
C134  H128  S    
C114  H77   S    
C20   C88   A    
C10   C82   A    
C10   N2    A    
C17   C81   A    
C174  H217  S    
C107  C108  S    
C1    C60   S    
Cu2   O7    S    
C161  C162  S    
C128  H113  S    
C104  C105  S    
C3    C58   S    
C27   C43   A    
C83   C143  S    
C13   N3    A    
C164  H193  S    
C132  C133  S    
C116  H85   S    
C119  H93   S    
C94   H24   S    
C95   H36   S    
C30   C68   A    
C107  H65   S    
C103  H45   S    
Cu3   O14   S    
C5    O9    A    
C70   C78   S    
C149  C150  S    
C165  H196  S    
C85   C149  S    
C140  C141  S    
C25   C89   S    
C38   C128  S    
O23   C173  S    
C143  C144  S    
C92   H29   S    
C113  H79   S    
O17   C161  S    
C170  H208  S    
C140  H142  S    
C127  H102  S    
Cu1   N1    S    
C65   C73   S    
C98   H44   S    
C97   H33   S    
Cu3   N3    S    
C123  C124  S    
C47   C60   A    
C33   C113  S    
C15   O23   S    
C89   H23   S    
C98   C99   S    
C35   C70   A    
C111  C112  S    
C148  H151  S    
C4    C57   S    
C131  H121  S    
C73   C78   T    
C1    O4    A    
C75   C80   T    
C171  H211  S    
C108  H63   S    
C8    C61   S    
C9    O17   S    
C27   C95   S    
C150  H161  S    
C4    O6    A    
C153  H168  S    
C169  H206  S    
C176  H223  S    
C34   C50   A    
C138  H132  S    
C132  H119  S    
C139  H131  S    
C25   C65   A    
C171  C172  S    
C105  H55   S    
C130  H109  S    
C136  H122  S    
C147  H153  S    
C143  H148  S    
C28   C98   S    
C55   H15   S    
C124  H95   S    
C115  H73   S    
C164  H194  S    
C169  C170  S    
C8    O15   A    
C13   O21   S    
C30   C104  S    
C55   C64   A    
C110  H71   S    
C56   C63   A    
Cu1   O6    S    
C151  H158  S    
O18   C163  S    
C115  H74   S    
Cu4   O12   S    
C50   C62   A    
C112  H68   S    
Cu2   N2    S    
C128  C129  S    
C149  H163  S    
C36   C69   A    
C15   C87   A    
C173  H215  S    
C154  H166  S    
C126  H104  S    
C133  H116  S    
C111  H70   S    
C90   H21   S    
C82   C140  S    
C91   H18   S    
C160  H178  S    
C147  C148  S    
C118  H81   S    
C45   H5    S    
C162  H187  S    
C164  H192  S    
C175  H221  S    
C163  H190  S    
C37   C125  S    
C117  H83   S    
C99   C100  S    
C3    O8    A    
C146  H156  S    
C174  H218  S    
C114  C115  S    
C145  H145  S    
C121  H87   S    
C153  C154  S    
C96   H35   S    
C163  H191  S    
C9    C81   A    
C175  C176  S    
