data_mof_unit_31245.cif
_audit_creation_date              2012-12-10T17:25:32-0500
_audit_creation_method            fapswitch 2.2
_symmetry_space_group_name_H-M    P1
_symmetry_Int_Tables_number       1
_space_group_crystal_system       triclinic
_cell_length_a                    10.097788
_cell_length_b                    10.811448
_cell_length_c                    23.440741
_cell_angle_alpha                 89.906131
_cell_angle_beta                  81.16933
_cell_angle_gamma                 97.001716
_cell_volume                      2509.333074

loop_
_atom_site_label
_atom_site_type_symbol
_atom_type_description
_atom_site_fract_x
_atom_site_fract_y
_atom_site_fract_z
_atom_type_partial_charge
C1    C     C_R   0.558680 0.733226 0.496044 0.884100
C2    C     C_R   0.441320 0.266773 0.503954 0.884107
C3    C     C_R   0.617251 0.473396 0.754058 -0.094970
C4    C     C_R   0.382349 0.525474 0.245969 -0.095289
C5    C     C_R   0.616943 0.474110 0.694857 -0.215118
C6    C     C_R   0.382568 0.524490 0.305176 -0.214838
C7    C     C_R   0.500700 0.498319 0.672825 -0.048719
C8    C     C_R   0.499373 0.501910 0.327168 -0.048568
C9    C     C_R   0.384829 0.521270 0.710727 -0.212110
C10   C     C_R   0.615929 0.480941 0.289215 -0.212018
C11   C     C_R   0.385623 0.520731 0.769865 -0.092750
C12   C     C_R   0.615250 0.481800 0.230069 -0.092985
C13   C     C_R   0.501772 0.496998 0.791402 0.308049
C14   C     C_R   0.498508 0.503826 0.208584 0.308779
C15   C     C_2   0.596927 0.867003 0.490138 -0.183928
C16   C     C_2   0.403076 0.132993 0.509855 -0.183974
C17   C     C_2   0.499481 0.936616 0.509974 -0.196020
C18   C     C_2   0.500532 0.063386 0.490025 -0.195928
C19   C     C_2   0.927943 0.510772 0.504406 -0.133594
C20   C     C_2   0.072058 0.489232 0.495592 -0.133540
C21   C     C_R   0.500219 0.499587 0.610632 0.865818
C22   C     C_R   0.499786 0.500430 0.389367 0.865806
C23   C     C_R   0.486355 0.389986 0.121388 0.540806
C24   C     C_R   0.514068 0.610863 0.878604 0.540726
C25   C     C_R   0.508646 0.612672 0.118621 0.534013
C26   C     C_R   0.491581 0.388180 0.881385 0.533990
C27   C     C_R   0.509911 0.613849 0.059090 -0.062802
C28   C     C_R   0.490379 0.387006 0.940911 -0.062731
C29   C     C_R   0.499298 0.499868 0.030126 -0.056436
C30   C     C_R   0.501027 0.500985 0.969872 -0.056452
C31   C     C_R   0.486992 0.385167 0.061311 -0.095430
C32   C     C_R   0.513367 0.615683 0.938685 -0.095341
C33   C     C_R   0.522222 0.726720 0.028333 -0.164214
C34   C     C_R   0.478077 0.274136 0.971668 -0.164205
C35   C     C_R   0.524250 0.729256 0.968895 0.315880
C36   C     C_R   0.476093 0.271597 0.031101 0.315860
H1    H     H_    0.530685 0.814504 0.050519 0.240139
H2    H     H_    0.469592 0.186354 0.949483 0.240139
H3    H     H_    0.121514 0.616300 0.552040 0.164599
H4    H     H_    0.878485 0.383697 0.447962 0.164607
H5    H     H_    0.707110 0.455286 0.771006 0.141647
H6    H     H_    0.292019 0.542215 0.229050 0.141165
H7    H     H_    0.707420 0.455885 0.666490 0.162590
H8    H     H_    0.291549 0.541140 0.333579 0.162399
H9    H     H_    0.293972 0.540116 0.694787 0.165307
H10   H     H_    0.707251 0.463440 0.305119 0.165206
H11   H     H_    0.296413 0.539025 0.799044 0.145104
H12   H     H_    0.704975 0.465012 0.200849 0.144641
H13   H     H_    0.589158 0.105269 0.461133 0.193057
H14   H     H_    0.410864 0.894739 0.538873 0.193009
H15   H     H_    0.106848 0.420315 0.465083 0.160940
H16   H     H_    0.893155 0.579692 0.534913 0.161064
N1    N     N_R   0.497400 0.502187 0.148001 -0.367512
N2    N     N_R   0.502910 0.498662 0.851991 -0.367368
N3    N     N_2   0.842710 0.448880 0.476480 -0.194266
N4    N     N_2   0.157290 0.551120 0.523520 -0.194216
O1    O     O_R   0.431060 0.692470 0.504730 -0.606532
O2    O     O_R   0.568940 0.307530 0.495270 -0.606530
O3    O     O_R   0.651120 0.659650 0.489640 -0.608773
O4    O     O_R   0.348880 0.340350 0.510360 -0.608760
O5    O     O_R   0.389950 0.516450 0.591390 -0.616029
O6    O     O_R   0.610050 0.483550 0.408610 -0.616007
O7    O     O_R   0.610020 0.483630 0.576300 -0.614448
O8    O     O_R   0.389980 0.516370 0.423700 -0.614451
O9    O     O_2   0.474574 0.284760 0.153586 -0.486711
O10   O     O_2   0.526085 0.716093 0.846397 -0.486992
O11   O     O_2   0.519438 0.720954 0.147155 -0.525495
O12   O     O_2   0.480613 0.279887 0.852869 -0.525717
Zn1   Zn    Zn3+2 0.353060 0.521920 0.510080 0.942636
Zn2   Zn    Zn3+2 0.646940 0.478080 0.489920 0.942621
Br1   Br    Br    0.542738 0.893429 0.934238 -0.365001
Br2   Br    Br    0.457560 0.107427 0.065760 -0.364907
C37   C     C_R   0.268255 0.080728 0.541688 0.118976
C38   C     C_R   0.216471 0.130799 0.594618 -0.114764
C39   C     C_R   0.090395 0.081163 0.624429 -0.126761
C40   C     C_R   0.015227 0.980984 0.601889 -0.118985
C41   C     C_R   0.065596 0.930684 0.549312 -0.145595
C42   C     C_R   0.190579 0.981252 0.518899 -0.154568
H17   H     H_    0.274176 0.207307 0.613133 0.132873
H18   H     H_    0.051253 0.120019 0.665190 0.148381
H19   H     H_    0.917852 0.942474 0.625101 0.142482
H20   H     H_    0.007066 0.853402 0.531749 0.142572
H21   H     H_    0.227221 0.942446 0.477740 0.151831
C43   C     C_R   0.731732 0.919256 0.458288 0.119042
C44   C     C_R   0.809446 0.018719 0.481067 -0.154592
C45   C     C_R   0.934417 0.069272 0.450637 -0.145598
C46   C     C_R   0.984735 0.018970 0.398055 -0.118884
C47   C     C_R   0.909530 0.918804 0.375525 -0.126692
C48   C     C_R   0.783466 0.869181 0.405351 -0.114764
H22   H     H_    0.772842 0.057527 0.522230 0.151770
H23   H     H_    0.992976 0.146545 0.468193 0.142548
H24   H     H_    0.082100 0.057469 0.374830 0.142469
H25   H     H_    0.948632 0.879945 0.334759 0.148351
H26   H     H_    0.725732 0.792681 0.386844 0.132777

loop_
_geom_bond_atom_site_label_1
_geom_bond_atom_site_label_2
_ccdc_geom_bond_type
C46   C47   A    
C9    H9    S    
C27   C29   A    
C37   C38   A    
C11   H11   S    
C19   C20   S    
C25   O11   S    
C12   H12   S    
C41   C42   A    
C27   C33   A    
O4    Zn1   S    
C25   N1    A    
C19   H16   S    
C20   H15   S    
C45   H23   S    
C1    O3    A    
C44   C45   A    
C2    O4    A    
C24   N2    A    
O6    Zn2   S    
C7    C9    A    
C48   H26   S    
C42   H21   S    
C10   H10   S    
C8    C22   S    
C37   C42   A    
C1    C15   S    
C2    C16   S    
C39   H18   S    
C21   O5    A    
C3    C13   A    
C24   O10   S    
C5    H7    S    
C28   C34   A    
C6    H8    S    
C46   H24   S    
C26   N2    A    
C23   N1    A    
C38   C39   A    
C16   C37   S    
C32   C35   A    
C40   C41   A    
C4    C6    A    
C5    C7    A    
C45   C46   A    
O2    Zn2   S    
C6    C8    A    
C7    C21   S    
C22   O8    A    
C33   H1    S    
C23   C31   A    
C40   H19   S    
C39   C40   A    
C24   C32   A    
C29   C30   A    
C1    O1    A    
C22   O6    A    
H3    N4    S    
O7    Zn2   S    
H4    N3    S    
C17   C18   S    
O8    Zn1   S    
C43   C44   A    
C9    C11   A    
C10   C12   A    
C16   C18   D    
C12   C14   A    
C38   H17   S    
C43   C48   A    
C13   N2    S    
O5    Zn1   S    
C15   C17   D    
C47   H25   S    
C3    H5    S    
C34   H2    S    
C3    C5    A    
C17   H14   S    
C44   H22   S    
C2    O2    A    
C15   C43   S    
C19   N3    D    
C25   C27   A    
C26   C28   A    
C26   O12   S    
C23   O9    S    
C28   C30   A    
C29   C31   A    
C30   C32   A    
C11   C13   A    
C4    H6    S    
C41   H20   S    
C33   C35   A    
C34   C36   A    
C20   N4    D    
C4    C14   A    
C21   O7    A    
N3    Zn2   S    
O3    Zn2   S    
C35   Br1   S    
C14   N1    S    
C47   C48   A    
C8    C10   A    
N4    Zn1   S    
C31   C36   A    
O1    Zn1   S    
C36   Br2   S    
C18   H13   S    
