data_mof_unit_64337.cif
_audit_creation_date              2012-12-10T17:54:32-0500
_audit_creation_method            fapswitch 2.2
_symmetry_space_group_name_H-M    P1
_symmetry_Int_Tables_number       1
_space_group_crystal_system       monoclinic
_cell_length_a                    21.676648
_cell_length_b                    21.676648
_cell_length_c                    30.079731
_cell_angle_alpha                 90.0
_cell_angle_beta                  90.0
_cell_angle_gamma                 90.000016
_cell_volume                      14133.775824

loop_
_atom_site_label
_atom_site_type_symbol
_atom_type_description
_atom_site_fract_x
_atom_site_fract_y
_atom_site_fract_z
_atom_type_partial_charge
C1    C     C_R   0.500000 0.119912 0.500000 1.022379
C2    C     C_R   0.119912 0.500000 0.500000 1.022384
C3    C     C_R   0.500000 0.880088 0.500000 1.022384
C4    C     C_R   0.880088 0.500000 0.500000 1.022380
C5    C     C_R   0.000000 0.619912 0.000000 1.022381
C6    C     C_R   0.619912 1.000000 1.000000 1.022382
C7    C     C_R   0.000000 0.380088 0.000000 1.022382
C8    C     C_R   0.380087 0.000000 1.000000 1.022381
C9    C     C_R   0.500000 0.000000 0.773225 0.060025
C10   C     C_R   1.000000 0.500000 0.773225 0.060024
C11   C     C_R   0.500000 0.000000 0.226775 0.060024
C12   C     C_R   1.000000 0.500000 0.226774 0.060025
C13   C     C_R   1.000000 0.500000 0.273225 0.060025
C14   C     C_R   0.500000 0.000000 0.273225 0.060025
C15   C     C_R   1.000000 0.500000 0.726774 0.060025
C16   C     C_R   0.500000 0.000000 0.726774 0.060025
C17   C     C_R   0.420911 0.919913 0.773146 -0.206069
C18   C     C_R   0.919912 0.579088 0.773146 -0.206069
C19   C     C_R   0.579089 0.080087 0.773146 -0.206069
C20   C     C_R   0.080088 0.420912 0.773146 -0.206069
C21   C     C_R   0.420912 0.080088 0.226854 -0.206069
C22   C     C_R   0.919913 0.420911 0.226854 -0.206069
C23   C     C_R   0.579088 0.919912 0.226854 -0.206069
C24   C     C_R   0.080087 0.579089 0.226854 -0.206069
C25   C     C_R   0.920912 0.419912 0.273146 -0.206069
C26   C     C_R   0.419913 0.079089 0.273146 -0.206069
C27   C     C_R   0.079088 0.580088 0.273146 -0.206069
C28   C     C_R   0.580087 0.920911 0.273146 -0.206069
C29   C     C_R   0.920911 0.580087 0.726854 -0.206069
C30   C     C_R   0.419912 0.920912 0.726854 -0.206069
C31   C     C_R   0.079089 0.419913 0.726854 -0.206069
C32   C     C_R   0.580088 0.079088 0.726854 -0.206069
C33   C     C_R   0.522846 0.218110 0.462372 -0.032262
C34   C     C_R   0.218110 0.477156 0.462372 -0.032262
C35   C     C_R   0.477156 0.781890 0.462372 -0.032262
C36   C     C_R   0.781890 0.522846 0.462373 -0.032262
C37   C     C_R   0.522844 0.781890 0.537628 -0.032262
C38   C     C_R   0.218110 0.522844 0.537628 -0.032262
C39   C     C_R   0.477154 0.218110 0.537627 -0.032262
C40   C     C_R   0.781890 0.477154 0.537628 -0.032262
C41   C     C_R   0.022845 0.718109 0.962372 -0.032261
C42   C     C_R   0.718109 0.977155 0.962372 -0.032262
C43   C     C_R   0.977155 0.281890 0.962372 -0.032261
C44   C     C_R   0.281890 0.022845 0.962372 -0.032262
C45   C     C_R   0.022845 0.281890 0.037628 -0.032262
C46   C     C_R   0.718109 0.022845 0.037628 -0.032261
C47   C     C_R   0.977155 0.718109 0.037628 -0.032262
C48   C     C_R   0.281890 0.977155 0.037628 -0.032261
C49   C     C_R   0.500000 0.185991 0.500000 -0.066874
C50   C     C_R   0.185991 0.500000 0.500000 -0.066873
C51   C     C_R   0.500000 0.814009 0.500000 -0.066873
C52   C     C_R   0.814009 0.500000 0.500000 -0.066874
C53   C     C_R   0.000000 0.685991 0.000000 -0.066873
C54   C     C_R   0.685991 1.000000 1.000000 -0.066873
C55   C     C_R   1.000000 0.314009 0.000000 -0.066873
C56   C     C_R   0.314009 0.000000 1.000000 -0.066873
C57   C     C_R   0.500000 0.000000 0.586756 1.031023
C58   C     C_R   1.000000 0.500000 0.586756 1.031022
C59   C     C_R   0.500000 0.000000 0.413244 1.031022
C60   C     C_R   1.000000 0.500000 0.413244 1.031024
C61   C     C_R   1.000000 0.500000 0.086756 1.031022
C62   C     C_R   0.500000 0.000000 0.086756 1.031023
C63   C     C_R   1.000000 0.500000 0.913244 1.031024
C64   C     C_R   0.500000 0.000000 0.913244 1.031022
C65   C     C_R   0.522957 0.281958 0.463226 -0.275055
C66   C     C_R   0.281958 0.477045 0.463225 -0.275055
C67   C     C_R   0.477045 0.718042 0.463225 -0.275055
C68   C     C_R   0.718042 0.522957 0.463226 -0.275055
C69   C     C_R   0.522955 0.718042 0.536775 -0.275055
C70   C     C_R   0.281958 0.522955 0.536775 -0.275056
C71   C     C_R   0.477043 0.281958 0.536774 -0.275056
C72   C     C_R   0.718042 0.477043 0.536774 -0.275055
C73   C     C_R   0.022956 0.781958 0.963225 -0.275055
C74   C     C_R   0.781958 0.977044 0.963225 -0.275054
C75   C     C_R   0.977044 0.218042 0.963225 -0.275055
C76   C     C_R   0.218042 0.022956 0.963225 -0.275055
C77   C     C_R   0.022955 0.218042 0.036775 -0.275055
C78   C     C_R   0.781958 0.022956 0.036775 -0.275056
C79   C     C_R   0.977044 0.781958 0.036775 -0.275056
C80   C     C_R   0.218042 0.977044 0.036775 -0.275056
C81   C     C_R   0.500000 0.313456 0.500000 -0.012075
C82   C     C_R   0.313456 0.500000 0.500000 -0.012076
C83   C     C_R   0.500000 0.686544 0.500000 -0.012076
C84   C     C_R   0.686544 0.500000 0.500000 -0.012075
C85   C     C_R   0.000000 0.813456 0.000000 -0.012075
C86   C     C_R   0.813456 0.000000 0.000000 -0.012075
C87   C     C_R   1.000000 0.186544 0.000000 -0.012075
C88   C     C_R   0.186544 1.000000 1.000000 -0.012075
C89   C     C_R   0.379681 0.500000 0.500000 0.886999
C90   C     C_R   0.500000 0.620319 0.500000 0.886999
C91   C     C_R   0.620319 0.500000 0.500000 0.886998
C92   C     C_R   0.500000 0.379681 0.500000 0.886998
C93   C     C_R   0.879681 0.000000 0.000000 0.886999
C94   C     C_R   1.000000 0.120318 0.000000 0.886998
C95   C     C_R   0.120318 1.000000 0.000000 0.886998
C96   C     C_R   0.000000 0.879681 0.000000 0.886999
C97   C     C_R   0.538262 0.041114 0.842640 -0.215907
C98   C     C_R   0.041114 0.461738 0.842640 -0.215907
C99   C     C_R   0.461738 0.958886 0.842640 -0.215907
C100  C     C_R   0.958885 0.538262 0.842640 -0.215907
C101  C     C_R   0.538262 0.958886 0.157360 -0.215906
C102  C     C_R   0.041114 0.538262 0.157360 -0.215908
C103  C     C_R   0.461738 0.041114 0.157360 -0.215907
C104  C     C_R   0.958886 0.461738 0.157360 -0.215907
C105  C     C_R   0.038262 0.541114 0.342640 -0.215907
C106  C     C_R   0.541114 0.961738 0.342640 -0.215908
C107  C     C_R   0.961738 0.458886 0.342640 -0.215906
C108  C     C_R   0.458886 0.038263 0.342640 -0.215908
C109  C     C_R   0.038262 0.458886 0.657360 -0.215907
C110  C     C_R   0.541114 0.038262 0.657360 -0.215907
C111  C     C_R   0.961737 0.541114 0.657360 -0.215908
C112  C     C_R   0.458886 0.961738 0.657360 -0.215907
C113  C     C_R   0.500000 0.000000 0.865402 -0.019838
C114  C     C_R   1.000000 0.500000 0.865402 -0.019838
C115  C     C_R   0.500000 0.000000 0.134598 -0.019838
C116  C     C_R   1.000000 0.500000 0.134598 -0.019838
C117  C     C_R   1.000000 0.500000 0.365402 -0.019838
C118  C     C_R   0.500000 0.000000 0.365402 -0.019838
C119  C     C_R   1.000000 0.500000 0.634598 -0.019838
C120  C     C_R   0.500000 0.000000 0.634598 -0.019838
C121  C     C_R   0.460656 0.959290 0.796450 0.107907
C122  C     C_R   0.959289 0.539344 0.796450 0.107906
C123  C     C_R   0.539344 0.040710 0.796450 0.107906
C124  C     C_R   0.040711 0.460656 0.796450 0.107907
C125  C     C_R   0.460656 0.040711 0.203550 0.107907
C126  C     C_R   0.959290 0.460656 0.203550 0.107906
C127  C     C_R   0.539344 0.959289 0.203550 0.107907
C128  C     C_R   0.040710 0.539344 0.203550 0.107907
C129  C     C_R   0.960656 0.459289 0.296450 0.107907
C130  C     C_R   0.459290 0.039344 0.296450 0.107907
C131  C     C_R   0.039344 0.540711 0.296450 0.107906
C132  C     C_R   0.540710 0.960656 0.296450 0.107906
C133  C     C_R   0.960656 0.540710 0.703550 0.107907
C134  C     C_R   0.459289 0.960656 0.703550 0.107906
C135  C     C_R   0.039344 0.459290 0.703550 0.107906
C136  C     C_R   0.540711 0.039344 0.703550 0.107907
H1    H     H_    0.540729 0.307378 0.434917 0.148934
H2    H     H_    0.307378 0.459274 0.434916 0.148935
H3    H     H_    0.459274 0.692622 0.434916 0.148935
H4    H     H_    0.692622 0.540729 0.434917 0.148934
H5    H     H_    0.540726 0.692622 0.565084 0.148935
H6    H     H_    0.307378 0.540726 0.565084 0.148935
H7    H     H_    0.459271 0.307378 0.565083 0.148934
H8    H     H_    0.692622 0.459271 0.565083 0.148934
H9    H     H_    0.040727 0.807378 0.934917 0.148935
H10   H     H_    0.807378 0.959273 0.934917 0.148935
H11   H     H_    0.959273 0.192622 0.934917 0.148935
H12   H     H_    0.192622 0.040727 0.934917 0.148935
H13   H     H_    0.040727 0.192622 0.065083 0.148935
H14   H     H_    0.807378 0.040727 0.065083 0.148935
H15   H     H_    0.959273 0.807378 0.065083 0.148935
H16   H     H_    0.192622 0.959273 0.065083 0.148935
O1    O     O_R   0.448270 0.091530 0.499990 -0.615723
O2    O     O_R   0.091530 0.551730 0.499990 -0.615719
O3    O     O_R   0.551730 0.908470 0.499990 -0.615722
O4    O     O_R   0.908470 0.448270 0.499990 -0.615720
O5    O     O_R   0.448270 0.908470 0.500010 -0.615719
O6    O     O_R   0.091530 0.448270 0.500010 -0.615722
O7    O     O_R   0.551730 0.091530 0.500010 -0.615720
O8    O     O_R   0.908470 0.551730 0.500010 -0.615723
O9    O     O_R   0.948270 0.591530 0.999990 -0.615720
O10   O     O_R   0.591530 0.051730 0.999990 -0.615722
O11   O     O_R   0.051730 0.408470 0.999990 -0.615721
O12   O     O_R   0.408470 0.948270 0.999990 -0.615722
O13   O     O_R   0.948270 0.408470 0.000010 -0.615721
O14   O     O_R   0.591530 0.948270 0.000010 -0.615720
O15   O     O_R   0.051730 0.591530 0.000010 -0.615723
O16   O     O_R   0.408470 0.051730 0.000010 -0.615720
O17   O     O_R   0.448270 0.999890 0.566070 -0.618070
O18   O     O_R   0.999890 0.551730 0.566070 -0.618069
O19   O     O_R   0.551730 0.000110 0.566070 -0.618070
O20   O     O_R   0.000110 0.448270 0.566070 -0.618069
O21   O     O_R   0.448270 0.000110 0.433930 -0.618068
O22   O     O_R   0.999890 0.448270 0.433930 -0.618069
O23   O     O_R   0.551730 0.999890 0.433930 -0.618069
O24   O     O_R   0.000110 0.551730 0.433930 -0.618070
O25   O     O_R   0.948270 0.499890 0.066070 -0.618069
O26   O     O_R   0.499890 0.051730 0.066070 -0.618070
O27   O     O_R   0.051730 0.500110 0.066070 -0.618070
O28   O     O_R   0.500110 0.948270 0.066070 -0.618070
O29   O     O_R   0.948270 0.500110 0.933930 -0.618069
O30   O     O_R   0.499890 0.948270 0.933930 -0.618069
O31   O     O_R   0.051730 0.499890 0.933930 -0.618070
O32   O     O_R   0.500110 0.051730 0.933930 -0.618069
O33   O     O_R   0.408290 0.499920 0.462700 -0.628527
O34   O     O_R   0.499920 0.591710 0.462700 -0.628528
O35   O     O_R   0.591710 0.500080 0.462700 -0.628527
O36   O     O_R   0.500080 0.408290 0.462700 -0.628527
O37   O     O_R   0.408290 0.500080 0.537300 -0.628528
O38   O     O_R   0.499920 0.408290 0.537300 -0.628527
O39   O     O_R   0.591710 0.499920 0.537300 -0.628527
O40   O     O_R   0.500080 0.591710 0.537300 -0.628528
O41   O     O_R   0.908290 0.999920 0.962700 -0.628527
O42   O     O_R   0.999920 0.091710 0.962700 -0.628527
O43   O     O_R   0.091710 0.000080 0.962700 -0.628527
O44   O     O_R   0.000080 0.908290 0.962700 -0.628527
O45   O     O_R   0.908290 0.000080 0.037300 -0.628528
O46   O     O_R   0.999920 0.908290 0.037300 -0.628528
O47   O     O_R   0.091710 0.999920 0.037300 -0.628528
O48   O     O_R   0.000080 0.091710 0.037300 -0.628528
Zn1   Zn    Zn3+2 0.430930 0.000000 0.500000 1.012976
Zn2   Zn    Zn3+2 0.000000 0.569070 0.500000 1.012976
Zn3   Zn    Zn3+2 0.569070 0.000000 0.500000 1.012976
Zn4   Zn    Zn3+2 0.000000 0.430930 0.500000 1.012976
Zn5   Zn    Zn3+2 0.930930 0.500000 0.000000 1.012977
Zn6   Zn    Zn3+2 0.500000 0.069070 0.000000 1.012976
Zn7   Zn    Zn3+2 0.069070 0.500000 0.000000 1.012976
Zn8   Zn    Zn3+2 0.500000 0.930930 0.000000 1.012976
Zn9   Zn    Zn3+2 0.500000 0.500000 0.450200 0.946581
Zn10  Zn    Zn3+2 0.500000 0.500000 0.549800 0.946581
Zn11  Zn    Zn3+2 0.000000 0.000000 0.950200 0.946581
Zn12  Zn    Zn3+2 0.000000 0.000000 0.049800 0.946581
H17   H     H_    0.390436 0.888668 0.790715 0.149664
H18   H     H_    0.888667 0.609563 0.790715 0.149665
H19   H     H_    0.609564 0.111332 0.790715 0.149665
H20   H     H_    0.111333 0.390437 0.790715 0.149665
H21   H     H_    0.390437 0.111333 0.209285 0.149665
H22   H     H_    0.888668 0.390436 0.209285 0.149665
H23   H     H_    0.609563 0.888667 0.209285 0.149665
H24   H     H_    0.111332 0.609564 0.209285 0.149664
H25   H     H_    0.890436 0.388667 0.290715 0.149665
H26   H     H_    0.388668 0.109564 0.290715 0.149664
H27   H     H_    0.109563 0.611333 0.290715 0.149665
H28   H     H_    0.611332 0.890436 0.290715 0.149664
H29   H     H_    0.890435 0.611332 0.709285 0.149664
H30   H     H_    0.388667 0.890437 0.709285 0.149664
H31   H     H_    0.109564 0.388668 0.709285 0.149664
H32   H     H_    0.611333 0.109563 0.709285 0.149665
C137  C     C_2   0.545957 0.188256 0.421045 0.364764
H33   H     H_    0.572152 0.215231 0.397191 0.073175
O49   O     O_2   0.534703 0.134599 0.412123 -0.604726
C138  C     C_2   0.188256 0.454047 0.421044 0.364763
H34   H     H_    0.215231 0.427853 0.397189 0.073175
O50   O     O_2   0.134599 0.465300 0.412123 -0.604728
C139  C     C_2   0.454047 0.811744 0.421044 0.364760
H35   H     H_    0.427855 0.784768 0.397188 0.073175
O51   O     O_2   0.465298 0.865402 0.412123 -0.604726
C140  C     C_2   0.811744 0.545957 0.421045 0.364767
H36   H     H_    0.784770 0.572154 0.397191 0.073175
O52   O     O_2   0.865401 0.534701 0.412123 -0.604727
C141  C     C_2   0.545953 0.811744 0.578956 0.364763
H37   H     H_    0.572147 0.784769 0.602811 0.073175
O53   O     O_2   0.534700 0.865401 0.587877 -0.604728
C142  C     C_2   0.188256 0.545953 0.578956 0.364760
H38   H     H_    0.215232 0.572145 0.602812 0.073175
O54   O     O_2   0.134598 0.534702 0.587877 -0.604726
C143  C     C_2   0.454043 0.188255 0.578955 0.364767
H39   H     H_    0.427846 0.215230 0.602808 0.073175
O55   O     O_2   0.465299 0.134599 0.587877 -0.604727
C144  C     C_2   0.811744 0.454043 0.578955 0.364764
H40   H     H_    0.784769 0.427848 0.602809 0.073175
O56   O     O_2   0.865401 0.465297 0.587877 -0.604726
C145  C     C_2   0.045955 0.688256 0.921045 0.364764
H41   H     H_    0.072150 0.715231 0.897190 0.073175
O57   O     O_2   0.034701 0.634599 0.912123 -0.604727
C146  C     C_2   0.688256 0.954045 0.921044 0.364763
H42   H     H_    0.715231 0.927851 0.897189 0.073175
O58   O     O_2   0.634599 0.965299 0.912123 -0.604727
C147  C     C_2   0.954045 0.311744 0.921044 0.364764
H43   H     H_    0.927851 0.284769 0.897189 0.073175
O59   O     O_2   0.965299 0.365401 0.912123 -0.604727
C148  C     C_2   0.311744 0.045955 0.921044 0.364764
H44   H     H_    0.284769 0.072149 0.897190 0.073175
O60   O     O_2   0.365401 0.034702 0.912123 -0.604727
C149  C     C_2   0.045955 0.311744 0.078956 0.364763
H45   H     H_    0.072149 0.284769 0.102810 0.073176
O61   O     O_2   0.034701 0.365401 0.087877 -0.604727
C150  C     C_2   0.688256 0.045955 0.078956 0.364764
H46   H     H_    0.715231 0.072149 0.102810 0.073175
O62   O     O_2   0.634599 0.034701 0.087877 -0.604727
C151  C     C_2   0.954045 0.688256 0.078955 0.364764
H47   H     H_    0.927851 0.715231 0.102810 0.073176
O63   O     O_2   0.965298 0.634599 0.087877 -0.604727
C152  C     C_2   0.311744 0.954045 0.078955 0.364764
H48   H     H_    0.284769 0.927850 0.102810 0.073175
O64   O     O_2   0.365401 0.965299 0.087877 -0.604727
H49   H     H_    0.568012 0.072315 0.860972 0.157940
H50   H     H_    0.072315 0.431989 0.860972 0.157940
H51   H     H_    0.431988 0.927685 0.860972 0.157939
H52   H     H_    0.927685 0.568011 0.860972 0.157940
H53   H     H_    0.568011 0.927685 0.139028 0.157940
H54   H     H_    0.072314 0.568012 0.139028 0.157939
H55   H     H_    0.431988 0.072315 0.139028 0.157940
H56   H     H_    0.927685 0.431988 0.139028 0.157940
H57   H     H_    0.068011 0.572315 0.360972 0.157941
H58   H     H_    0.572314 0.931988 0.360972 0.157939
H59   H     H_    0.931988 0.427685 0.360972 0.157940
H60   H     H_    0.427685 0.068012 0.360972 0.157939
H61   H     H_    0.068012 0.427686 0.639028 0.157939
H62   H     H_    0.572315 0.068012 0.639028 0.157940
H63   H     H_    0.931988 0.572314 0.639028 0.157939
H64   H     H_    0.427685 0.931989 0.639028 0.157941

loop_
_geom_bond_atom_site_label_1
_geom_bond_atom_site_label_2
_ccdc_geom_bond_type
C29   C133  A    
C21   C26   A    
C38   C70   A    
C67   C83   A    
C63   O29   A    
O16   Zn6   S    
C37   C69   A    
C109  C135  A    
O31   Zn7   S    
C102  H54   S    
C11   C127  A    
C24   C27   A    
C29   H29   S    
C107  C129  A    
O23   Zn3   S    
C25   C129  A    
C34   C66   A    
C43   C147  S    
C33   C65   A    
C105  C131  A    
C109  H61   S    
C36   C68   A    
C98   C124  A    
C12   C13   A    
C3    O5    A    
C19   C123  A    
O48   Zn12  S    
C82   C89   S    
C4    C52   S    
C108  H60   S    
C20   H20   S    
O8    Zn2   S    
O21   Zn1   S    
C58   O18   A    
C9    C16   A    
O47   Zn12  S    
C10   C124  A    
C10   C15   A    
C62   O28   A    
C145  H41   S    
C37   C51   A    
C85   C96   S    
C33   C137  S    
C98   C114  A    
C12   C126  A    
C110  C136  A    
C33   C49   A    
C151  H47   S    
C87   C94   S    
C41   C145  S    
O3    Zn3   S    
C111  H63   S    
C142  H38   S    
C111  C119  A    
C141  H37   S    
C1    C49   S    
C44   C76   A    
C95   O47   A    
C97   H49   S    
C58   C119  S    
C8    O16   A    
C9    C123  A    
O42   Zn11  S    
C104  C116  A    
C63   C114  S    
C99   H51   S    
C100  C122  A    
C32   H32   S    
C15   C135  A    
C142  O54   D    
C6    O14   A    
C30   C134  A    
C22   C25   A    
C146  O58   D    
C26   H26   S    
C9    C121  A    
C139  H35   S    
C25   H25   S    
C152  H48   S    
C84   C91   S    
C47   C79   A    
C27   H27   S    
O46   Zn12  S    
C149  H45   S    
C76   C88   A    
C152  O64   D    
C101  H53   S    
C36   C52   A    
C23   H23   S    
C28   H28   S    
C99   C121  A    
C64   O30   A    
C78   C86   A    
C45   C149  S    
C110  H62   S    
C88   C95   S    
C16   C134  A    
C2    O2    A    
C21   H21   S    
C106  C118  A    
C21   C125  A    
C36   C140  S    
C17   C30   A    
C139  O51   D    
C48   C152  S    
O9    Zn5   S    
C18   H18   S    
O14   Zn8   S    
C6    C54   S    
C17   H17   S    
C19   C32   A    
C103  H55   S    
O2    Zn2   S    
O19   Zn3   S    
C92   O38   A    
C7    O13   A    
O1    Zn1   S    
C143  O55   D    
C43   C75   A    
C98   H50   S    
C77   C87   A    
C140  O52   D    
C70   H6    S    
C94   O48   A    
C63   O31   A    
C38   C50   A    
O32   Zn6   S    
C30   H30   S    
C68   C84   A    
C6    O10   A    
C89   O33   A    
C1    O7    A    
C37   C141  S    
C103  C115  A    
C31   C135  A    
O12   Zn8   S    
C110  C120  A    
C11   C14   A    
C112  C120  A    
C3    C51   S    
C105  C117  A    
C148  O60   D    
C90   O34   A    
C147  O59   D    
C144  H40   S    
C40   C52   A    
O17   Zn1   S    
C46   C78   A    
C105  H57   S    
C27   C131  A    
C76   H12   S    
C73   H9    S    
C28   C132  A    
C5    O9    A    
C31   H31   S    
O29   Zn5   S    
O43   Zn11  S    
C137  H33   S    
C69   C83   A    
C86   C93   S    
C108  C118  A    
C66   C82   A    
C40   C144  S    
O36   Zn9   S    
C44   C56   A    
O35   Zn9   S    
C65   C81   A    
C66   H2    S    
O27   Zn7   S    
C35   C67   A    
C61   O25   A    
C2    O6    A    
O18   Zn2   S    
C41   C53   A    
C146  H42   S    
C46   C54   A    
C61   C116  S    
O22   Zn4   S    
C13   C131  A    
C91   O39   A    
C100  C114  A    
C60   C117  S    
C34   C138  S    
C18   C29   A    
C23   C28   A    
C74   C86   A    
C1    O1    A    
C149  O61   D    
O30   Zn8   S    
C73   C85   A    
C72   C84   A    
C42   C74   A    
C18   C122  A    
C57   C120  S    
C39   C143  S    
C7    C55   S    
C24   H24   S    
O38   Zn10  S    
C43   C55   A    
C4    O4    A    
C150  O62   D    
C61   O27   A    
C59   C118  S    
C2    C50   S    
C8    O12   A    
C101  C115  A    
O33   Zn9   S    
C68   H4    S    
O5    Zn1   S    
C3    O3    A    
O40   Zn10  S    
C58   O20   A    
C97   C113  A    
C147  H43   S    
C16   C136  A    
C92   O36   A    
C151  O63   D    
C79   C85   A    
C67   H3    S    
C78   H14   S    
C17   C121  A    
C32   C136  A    
C14   C130  A    
C35   C139  S    
C75   C87   A    
C72   H8    S    
C83   C90   S    
C91   O35   A    
C140  H36   S    
C90   O40   A    
C95   O43   A    
C64   C113  S    
C40   C72   A    
C11   C125  A    
C138  O50   D    
C94   O42   A    
C108  C130  A    
C74   H10   S    
C111  C133  A    
C107  H59   S    
C8    C56   S    
C112  C134  A    
C59   O21   A    
C26   C130  A    
C99   C113  A    
C34   C50   A    
C106  H58   S    
C143  H39   S    
C39   C49   A    
C137  O49   D    
C77   H13   S    
C148  H44   S    
C12   C128  A    
C13   C129  A    
C48   C56   A    
C109  C119  A    
O24   Zn2   S    
C38   C142  S    
C15   C133  A    
C23   C127  A    
C59   O23   A    
C71   C81   A    
C47   C53   A    
O37   Zn10  S    
O44   Zn11  S    
C75   H11   S    
C79   H15   S    
C48   C80   A    
C62   O26   A    
C5    C53   S    
C65   H1    S    
C62   C115  S    
C80   C88   A    
O45   Zn12  S    
C144  O56   D    
C89   O37   A    
C60   O22   A    
C35   C51   A    
C104  H56   S    
O20   Zn4   S    
C42   C146  S    
C4    O8    A    
C71   H7    S    
C7    O11   A    
C81   C92   S    
C14   C132  A    
C60   O24   A    
C93   O45   A    
O26   Zn6   S    
C44   C148  S    
O11   Zn7   S    
C138  H34   S    
C101  C127  A    
O25   Zn5   S    
C19   H19   S    
C5    O15   A    
C70   C82   A    
C22   H22   S    
C57   O17   A    
C103  C125  A    
O6    Zn4   S    
C20   C124  A    
O41   Zn11  S    
C22   C126  A    
C112  H64   S    
C106  C132  A    
O39   Zn10  S    
C41   C73   A    
C64   O32   A    
C47   C151  S    
C10   C122  A    
C96   O44   A    
C104  C126  A    
C150  H46   S    
C45   C55   A    
O7    Zn3   S    
C46   C150  S    
C145  O57   D    
O34   Zn9   S    
C93   O41   A    
C24   C128  A    
C39   C71   A    
C102  C116  A    
C97   C123  A    
O10   Zn6   S    
C45   C77   A    
C69   H5    S    
C141  O53   D    
C80   H16   S    
O28   Zn8   S    
C102  C128  A    
O13   Zn5   S    
C107  C117  A    
C96   O46   A    
C100  H52   S    
C42   C54   A    
O15   Zn7   S    
C57   O19   A    
C20   C31   A    
O4    Zn4   S    
