data_mof_unit_22174.cif
_audit_creation_date              2012-10-26T20:07:46-0400
_audit_creation_method            fapswitch 2.2
_symmetry_space_group_name_H-M    P1
_symmetry_Int_Tables_number       1
_space_group_crystal_system       triclinic
_cell_length_a                    9.567702
_cell_length_b                    10.758312
_cell_length_c                    17.120845
_cell_angle_alpha                 87.243827
_cell_angle_beta                  93.140155
_cell_angle_gamma                 89.934739
_cell_volume                      1757.59420769

loop_
_atom_site_label
_atom_site_type_symbol
_atom_type_description
_atom_site_fract_x
_atom_site_fract_y
_atom_site_fract_z
_atom_type_partial_charge
C1    C     C_R   0.500146 0.262593 0.501223 0.587463
C2    C     C_R   0.069549 0.583635 0.453038 0.075029
C3    C     C_R   0.516387 0.506661 0.651084 0.554007
C4    C     C_R   0.483612 0.493335 0.348916 0.554008
C5    C     C_R   0.522352 0.525871 0.737448 -0.031315
C6    C     C_R   0.477648 0.474121 0.262553 -0.031325
C7    C     C_R   0.396605 0.539717 0.777676 -0.052274
C8    C     C_R   0.603398 0.460273 0.222324 -0.052273
C9    C     C_R   0.402004 0.545799 0.859667 0.088679
C10   C     C_R   0.597999 0.454201 0.140334 0.088700
C11   C     C_R   0.531729 0.541731 0.902242 0.209149
C12   C     C_R   0.499854 0.737407 0.498774 0.587448
C13   C     C_R   0.468275 0.458250 0.097761 0.209147
C14   C     C_R   0.655774 0.545170 0.862752 0.016154
C15   C     C_R   0.344228 0.454806 0.137249 0.016147
C16   C     C_R   0.652866 0.536744 0.781221 0.036556
C17   C     C_R   0.347132 0.463247 0.218778 0.036543
C18   C     C_R   0.505832 0.058614 0.571986 0.116351
C19   C     C_R   0.494187 0.941385 0.428012 0.116359
C20   C     C_1   0.739715 0.444765 0.262999 0.232424
C21   C     C_1   0.260292 0.555213 0.737001 0.232432
C22   C     C_1   0.788574 0.555706 0.906580 0.296101
C23   C     C_R   0.505571 0.928851 0.571499 0.051342
C24   C     C_1   0.211426 0.444263 0.093422 0.296098
C25   C     C_1   0.158403 0.330351 0.599498 0.279108
C26   C     C_1   0.841598 0.669651 0.400505 0.279113
C27   C     C_1   0.862131 0.325201 0.596134 0.247966
C28   C     C_1   0.137871 0.674803 0.403871 0.247953
C29   C     C_R   0.494452 0.071148 0.428502 0.051360
C30   C     C_R   0.499775 0.871213 0.499387 0.036043
C31   C     C_R   0.500226 0.128787 0.500610 0.036078
C32   C     C_R   0.079259 0.416854 0.547310 0.085746
C33   C     C_R   0.920741 0.583145 0.452690 0.085747
C34   C     C_R   0.930451 0.416365 0.546962 0.075036
Cu1   Cu    Cu3+1 0.640660 0.500020 0.500000 0.999775
Cu2   Cu    Cu3+1 0.359340 0.499980 0.500000 0.999783
H1    H     H_    0.790232 0.514549 0.111242 0.263477
H2    H     H_    0.426639 0.090291 0.676305 0.271552
H3    H     H_    0.397297 0.909745 0.322949 0.272072
H4    H     H_    0.573559 0.909698 0.323740 0.271561
H5    H     H_    0.600059 0.799926 0.647064 0.234867
H6    H     H_    0.422697 0.800324 0.646029 0.243128
H7    H     H_    0.399991 0.200008 0.352877 0.234880
H8    H     H_    0.577331 0.199725 0.353991 0.243136
H9    H     H_    0.773756 0.357278 0.119945 0.250491
H10   H     H_    0.209762 0.485489 0.888754 0.263488
H11   H     H_    0.226284 0.642759 0.880055 0.250493
H12   H     H_    0.804031 0.457456 0.720929 0.275808
H13   H     H_    0.783108 0.615587 0.702484 0.256848
H14   H     H_    0.195965 0.542550 0.279067 0.275805
H15   H     H_    0.216880 0.384414 0.297513 0.256850
H16   H     H_    0.602873 0.090305 0.676983 0.272109
N1    N     N_2   0.539749 0.539304 0.985159 -0.176695
N2    N     N_1   0.105122 0.435289 0.058624 -0.242029
N3    N     N_3   0.784603 0.542465 0.744993 -0.599743
N4    N     N_3   0.215390 0.457537 0.255005 -0.599745
N5    N     N_3   0.511966 0.119815 0.644719 -0.569647
N6    N     N_3   0.488149 0.880183 0.355269 -0.569583
N7    N     N_3   0.511283 0.857044 0.644534 -0.633451
N8    N     N_3   0.488795 0.142952 0.355468 -0.633536
N9    N     N_1   0.220282 0.260839 0.641982 -0.279475
N10   N     N_1   0.779721 0.739166 0.358025 -0.279521
N11   N     N_1   0.809244 0.251288 0.635909 -0.291178
N12   N     N_2   0.460259 0.460674 0.014845 -0.176703
N13   N     N_1   0.190759 0.748720 0.364100 -0.291123
N14   N     N_R   0.852070 0.500030 0.499980 -0.267819
N15   N     N_R   0.147930 0.499970 0.500020 -0.267819
N16   N     N_1   0.849097 0.431192 0.294631 -0.287935
N17   N     N_1   0.150909 0.568774 0.705370 -0.287936
N18   N     N_3   0.723798 0.439885 0.099330 -0.561814
N19   N     N_3   0.276210 0.560141 0.900669 -0.561833
N20   N     N_1   0.894879 0.564675 0.941378 -0.242026
O1    O     O_R   0.618740 0.319660 0.500000 -0.490151
O2    O     O_R   0.381260 0.680340 0.500000 -0.490150
O3    O     O_R   0.381170 0.319630 0.500010 -0.501437
O4    O     O_R   0.618830 0.680370 0.499990 -0.501446
O5    O     O_R   0.631780 0.498870 0.613920 -0.511606
O6    O     O_R   0.368220 0.501130 0.386080 -0.511598
O7    O     O_R   0.394210 0.498840 0.613930 -0.483613
O8    O     O_R   0.605790 0.501160 0.386070 -0.483612

loop_
_geom_bond_atom_site_label_1
_geom_bond_atom_site_label_2
_ccdc_geom_bond_type
H12   N3    S    
C12   O2    A    
Cu1   Cu2   S    
C3    O7    A    
C34   N14   A    
Cu2   N15   S    
C23   N7    S    
C8    C20   S    
C4    O8    A    
N1    N12   D    
C24   N2    T    
Cu1   O8    S    
C1    C31   S    
C7    C9    A    
H15   N4    S    
C5    C16   A    
C18   N5    S    
C10   C13   A    
C11   N1    S    
C25   C32   S    
C19   N6    S    
H1    N18   S    
C22   N20   T    
C33   N14   A    
C27   C34   S    
Cu1   O4    S    
H4    N6    S    
C18   C23   A    
C1    O3    A    
C23   C30   A    
H5    N7    S    
C4    C6    S    
C2    N15   A    
C5    C7    A    
C6    C8    A    
Cu1   N14   S    
H13   N3    S    
H3    N6    S    
Cu1   O5    S    
H14   N4    S    
C21   N17   T    
C32   C34   A    
C4    O6    A    
Cu2   O3    S    
H2    N5    S    
C26   C33   S    
C29   N8    S    
C25   N9    T    
C9    C11   A    
C17   N4    S    
H11   N19   S    
H10   N19   S    
Cu2   O2    S    
H7    N8    S    
C32   N15   A    
C10   N18   S    
C2    C33   A    
C15   C24   S    
C13   C15   A    
C14   C16   A    
C3    O5    A    
C15   C17   A    
C6    C17   A    
Cu1   O1    S    
C12   C30   S    
H9    N18   S    
C20   N16   T    
C9    N19   S    
C3    C5    S    
Cu2   O7    S    
H6    N7    S    
C1    O1    A    
C14   C22   S    
C12   O4    A    
C28   N13   T    
C26   N10   T    
C16   N3    S    
C29   C31   A    
Cu2   O6    S    
C7    C21   S    
C13   N12   S    
H8    N8    S    
C11   C14   A    
H16   N5    S    
C8    C10   A    
C27   N11   T    
C2    C28   S    
C18   C31   A    
C19   C30   A    
C19   C29   A    
