data_mof_unit_19704.cif
_audit_creation_date              2012-12-10T18:16:23-0500
_audit_creation_method            fapswitch 2.2
_symmetry_space_group_name_H-M    P1
_symmetry_Int_Tables_number       1
_space_group_crystal_system       triclinic
_cell_length_a                    18.319446
_cell_length_b                    18.277552
_cell_length_c                    18.322545
_cell_angle_alpha                 120.159692
_cell_angle_beta                  60.481379
_cell_angle_gamma                 119.619513
_cell_volume                      4360.79044535

loop_
_atom_site_label
_atom_site_type_symbol
_atom_type_description
_atom_site_fract_x
_atom_site_fract_y
_atom_site_fract_z
_atom_type_partial_charge
C1    C     C_R   0.389579 0.109825 0.609555 0.998018
C2    C     C_R   0.988165 0.970710 0.916798 0.405901
C3    C     C_R   0.950280 0.945665 0.052721 -0.277591
C4    C     C_R   0.048941 0.055697 0.948264 -0.274924
C5    C     C_R   0.942716 0.914036 0.967116 -0.112273
C6    C     C_R   0.054622 0.088213 0.034805 -0.114986
C7    C     C_R   0.087533 0.537476 0.946329 0.249366
C8    C     C_R   0.913087 0.464070 0.050639 0.280400
C9    C     C_R   0.032692 0.590834 0.005108 0.362207
C10   C     C_R   0.971810 0.415018 0.002323 0.358457
C11   C     C_R   0.945209 0.553055 0.054245 -0.373057
C12   C     C_R   0.610059 0.890120 0.390365 0.992649
C13   C     C_R   0.056739 0.449561 0.946429 -0.372805
C14   C     C_R   0.031287 0.093001 0.522087 -0.194541
C15   C     C_R   0.968888 0.906997 0.477719 -0.203789
C16   C     C_R   0.112192 0.392432 0.890023 1.024387
C17   C     C_R   0.888733 0.608738 0.110095 1.022026
C18   C     C_R   0.977728 0.039437 0.468578 -0.106389
C19   C     C_R   0.022430 0.960561 0.531241 -0.114581
C20   C     C_R   0.946313 0.946225 0.446202 -0.003475
C21   C     C_R   0.053819 0.053775 0.553650 -0.001203
C22   C     C_R   0.499343 0.055072 0.588426 0.361068
C23   C     C_R   0.045667 0.238365 0.143483 -0.386288
C24   C     C_R   0.488617 0.934078 0.418733 0.364219
C25   C     C_R   0.559210 0.006725 0.533413 0.234882
C26   C     C_R   0.440538 0.993999 0.467444 0.314109
C27   C     C_R   0.553203 0.945916 0.448022 -0.372766
C28   C     C_R   0.444810 0.052842 0.553367 -0.380848
C29   C     C_R   0.468328 0.405804 0.462630 0.355187
C30   C     C_R   0.531076 0.594060 0.537472 0.370804
C31   C     C_R   0.523616 0.457155 0.406332 0.214695
C32   C     C_R   0.475659 0.542652 0.593762 0.308388
C33   C     C_R   0.554651 0.551777 0.444185 -0.393540
C34   C     C_R   0.953552 0.762529 0.873745 -0.375369
C35   C     C_R   0.445072 0.448072 0.555832 -0.394424
C36   C     C_R   0.466571 0.407356 0.981062 0.302314
C37   C     C_R   0.536130 0.593079 0.016167 0.311740
C38   C     C_R   0.514990 0.463847 0.040726 0.344302
C39   C     C_R   0.485829 0.536803 0.958363 0.362342
C40   C     C_R   0.389979 0.388480 0.889871 1.008657
C41   C     C_R   0.610105 0.611837 0.110079 0.975185
C42   C     C_R   0.553337 0.555746 0.054585 -0.365087
C43   C     C_R   0.447049 0.444980 0.945085 -0.344840
C44   C     C_R   0.109863 0.109895 0.609815 0.830588
C45   C     C_R   0.083594 0.329232 0.190443 0.475463
C46   C     C_R   0.890181 0.890103 0.390135 0.825499
C47   C     C_R   0.389690 0.391317 0.611228 1.016470
C48   C     C_R   0.610249 0.608529 0.388677 1.021232
C49   C     C_R   0.108174 0.110235 0.890473 0.949203
C50   C     C_R   0.892788 0.889956 0.109692 0.874342
C51   C     C_R   0.229503 0.312123 0.103691 -0.380391
C52   C     C_R   0.774304 0.686915 0.889189 -0.378556
C53   C     C_R   0.191938 0.221531 0.058007 0.582205
C54   C     C_R   0.808464 0.778861 0.933307 0.596666
C55   C     C_R   0.098989 0.184344 0.078678 0.110475
C56   C     C_R   0.918584 0.669861 0.830052 0.527529
C57   C     C_R   0.900014 0.817343 0.923347 0.068889
C58   C     C_3   0.215515 0.465463 0.293586 -0.271231
C59   C     C_3   0.729814 0.495341 0.851561 -0.197545
C60   C     C_3   0.424021 0.048360 0.727666 -0.212334
C61   C     C_3   0.399390 0.794512 0.362350 -0.191312
C62   C     C_3   0.355787 0.276862 0.423225 -0.077932
C63   C     C_3   0.643313 0.723365 0.576898 -0.097725
C64   C     C_3   0.507457 0.282961 0.896204 -0.157324
C65   C     C_3   0.506498 0.722565 0.109929 -0.167596
C66   C     C_3   0.447726 0.422554 0.163070 -0.061721
C67   C     C_R   0.176296 0.365347 0.170162 0.461086
C68   C     C_3   0.550344 0.577043 0.835604 -0.025698
C69   C     C_3   0.277485 0.141700 0.018288 -0.170978
C70   C     C_3   0.729513 0.863082 0.063914 -0.147684
C71   C     C_3   0.952590 0.345415 0.306219 -0.285715
C72   C     C_3   0.055577 0.651524 0.732008 -0.230805
C73   C     C_3   0.097906 0.734362 0.082585 -0.172857
C74   C     C_3   0.952297 0.337396 0.079667 -0.100587
C75   C     C_R   0.827869 0.631877 0.840147 0.435303
C76   C     C_R   0.008986 0.031828 0.085419 0.395213
H1    H     H_    0.961181 0.070984 0.444666 0.197736
H2    H     H_    0.146655 0.451314 0.341084 0.197818
H3    H     H_    0.253508 0.536084 0.323826 0.181942
H4    H     H_    0.716532 0.422501 0.813856 0.190870
H5    H     H_    0.751775 0.511476 0.906403 0.194590
H6    H     H_    0.666698 0.508314 0.878778 0.117449
H7    H     H_    0.418586 0.085537 0.798830 0.177891
H8    H     H_    0.438572 0.987153 0.707375 0.193630
H9    H     H_    0.358458 0.029268 0.722541 0.135563
H10   H     H_    0.338726 0.814412 0.401512 0.199372
H11   H     H_    0.407086 0.767635 0.399879 0.155510
H12   H     H_    0.038958 0.929013 0.555166 0.195332
H13   H     H_    0.388586 0.739266 0.300123 0.164681
H14   H     H_    0.740181 0.123712 0.520780 0.353404
H15   H     H_    0.367335 0.946071 0.289193 0.379889
H16   H     H_    0.332938 0.324738 0.425700 0.120903
H17   H     H_    0.308940 0.250051 0.478510 0.139211
H18   H     H_    0.352601 0.219445 0.360026 0.206683
H19   H     H_    0.690053 0.749850 0.521379 0.147035
H20   H     H_    0.666283 0.675848 0.574882 0.126294
H21   H     H_    0.646489 0.781090 0.639891 0.216845
H22   H     H_    0.637933 0.362174 0.305774 0.363657
H23   H     H_    0.300430 0.341894 0.087649 0.211158
H24   H     H_    0.397018 0.713326 0.792019 0.414540
H25   H     H_    0.569120 0.321563 0.914866 0.176491
H26   H     H_    0.521190 0.282254 0.829621 0.178843
H27   H     H_    0.488565 0.213500 0.891469 0.190261
H28   H     H_    0.436881 0.683956 0.109013 0.179446
H29   H     H_    0.521246 0.790400 0.113007 0.209493
H30   H     H_    0.512339 0.729642 0.170774 0.160761
H31   H     H_    0.401605 0.455157 0.178129 0.089916
H32   H     H_    0.469310 0.455844 0.222277 0.215984
H33   H     H_    0.410065 0.350835 0.155492 0.180617
H34   H     H_    0.706285 0.658557 0.890889 0.205039
H35   H     H_    0.596232 0.543211 0.818539 0.073819
H36   H     H_    0.588696 0.648560 0.842568 0.211236
H37   H     H_    0.526996 0.544175 0.777672 0.212803
H38   H     H_    0.307144 0.196102 0.071222 0.179672
H39   H     H_    0.330411 0.114368 0.962069 0.165454
H40   H     H_    0.223691 0.085964 0.042304 0.205158
H41   H     H_    0.780277 0.926324 0.087919 0.128636
H42   H     H_    0.713008 0.812586 0.091535 0.122845
H43   H     H_    0.669111 0.880642 0.090855 0.198027
H44   H     H_    0.959118 0.302922 0.328491 0.188034
H45   H     H_    0.974720 0.209052 0.155932 0.175690
H46   H     H_    0.901944 0.306100 0.271930 0.169052
H47   H     H_    0.928468 0.398475 0.367053 0.205026
H48   H     H_    0.098946 0.694277 0.774534 0.161626
H49   H     H_    0.057533 0.689960 0.698979 0.165233
H50   H     H_    0.083006 0.597169 0.678442 0.198349
H51   H     H_    0.121871 0.170120 0.258582 0.378627
H52   H     H_    0.868570 0.840765 0.750143 0.378454
H53   H     H_    0.185557 0.672735 0.843737 0.374014
H54   H     H_    0.705188 0.278482 0.085092 0.416584
H55   H     H_    0.046179 0.730423 0.147872 0.119795
H56   H     H_    0.022515 0.792874 0.870259 0.182027
H57   H     H_    0.124149 0.804844 0.086045 0.201743
H58   H     H_    0.154018 0.717482 0.071576 0.197355
H59   H     H_    0.020517 0.377849 0.083851 0.158473
H60   H     H_    0.937698 0.269342 0.076131 0.174578
H61   H     H_    0.903603 0.366645 0.141652 0.189974
H62   H     H_    0.055094 0.164905 0.538503 0.169980
H63   H     H_    0.945093 0.835093 0.461292 0.169480
H64   H     H_    0.248024 0.422271 0.284524 0.129833
O1    O     O_3   0.249960 0.250040 0.750040 -0.539331
O2    O     O_R   0.865890 0.634160 0.194850 -0.629713
O3    O     O_R   0.305100 0.073510 0.634200 -0.623920
O4    O     O_R   0.694900 0.926490 0.365800 -0.596572
O5    O     O_R   0.134110 0.365830 0.926590 -0.650522
O6    O     O_R   0.865890 0.634170 0.073410 -0.606772
O7    O     O_R   0.426490 0.365840 0.805130 -0.659486
O8    O     O_R   0.573510 0.634160 0.194870 -0.657325
O9    O     O_R   0.134150 0.194970 0.634230 -0.670055
O10   O     O_R   0.865850 0.805030 0.365770 -0.678866
O11   O     O_R   0.426480 0.365860 0.634240 -0.629907
O12   O     O_3   0.750040 0.749960 0.249960 -0.530341
O13   O     O_R   0.573520 0.634140 0.365760 -0.627293
O14   O     O_R   0.134190 0.073490 0.805100 -0.574879
O15   O     O_R   0.865810 0.926510 0.194900 -0.566446
O16   O     O_R   0.305020 0.365860 0.634250 -0.630311
O17   O     O_R   0.694980 0.634140 0.365750 -0.637288
O18   O     O_R   0.134160 0.194930 0.926560 -0.665634
O19   O     O_R   0.865840 0.805070 0.073440 -0.681458
O20   O     O_3   0.216335 0.454928 0.211512 -0.575318
O21   O     O_3   0.795353 0.542143 0.792286 -0.570720
O22   O     O_3   0.492554 0.103888 0.677268 -0.571100
O23   O     O_R   0.305030 0.365830 0.926580 -0.626385
O24   O     O_3   0.475932 0.866076 0.340209 -0.571277
O25   O     O_2   0.623020 0.074405 0.670066 -0.234129
O26   O     O_2   0.629848 0.927063 0.559951 -0.293410
O27   O     O_3   0.740702 0.066550 0.513712 -0.497649
O28   O     O_2   0.280784 0.949443 0.459623 -0.317217
O29   O     O_2   0.390369 0.092025 0.440666 -0.310350
O30   O     O_3   0.409064 0.945770 0.308462 -0.495250
O31   O     O_3   0.443337 0.313082 0.425539 -0.551359
O32   O     O_3   0.555709 0.686761 0.574612 -0.554378
O33   O     O_2   0.468730 0.340774 0.265191 -0.313311
O34   O     O_R   0.694970 0.634170 0.073420 -0.663806
O35   O     O_2   0.609525 0.460307 0.236098 -0.247131
O36   O     O_3   0.605550 0.330938 0.262485 -0.435781
O37   O     O_2   0.390630 0.538831 0.763707 -0.261752
O38   O     O_2   0.528954 0.661515 0.735575 -0.347886
O39   O     O_3   0.388921 0.664075 0.735765 -0.439930
O40   O     O_3   0.436300 0.315663 0.960185 -0.603034
O41   O     O_3   0.568937 0.684238 0.033411 -0.603481
O42   O     O_3   0.523949 0.429185 0.086567 -0.558217
O43   O     O_3   0.475572 0.571509 0.913500 -0.558839
O44   O     O_3   0.245956 0.172705 0.986420 -0.625363
O45   O     O_R   0.134180 0.073510 0.634210 -0.588878
O46   O     O_3   0.755811 0.831133 0.970034 -0.537506
O47   O     O_3   0.034328 0.386928 0.251175 -0.593429
O48   O     O_3   0.968362 0.612327 0.782136 -0.559332
O49   O     O_2   0.953350 0.098678 0.265334 -0.289359
O50   O     O_2   0.032171 0.991264 0.194653 -0.323206
O51   O     O_3   0.123603 0.152973 0.197303 -0.630786
O52   O     O_2   0.970002 0.015875 0.807650 -0.298050
O53   O     O_2   0.037597 0.899207 0.737474 -0.307431
O54   O     O_3   0.867706 0.858381 0.811204 -0.518808
O55   O     O_2   0.260777 0.593944 0.915984 -0.236228
O56   O     O_R   0.865820 0.926490 0.365790 -0.573619
O57   O     O_2   0.214175 0.523057 0.784666 -0.243309
O58   O     O_3   0.215085 0.685272 0.883733 -0.495225
O59   O     O_2   0.779406 0.452451 0.201045 -0.286171
O60   O     O_2   0.745304 0.433624 0.077508 -0.263083
O61   O     O_3   0.770748 0.301298 0.068261 -0.472623
O62   O     O_3   0.062420 0.679131 0.011725 -0.572042
O63   O     O_3   0.944673 0.329828 0.002882 -0.549371
O64   O     O_R   0.426530 0.194970 0.634210 -0.617202
O65   O     O_R   0.573470 0.805030 0.365790 -0.649692
O66   O     O_R   0.134110 0.365840 0.805150 -0.594992
S1    S     S_3+6 0.637381 0.018252 0.572970 0.070451
S2    S     S_3+6 0.377471 0.996540 0.419954 0.043037
S3    S     S_3+6 0.552335 0.398560 0.289261 0.092949
S4    S     S_3+6 0.445913 0.600832 0.710786 0.092167
S5    S     S_3+6 0.028594 0.068095 0.187982 -0.003040
S6    S     S_3+6 0.966922 0.936500 0.815927 0.040528
S7    S     S_3+6 0.196840 0.584092 0.880397 0.082985
S8    S     S_3+6 0.798922 0.413152 0.101706 0.089296
Zn1   Zn    Zn3+2 0.206570 0.293400 0.880180 1.037773
Zn2   Zn    Zn3+2 0.793430 0.706600 0.119820 1.006240
Zn3   Zn    Zn3+2 0.380110 0.293420 0.706660 1.050024
Zn4   Zn    Zn3+2 0.619890 0.706580 0.293340 1.013169
Zn5   Zn    Zn3+2 0.206560 0.293420 0.706670 1.065316
Zn6   Zn    Zn3+2 0.793440 0.706580 0.293330 1.038577
Zn7   Zn    Zn3+2 0.206610 0.119900 0.706640 1.099556
Zn8   Zn    Zn3+2 0.793390 0.880100 0.293360 1.093373

loop_
_geom_bond_atom_site_label_1
_geom_bond_atom_site_label_2
_ccdc_geom_bond_type
C64   H27   S    
C48   O13   A    
C73   H55   S    
C68   O43   S    
C34   C56   A    
C23   C45   A    
O12   Zn8   S    
H14   O27   S    
C61   O24   S    
C41   C42   S    
C14   C18   A    
C71   H46   S    
C2    C4    A    
C36   O40   S    
C24   C27   A    
C66   H31   S    
C41   O34   A    
C52   C75   A    
C35   C47   S    
O1    Zn1   S    
O29   S2    D    
C23   H45   S    
C65   O41   S    
C64   H26   S    
C62   O31   S    
O12   Zn2   S    
O39   S4    S    
C71   H44   S    
C59   O21   S    
C14   C21   A    
C71   H47   S    
C19   C21   A    
H52   O54   S    
C38   C42   A    
C16   O66   A    
C8    C11   A    
C68   H36   S    
C22   O22   S    
C60   H7    S    
C47   O16   A    
C70   H41   S    
O59   S8    D    
C63   H19   S    
H22   O36   S    
O36   S3    S    
O38   S4    D    
C18   C20   A    
O9    Zn5   S    
C72   H49   S    
C37   C42   A    
O25   S1    D    
C74   O63   S    
O52   S6    D    
C61   H11   S    
O1    Zn3   S    
C1    O64   A    
O5    Zn1   S    
O23   Zn1   S    
C40   C43   S    
C72   O48   S    
C56   O48   S    
C61   H13   S    
C22   C25   A    
O12   Zn4   S    
C45   C67   A    
C1    C28   S    
C60   O22   S    
C59   H6    S    
C67   O20   S    
C10   O63   S    
C6    C55   S    
O4    Zn8   S    
H53   O58   S    
C30   C33   A    
C44   O45   A    
C66   O42   S    
C34   H56   S    
C39   O43   S    
C56   C75   A    
O45   Zn7   S    
C72   H48   S    
C50   O15   A    
C24   O24   S    
C65   H29   S    
C3    C50   S    
C52   C54   A    
C15   H63   S    
C53   C55   A    
C51   H23   S    
C15   C20   A    
C69   H38   S    
C74   H61   S    
C26   S2    S    
O65   Zn4   S    
C12   C27   S    
C61   H10   S    
C32   C35   A    
C14   H62   S    
C49   O14   A    
H24   O39   S    
O1    Zn7   S    
C40   O23   A    
C4    C6    A    
C19   H12   S    
O49   S5    D    
C53   O44   S    
C71   O47   S    
C70   O46   S    
C45   O47   S    
O53   S6    D    
C39   C43   A    
C64   H25   S    
C69   O44   S    
O18   Zn1   S    
C25   S1    S    
C63   H20   S    
O17   Zn6   S    
H51   O51   S    
C12   O4    A    
C74   H60   S    
C17   O2    A    
C51   C53   A    
C68   H35   S    
O27   S1    S    
O37   S4    D    
C15   C19   A    
O50   S5    D    
O30   S2    S    
C1    O3    A    
C34   C57   A    
C21   C44   S    
C32   S4    S    
O60   S8    D    
C31   S3    S    
C52   H34   S    
C70   H43   S    
C37   O41   S    
C74   H59   S    
C62   H17   S    
C31   C33   A    
O28   S2    D    
C36   C43   A    
C8    S8    S    
C51   C67   A    
C29   O31   S    
C46   O56   A    
C3    C76   A    
C9    C11   A    
C30   O32   S    
O13   Zn4   S    
C7    S7    S    
H54   O61   S    
C58   H3    S    
C76   S5    S    
C8    C10   A    
C46   O10   A    
C63   H21   S    
C73   H57   S    
C62   H18   S    
O66   Zn5   S    
C49   O18   A    
C20   C46   S    
C2    C5    A    
O26   S1    D    
C65   H30   S    
O57   S7    D    
O7    Zn3   S    
C73   O62   S    
C58   H64   S    
C7    C9    A    
C29   C35   A    
C69   H39   S    
O19   Zn2   S    
H15   O30   S    
C2    S6    S    
C6    C76   A    
O33   S3    D    
C59   H5    S    
C69   H40   S    
C66   H32   S    
C3    C5    A    
C10   C13   A    
C11   C17   S    
C59   H4    S    
O3    Zn7   S    
C60   H9    S    
C23   C55   A    
C50   O19   A    
C25   C27   A    
C48   O17   A    
O2    Zn6   S    
C26   C28   A    
C44   O9    A    
C38   O42   S    
C5    C57   S    
C4    C49   S    
C47   O11   A    
C12   O65   A    
O14   Zn7   S    
C36   C38   A    
C17   O6    A    
C37   C39   A    
C68   H37   S    
C58   O20   S    
O1    Zn5   S    
C30   C32   A    
C60   H8    S    
C24   C26   A    
C63   O32   S    
C41   O8    A    
C70   H42   S    
C18   H1    S    
C64   O40   S    
O12   Zn6   S    
C75   O21   S    
O16   Zn5   S    
O34   Zn2   S    
O35   S3    D    
C66   H33   S    
O6    Zn2   S    
O61   S8    S    
O55   S7    D    
C9    O62   S    
C58   H2    S    
O64   Zn3   S    
O54   S6    S    
C7    C13   A    
C73   H58   S    
C29   C31   A    
C54   O46   S    
C13   C16   S    
C72   H50   S    
C33   C48   S    
O10   Zn6   S    
C16   O5    A    
O15   Zn8   S    
C22   C28   A    
C65   H28   S    
O11   Zn3   S    
C62   H16   S    
O58   S7    S    
O8    Zn4   S    
C40   O7    A    
O56   Zn8   S    
O51   S5    S    
C54   C57   A    
