data_mof_unit_43625.cif
_audit_creation_date              2012-12-11T15:13:49-0500
_audit_creation_method            fapswitch 2.2
_symmetry_space_group_name_H-M    P1
_symmetry_Int_Tables_number       1
_space_group_crystal_system       triclinic
_cell_length_a                    6.942174
_cell_length_b                    13.497287
_cell_length_c                    20.06608
_cell_angle_alpha                 103.980916
_cell_angle_beta                  89.861231
_cell_angle_gamma                 90.795542
_cell_volume                      1824.32668439

loop_
_atom_site_label
_atom_site_type_symbol
_atom_type_description
_atom_site_fract_x
_atom_site_fract_y
_atom_site_fract_z
_atom_type_partial_charge
O1    O     O_R   0.506780 0.600060 0.449950 -0.530362
O2    O     O_R   0.179840 0.597110 0.589410 -0.545798
O3    O     O_R   0.004570 0.399940 0.550050 -0.538422
C1    C     C_R   0.348439 0.618780 0.616925 0.683031
O4    O     O_R   0.177380 0.612160 0.452890 -0.545512
O5    O     O_R   0.002100 0.415100 0.412560 -0.538399
C2    C     C_R   0.347327 0.639352 0.436614 0.718924
O6    O     O_R   0.509250 0.584900 0.587440 -0.543815
O7    O     O_3   0.337570 0.435330 0.486930 -0.369489
V1    V     V_3+5 0.064650 0.512000 0.502430 1.419787
O8    O     O_R   0.672090 0.402890 0.410590 -0.538294
C3    C     C_R   0.840273 0.381401 0.382890 0.695622
O9    O     O_R   0.674540 0.387840 0.547110 -0.543972
C4    C     C_R   0.842303 0.361193 0.564009 0.690406
V2    V     V_3+5 0.564040 0.488000 0.497570 1.433078
O10   O     O_3   0.840990 0.564670 0.513070 -0.371210
C5    C     C_R   0.840669 0.106118 0.608095 -0.165683
H1    H     H_    0.836702 0.156030 0.514289 0.101331
H2    H     H_    0.808013 0.982337 0.692222 0.107761
H3    H     H_    0.827411 0.026233 0.581502 0.114327
C6    C     C_R   0.848501 0.283121 0.603332 -0.037199
C7    C     C_R   0.906328 0.321389 0.933369 0.110383
C8    C     C_R   0.964992 0.391658 0.896261 -0.180082
C9    C     C_R   0.981707 0.364456 0.824431 0.107726
C10   C     C_R   0.903898 0.267925 0.787354 0.054036
C11   C     C_R   0.865204 0.192478 0.824963 0.010525
C12   C     C_R   0.875271 0.240140 0.714523 0.082362
C13   C     C_R   0.851623 0.135594 0.680097 0.148368
C14   C     C_R   0.831776 0.061925 0.717824 -0.220730
C15   C     C_R   0.831021 0.090238 0.789007 -0.181831
C16   C     C_R   0.855293 0.312769 0.675073 -0.215634
C17   C     C_R   0.844082 0.179637 0.569816 -0.177691
C18   C     C_R   0.869768 0.219259 0.897816 -0.117519
H4    H     H_    0.831774 0.391859 0.699114 0.097073
H5    H     H_    0.012567 0.466854 0.924655 0.118235
H6    H     H_    0.806043 0.030420 0.815603 0.113875
C19   C     C_3   0.788549 0.157782 0.251089 -0.161404
C20   C     C_3   0.963399 0.212071 0.293019 -0.152068
H7    H     H_    0.050740 0.180607 0.329175 0.107812
H8    H     H_    0.734751 0.080164 0.251126 0.113387
C21   C     C_3   0.848313 0.311614 0.312034 -0.021101
C22   C     C_3   0.673167 0.258041 0.270828 -0.097428
C23   C     C_3   0.751289 0.289050 0.206244 -0.112640
C24   C     C_3   0.926165 0.343466 0.248212 -0.097140
C25   C     C_3   0.041278 0.243076 0.228425 -0.103178
C26   C     C_3   0.865991 0.189564 0.187363 -0.034796
H9    H     H_    0.521167 0.264299 0.288516 0.121220
H10   H     H_    0.665007 0.319146 0.169238 0.160475
H11   H     H_    0.982600 0.420545 0.247433 0.151297
H12   H     H_    0.193151 0.236708 0.210589 0.129742
C27   C     C_3   0.370045 0.806880 0.703203 0.180476
C28   C     C_3   0.206480 0.815808 0.756608 -0.125055
H13   H     H_    0.082968 0.868646 0.762703 0.105058
C29   C     C_3   0.358109 0.813174 0.811967 -0.032466
C30   C     C_3   0.522215 0.806052 0.759070 -0.170942
C31   C     C_3   0.506469 0.687887 0.742891 -0.150855
C32   C     C_3   0.342983 0.696037 0.796667 -0.142777
C33   C     C_3   0.191372 0.697469 0.740339 -0.147037
C34   C     C_3   0.355362 0.689918 0.687127 -0.018348
H14   H     H_    0.658727 0.851186 0.766822 0.102564
H15   H     H_    0.630000 0.635109 0.737107 0.105195
H16   H     H_    0.332758 0.651799 0.836481 0.097089
H17   H     H_    0.054811 0.652369 0.732434 0.104387
C35   C     C_R   0.463495 0.885884 0.389912 -0.162325
H18   H     H_    0.474406 0.833815 0.482654 0.116455
H19   H     H_    0.482524 0.011574 0.307374 0.114483
H20   H     H_    0.512807 0.962174 0.415352 0.112080
C36   C     C_R   0.362698 0.717426 0.397646 -0.050075
C37   C     C_R   0.320011 0.681855 0.067211 -0.229226
C38   C     C_R   0.322857 0.603867 0.101221 -0.123455
C39   C     C_R   0.351925 0.624698 0.172156 0.252416
C40   C     C_R   0.363908 0.728232 0.211796 0.024957
C41   C     C_R   0.376642 0.806994 0.175331 0.037542
C42   C     C_R   0.373377 0.757424 0.285289 0.090692
C43   C     C_R   0.429376 0.858948 0.318833 0.144793
C44   C     C_R   0.447848 0.933188 0.281586 -0.215858
C45   C     C_R   0.415940 0.908509 0.211326 -0.185348
C46   C     C_R   0.321313 0.691500 0.327371 -0.163927
C47   C     C_R   0.438443 0.813842 0.428534 -0.184918
C48   C     C_R   0.353575 0.782609 0.103105 -0.072096
H21   H     H_    0.245414 0.620590 0.307149 0.159668
H22   H     H_    0.301122 0.662938 0.011944 0.109472
H23   H     H_    0.311584 0.525649 0.071333 0.144639
H24   H     H_    0.427356 0.969737 0.185174 0.117675
O11   O     O_R   0.203580 0.914920 0.912610 -0.541074
O12   O     O_R   0.535710 0.887810 0.047120 -0.540073
O13   O     O_R   0.710730 0.084950 0.087430 -0.540118
C49   C     C_R   0.365900 0.860963 0.063785 0.700724
O14   O     O_R   0.533010 0.902850 0.910600 -0.544327
O15   O     O_R   0.708010 0.100090 0.949930 -0.539031
C50   C     C_R   0.364624 0.882229 0.882774 0.687677
O16   O     O_R   0.206300 0.899780 0.050100 -0.538227
O17   O     O_3   0.375170 0.064580 0.013100 -0.368611
V3    V     V_3+5 0.648200 0.988020 0.997570 1.418875
O18   O     O_R   0.038030 0.112330 0.952840 -0.541664
C51   C     C_R   0.870478 0.138886 0.935997 0.695224
O19   O     O_R   0.040730 0.097300 0.089360 -0.543076
C52   C     C_R   0.872752 0.119174 0.116848 0.682933
V4    V     V_3+5 0.148780 0.012220 0.002360 1.422095
O20   O     O_3   0.871930 0.935430 0.986900 -0.369253
C53   C     C_3   0.392174 0.873479 0.651816 -0.398603
C54   C     C_3   0.214552 0.867341 0.606306 -0.757311
H25   H     H_    0.197356 0.789609 0.572457 0.223150
H26   H     H_    0.083172 0.886631 0.638054 0.222357
H27   H     H_    0.230632 0.922546 0.573581 0.219311
H28   H     H_    0.415314 0.954005 0.680705 0.195408
H29   H     H_    0.520706 0.848959 0.619235 0.166595
Br1   Br    Br    0.417797 0.505778 0.204101 -0.703663
C55   C     C_3   0.903037 0.356351 0.011266 -0.357798
C56   C     C_3   0.741614 0.432137 0.035852 -0.716897
H30   H     H_    0.760957 0.501194 0.015529 0.223541
H31   H     H_    0.599655 0.395839 0.018937 0.228160
H32   H     H_    0.743461 0.456254 0.092800 0.252194
H33   H     H_    0.882149 0.292153 0.036262 0.163702
H34   H     H_    0.043670 0.392991 0.029740 0.182813
C57   C     C_3   0.116524 0.432112 0.793587 -0.357017
C58   C     C_3   0.288380 0.373510 0.756437 -0.713407
H35   H     H_    0.365598 0.334708 0.791212 0.227632
H36   H     H_    0.242291 0.315857 0.709754 0.234325
H37   H     H_    0.390124 0.427701 0.740461 0.203566
H38   H     H_    0.043003 0.474254 0.760620 0.160391
H39   H     H_    0.178828 0.493942 0.835108 0.165158

loop_
_geom_bond_atom_site_label_1
_geom_bond_atom_site_label_2
_ccdc_geom_bond_type
C24   H11   S    
C53   H29   S    
C30   C31   S    
O17   V3    S    
H18   C47   S    
C21   C22   S    
O18   C51   A    
C1    O6    A    
O19   C52   A    
O11   C50   A    
C32   H16   S    
C25   C26   S    
C31   C32   S    
C6    C16   A    
C53   C54   S    
C57   H39   S    
C4    C6    S    
C13   C14   A    
C19   C20   S    
C19   H8    S    
C58   H36   S    
O5    C3    A    
C20   H7    S    
O18   V4    S    
V2    O10   S    
O13   V3    S    
O14   V3    S    
C5    H3    S    
C57   C58   S    
C54   H27   S    
C19   C22   S    
C56   H30   S    
C20   C25   S    
C37   H22   S    
O12   V3    S    
C2    C36   S    
O8    V2    S    
C35   C43   A    
C49   O16   A    
C8    C9    A    
C38   C39   A    
O1    V2    S    
O9    C4    A    
O14   C50   A    
C23   H10   S    
O17   V4    S    
C27   C30   S    
O13   C52   A    
C36   C47   A    
C26   C52   S    
C30   H14   S    
C54   H25   S    
O19   V4    S    
C28   C29   S    
O15   V3    S    
C36   C46   A    
C6    C17   A    
C57   H38   S    
C12   C16   A    
C27   C28   S    
C35   H20   S    
C9    C10   A    
C20   C21   S    
C40   C42   A    
C42   C43   A    
C58   H37   S    
O4    C2    A    
C45   H24   S    
C10   C11   A    
O15   C51   A    
O2    C1    A    
C43   C44   A    
C14   C15   A    
O11   V4    S    
C11   C18   A    
V4    O20   S    
V3    O20   S    
C7    C55   S    
H19   C44   S    
C16   H4    S    
C31   H15   S    
C44   C45   A    
C54   H26   S    
C38   H23   S    
C56   H32   S    
O3    C4    A    
C28   C33   S    
C55   H33   S    
C9    C57   S    
O6    V2    S    
C8    H5    S    
O9    V2    S    
C23   C24   S    
C35   C47   A    
C27   C34   S    
C22   C23   S    
O2    V1    S    
C18   C51   S    
C53   H28   S    
C28   H13   S    
C3    C21   S    
O7    V1    S    
C33   H17   S    
C7    C18   A    
C29   C30   S    
O1    C2    A    
C5    C13   A    
C24   C25   S    
C40   C41   A    
O5    V1    S    
O8    C3    A    
C11   C15   A    
C10   C12   A    
C31   C34   S    
C15   H6    S    
C39   C40   A    
C33   C34   S    
O4    V1    S    
C48   C49   S    
O3    V1    S    
V1    O10   S    
C58   H35   S    
C46   H21   S    
C32   C33   S    
C25   H12   S    
C1    C34   S    
C21   C24   S    
C41   C48   A    
O12   C49   A    
C22   H9    S    
O7    V2    S    
C37   C38   A    
C23   C26   S    
C56   H31   S    
C55   H34   S    
C29   C50   S    
H1    C17   S    
C42   C46   A    
C12   C13   A    
C5    C17   A    
C41   C45   A    
C7    C8    A    
C37   C48   A    
C19   C26   S    
C55   C56   S    
C27   C53   S    
O16   V4    S    
C39   Br1   S    
C29   C32   S    
H2    C14   S    
