data_mof_unit_6107.cif
_audit_creation_date              2012-12-11T15:34:50-0500
_audit_creation_method            fapswitch 2.2
_symmetry_space_group_name_H-M    P1
_symmetry_Int_Tables_number       1
_space_group_crystal_system       triclinic
_cell_length_a                    30.328307
_cell_length_b                    7.274104
_cell_length_c                    26.014953
_cell_angle_alpha                 89.955019
_cell_angle_beta                  112.368015
_cell_angle_gamma                 89.914382
_cell_volume                      5307.35523487

loop_
_atom_site_label
_atom_site_type_symbol
_atom_type_description
_atom_site_fract_x
_atom_site_fract_y
_atom_site_fract_z
_atom_type_partial_charge
O1    O     O_R   0.295360 0.592990 0.320420 -0.524554
O2    O     O_R   0.704640 0.407010 0.679580 -0.534727
O3    O     O_R   0.204640 0.092990 0.179580 -0.534868
O4    O     O_R   0.795360 0.907010 0.820420 -0.536127
O5    O     O_R   0.294060 0.265620 0.213230 -0.540755
O6    O     O_R   0.705940 0.734380 0.786770 -0.537125
O7    O     O_R   0.205940 0.765620 0.286770 -0.540236
O8    O     O_R   0.794060 0.234380 0.713230 -0.536791
C1    C     C_R   0.303958 0.432376 0.199174 0.709573
C2    C     C_R   0.695922 0.568040 0.800458 0.716572
C3    C     C_R   0.195992 0.932469 0.300752 0.717635
C4    C     C_R   0.804017 0.067973 0.699466 0.715116
O9    O     O_R   0.300850 0.263360 0.322080 -0.526429
O10   O     O_R   0.699150 0.736640 0.677920 -0.527507
O11   O     O_R   0.199150 0.763360 0.177920 -0.528471
O12   O     O_R   0.800850 0.236640 0.822080 -0.525953
O13   O     O_R   0.211480 0.091820 0.289210 -0.542053
O14   O     O_R   0.788520 0.908180 0.710790 -0.540725
O15   O     O_R   0.288520 0.591820 0.210790 -0.540499
O16   O     O_R   0.711480 0.408180 0.789210 -0.541404
C5    C     C_R   0.313661 0.431230 0.343320 0.710450
C6    C     C_R   0.686245 0.569080 0.656793 0.717130
C7    C     C_R   0.186894 0.931417 0.156643 0.713995
C8    C     C_R   0.813127 0.068562 0.843342 0.717300
O17   O     O_3   0.220670 0.426670 0.239090 -0.377350
O18   O     O_3   0.779330 0.573330 0.760910 -0.375077
O19   O     O_3   0.279330 0.926670 0.260910 -0.368372
O20   O     O_3   0.720670 0.073330 0.739090 -0.376335
V1    V     V_3+5 0.255440 0.152290 0.252020 1.481118
V2    V     V_3+5 0.744560 0.847710 0.747980 1.465037
V3    V     V_3+5 0.244560 0.652290 0.247980 1.483099
V4    V     V_3+5 0.755440 0.347710 0.752020 1.468894
C9    C     C_R   0.849909 0.064015 0.900067 -0.125634
C10   C     C_R   0.150165 0.935854 0.099883 -0.124678
C11   C     C_R   0.648127 0.571140 0.600374 -0.132884
C12   C     C_R   0.350221 0.435786 0.400754 -0.126161
C13   C     C_R   0.872904 0.127300 0.998303 0.481338
C14   C     C_R   0.127282 0.872247 0.001674 0.482292
C15   C     C_R   0.622074 0.692034 0.506560 0.479665
C16   C     C_R   0.373629 0.349542 0.497703 0.479301
C17   C     C_R   0.838870 0.129208 0.944036 -0.212040
C18   C     C_R   0.161286 0.870723 0.055964 -0.210092
C19   C     C_R   0.658313 0.647642 0.557195 -0.201772
C20   C     C_R   0.340161 0.352636 0.443165 -0.191280
C21   C     C_R   0.896994 0.014645 0.909683 -0.087842
C22   C     C_R   0.103042 0.984777 0.090197 -0.087677
C23   C     C_R   0.600592 0.529463 0.591393 -0.097564
C24   C     C_R   0.395815 0.509225 0.412890 -0.060927
C25   C     C_R   0.933707 0.033743 0.963115 0.032639
C26   C     C_R   0.066377 0.965358 0.036747 0.031783
C27   C     C_R   0.562080 0.591842 0.542847 0.040405
C28   C     C_R   0.430020 0.520506 0.468513 0.044353
C29   C     C_R   0.920032 0.062940 0.009069 -0.127256
C30   C     C_R   0.080097 0.936162 0.990829 -0.126041
C31   C     C_R   0.573247 0.678467 0.499972 -0.123557
C32   C     C_R   0.418262 0.441889 0.511970 -0.126229
C33   C     C_R   0.983217 0.016008 0.972417 -0.103151
C34   C     C_R   0.016860 0.982797 0.027410 -0.103945
C35   C     C_R   0.512880 0.566116 0.535003 -0.102072
C36   C     C_R   0.476640 0.597565 0.481554 -0.091384
C37   C     C_R   0.999378 0.958428 0.070503 0.329980
C38   C     C_R   0.000705 0.040114 0.929314 0.328833
C39   C     C_R   0.487670 0.718622 0.445458 0.331190
C40   C     C_R   0.497585 0.527760 0.579086 0.328505
C41   C     C_R   0.952759 0.013573 0.062763 0.396996
C42   C     C_R   0.047343 0.985035 0.937093 0.396428
C43   C     C_R   0.535468 0.757179 0.454151 0.392741
C44   C     C_R   0.450881 0.464727 0.567731 0.404453
H1    H     H_    0.095553 0.039288 0.124653 0.166325
H2    H     H_    0.904406 0.959977 0.875194 0.163959
H3    H     H_    0.404756 0.547414 0.377959 0.167691
H4    H     H_    0.594578 0.449868 0.623062 0.169384
H5    H     H_    0.196955 0.820279 0.063932 0.146441
H6    H     H_    0.803239 0.179936 0.936131 0.147989
H7    H     H_    0.306132 0.284641 0.433376 0.148283
H8    H     H_    0.695136 0.672971 0.563009 0.146819
C45   C     C_R   0.094300 0.037718 0.480735 0.539010
C46   C     C_R   0.905268 0.033168 0.518236 0.553072
C47   C     C_R   0.405183 0.538499 0.018618 0.539687
C48   C     C_R   0.594138 0.530396 0.980977 0.553069
N1    N     N_R   0.074186 0.007495 0.424533 -0.553939
N2    N     N_R   0.925385 0.058947 0.574627 -0.552219
N3    N     N_R   0.425282 0.506679 0.074772 -0.552229
N4    N     N_R   0.574047 0.558207 0.924649 -0.552631
C49   C     C_R   0.025853 0.007418 0.396839 0.579595
C50   C     C_R   0.973049 0.091940 0.600947 0.563399
C51   C     C_R   0.473620 0.505051 0.102442 0.574532
C52   C     C_R   0.526422 0.592971 0.898418 0.564418
C53   C     C_R   0.995474 0.021337 0.426141 -0.053566
C54   C     C_R   0.003309 0.085524 0.571351 -0.051329
C55   C     C_R   0.503996 0.518817 0.073139 -0.049902
C56   C     C_R   0.496171 0.586614 0.928029 -0.051917
C57   C     C_R   0.014961 0.046135 0.484122 -0.041697
C58   C     C_R   0.983944 0.056108 0.513564 -0.042997
C59   C     C_R   0.484518 0.545444 0.015211 -0.041420
C60   C     C_R   0.515521 0.555297 0.985754 -0.043309
C61   C     C_R   0.065279 0.060956 0.512458 -0.055218
C62   C     C_R   0.933729 0.036692 0.485417 -0.049636
C63   C     C_R   0.434223 0.562307 0.986948 -0.056083
C64   C     C_R   0.565709 0.533921 0.013829 -0.049578
C65   C     C_R   0.945986 0.011311 0.398039 -0.153736
C66   C     C_R   0.052552 0.107706 0.598939 -0.153118
C67   C     C_R   0.553474 0.506943 0.101192 -0.157669
C68   C     C_R   0.446965 0.611073 0.900544 -0.152246
C69   C     C_R   0.914671 0.019339 0.426162 0.110102
C70   C     C_R   0.083918 0.096146 0.570970 0.109001
C71   C     C_R   0.584775 0.514848 0.073052 0.111135
C72   C     C_R   0.415622 0.599973 0.928550 0.108688
O21   O     O_2   0.142173 0.040356 0.505310 -0.521653
O22   O     O_2   0.858164 0.999319 0.494929 -0.523322
O23   O     O_2   0.357311 0.541949 0.994022 -0.521218
O24   O     O_2   0.641185 0.494594 0.004183 -0.522720
O25   O     O_2   0.007201 0.993504 0.340893 -0.497609
O26   O     O_2   0.991167 0.130369 0.655822 -0.504864
O27   O     O_2   0.492281 0.489695 0.158366 -0.509475
O28   O     O_2   0.508337 0.633172 0.843624 -0.502344
H9    H     H_    0.931331 0.997075 0.353204 0.183168
H10   H     H_    0.067147 0.131290 0.643422 0.183274
H11   H     H_    0.568130 0.491369 0.145999 0.179032
H12   H     H_    0.432378 0.636445 0.856128 0.183591
C73   C     C_R   0.896797 0.907714 0.642918 0.156129
C74   C     C_R   0.109278 0.807848 0.371036 0.168324
C75   C     C_R   0.602565 0.408620 0.856062 0.156577
C76   C     C_R   0.390141 0.306880 0.128162 0.167662
C77   C     C_R   0.866375 0.912357 0.672683 -0.194079
C78   C     C_R   0.139203 0.792295 0.340682 -0.183535
C79   C     C_R   0.633127 0.413421 0.826484 -0.183074
C80   C     C_R   0.360378 0.291532 0.158720 -0.199898
H13   H     H_    0.867308 0.800702 0.700680 0.137813
H14   H     H_    0.142522 0.660973 0.322861 0.136108
H15   H     H_    0.632146 0.302551 0.798274 0.138830
H16   H     H_    0.357019 0.160018 0.176445 0.137996
C81   C     C_R   0.835424 0.061529 0.667514 -0.065067
C82   C     C_R   0.164574 0.945133 0.332976 -0.066842
C83   C     C_R   0.664325 0.561678 0.832161 -0.064796
C84   C     C_R   0.335217 0.444809 0.166743 -0.069363
C85   C     C_R   0.834208 0.205186 0.631011 -0.173273
C86   C     C_R   0.160213 0.113555 0.357021 -0.180892
C87   C     C_R   0.665574 0.704421 0.868888 -0.174151
C88   C     C_R   0.339572 0.613413 0.142739 -0.178031
H17   H     H_    0.810080 0.320248 0.625336 0.138047
H18   H     H_    0.179656 0.233952 0.353065 0.138648
H19   H     H_    0.689862 0.818794 0.874903 0.137748
H20   H     H_    0.320262 0.734151 0.146899 0.139162
C89   C     C_R   0.863166 0.200138 0.600301 -0.121040
C90   C     C_R   0.131080 0.130114 0.387103 -0.119709
C91   C     C_R   0.636459 0.699186 0.899408 -0.120365
C92   C     C_R   0.368539 0.629743 0.112447 -0.122760
H21   H     H_    0.860431 0.309262 0.571063 0.129527
H22   H     H_    0.129156 0.260542 0.405594 0.136140
H23   H     H_    0.639224 0.807480 0.928855 0.129738
H24   H     H_    0.370476 0.760330 0.094015 0.136544
C93   C     C_R   0.895335 0.055303 0.606533 0.381290
C94   C     C_R   0.104759 0.980832 0.393828 0.386215
C95   C     C_R   0.604115 0.555112 0.892760 0.380120
C96   C     C_R   0.394710 0.480071 0.105479 0.386378
Cl1   Cl    Cl    0.934524 0.983238 0.119373 -0.389841
Cl2   Cl    Cl    0.065536 0.014750 0.880428 -0.398715
Cl3   Cl    Cl    0.545774 0.927901 0.411314 -0.427423
Cl4   Cl    Cl    0.433026 0.441665 0.624891 -0.396852
Cl5   Cl    Cl    0.854989 0.231387 0.048473 -0.489515
Cl6   Cl    Cl    0.145339 0.768303 0.951599 -0.490091
Cl7   Cl    Cl    0.641839 0.747736 0.452840 -0.493895
Cl8   Cl    Cl    0.358444 0.205285 0.543002 -0.491406
Cl9   Cl    Cl    0.030982 0.823218 0.130247 -0.552695
Cl10  Cl    Cl    0.969091 0.174896 0.869476 -0.557337
Cl11  Cl    Cl    0.442875 0.863464 0.398922 -0.574612
Cl12  Cl    Cl    0.531042 0.606313 0.647623 -0.558383
C97   C     C_3   0.861743 0.015559 0.390042 -0.304820
C98   C     C_3   0.839185 0.205933 0.385921 -0.625703
H25   H     H_    0.844352 0.261682 0.427476 0.244222
H26   H     H_    0.855403 0.302872 0.365139 0.213546
H27   H     H_    0.800341 0.197296 0.360840 0.227767
H28   H     H_    0.855863 0.972457 0.346922 0.170019
H29   H     H_    0.842674 0.909922 0.404292 0.229362
C99   C     C_3   0.136407 0.122822 0.606433 -0.306867
C100  C     C_3   0.161565 0.938337 0.625501 -0.615214
H30   H     H_    0.146857 0.868221 0.653440 0.212572
H31   H     H_    0.156868 0.846611 0.589763 0.249678
H32   H     H_    0.200266 0.961604 0.648763 0.228152
H33   H     H_    0.154458 0.208735 0.585174 0.226477
H34   H     H_    0.140630 0.203110 0.644393 0.167758
C101  C     C_3   0.637706 0.509247 0.109134 -0.305753
C102  C     C_3   0.660458 0.699025 0.113482 -0.624149
H35   H     H_    0.699286 0.689126 0.138586 0.229319
H36   H     H_    0.655381 0.755466 0.071998 0.244720
H37   H     H_    0.644313 0.796063 0.134342 0.211601
H38   H     H_    0.643563 0.465323 0.152205 0.167542
H39   H     H_    0.656653 0.403410 0.094728 0.230329
C103  C     C_3   0.363221 0.630653 0.893304 -0.307605
C104  C     C_3   0.337486 0.448320 0.873118 -0.613596
H40   H     H_    0.351967 0.379580 0.844748 0.212722
H41   H     H_    0.341897 0.354152 0.908303 0.250057
H42   H     H_    0.298861 0.474384 0.850018 0.228309
H43   H     H_    0.345439 0.715645 0.915107 0.226730
H44   H     H_    0.359259 0.713674 0.855864 0.167778
C105  C     C_3   0.930195 0.745189 0.651062 -0.309586
C106  C     C_3   0.919288 0.634445 0.597778 -0.731324
H45   H     H_    0.880197 0.620068 0.575138 0.234020
H46   H     H_    0.934822 0.700975 0.570232 0.226725
H47   H     H_    0.935621 0.495766 0.608295 0.234775
H48   H     H_    0.967759 0.792389 0.666732 0.231162
H49   H     H_    0.927268 0.650634 0.683223 0.199215
C107  C     C_3   0.082521 0.639758 0.377968 -0.338345
C108  C     C_3   0.099618 0.575366 0.438424 -0.742027
H50   H     H_    0.138899 0.555599 0.455862 0.244264
H51   H     H_    0.089786 0.674455 0.464483 0.235413
H52   H     H_    0.082151 0.443060 0.440486 0.215582
H53   H     H_    0.043705 0.668091 0.362212 0.228689
H54   H     H_    0.087134 0.524183 0.352554 0.185052
C109  C     C_3   0.569002 0.246906 0.847484 -0.303460
C110  C     C_3   0.579941 0.133923 0.900442 -0.735127
H55   H     H_    0.619035 0.118233 0.922894 0.233959
H56   H     H_    0.564586 0.199595 0.928297 0.227167
H57   H     H_    0.563489 0.995818 0.889557 0.236729
H58   H     H_    0.531489 0.295185 0.832072 0.233349
H59   H     H_    0.571749 0.153632 0.814978 0.201089
C111  C     C_3   0.416658 0.138332 0.120859 -0.345210
C112  C     C_3   0.399162 0.075048 0.060325 -0.734947
H60   H     H_    0.359892 0.055555 0.043255 0.244638
H61   H     H_    0.408679 0.174674 0.034139 0.235256
H62   H     H_    0.416613 0.942803 0.057955 0.214046
H63   H     H_    0.455484 0.165641 0.136335 0.225461
H64   H     H_    0.412145 0.022603 0.146311 0.183829

loop_
_geom_bond_atom_site_label_1
_geom_bond_atom_site_label_2
_ccdc_geom_bond_type
O17   V3    S    
N3    C51   A    
O1    C5    A    
C103  C104  S    
C51   C55   A    
O19   V1    S    
C9    C21   A    
C97   C98   S    
O3    C7    A    
C59   C60   A    
C10   C18   A    
C56   C60   A    
C81   C85   A    
C48   N4    A    
C11   C23   A    
C88   C92   A    
C111  C112  S    
C105  H49   S    
C25   C33   A    
C33   C38   A    
C5    C12   S    
C75   C95   A    
C108  H50   S    
C83   C87   A    
C6    C11   S    
C87   C91   A    
C35   C40   A    
C57   C58   A    
C62   C69   A    
C69   C97   S    
C36   C39   A    
C40   C44   A    
C47   C63   A    
C37   Cl9   S    
C79   C83   A    
C14   C18   A    
C80   C84   A    
O4    C8    A    
N4    C95   S    
C59   C63   A    
C98   H25   S    
C58   C62   A    
C77   C81   A    
C101  H39   S    
O1    V3    S    
O13   V1    S    
C102  H35   S    
O2    V4    S    
C74   C107  S    
O3    V1    S    
C54   C66   A    
C22   H1    S    
C28   C36   A    
C17   H6    S    
C90   H22   S    
N2    C93   S    
C87   H19   S    
C1    O15   A    
C15   C31   A    
C52   C56   A    
C2    O16   A    
O20   V2    S    
C16   C32   A    
C75   C109  S    
C107  H53   S    
C46   C62   A    
C97   H28   S    
C45   C61   A    
C106  H45   S    
C10   C22   A    
C21   C25   A    
C11   C19   A    
C16   C20   A    
C53   C65   A    
C66   H10   S    
C84   C88   A    
C76   C80   A    
C13   C29   A    
C7    C10   S    
C34   C37   A    
O11   C7    A    
C109  H58   S    
O15   V3    S    
C35   C36   A    
O12   C8    A    
C48   C64   A    
C53   C57   A    
C74   C94   A    
C72   C103  S    
O10   V2    S    
C80   H16   S    
C54   C58   A    
O5    V1    S    
C108  H51   S    
C65   C69   A    
C99   H33   S    
C109  H59   S    
C76   C111  S    
O7    V3    S    
C38   C42   A    
C52   O28   S    
C104  H40   S    
C26   C34   A    
C88   H20   S    
C111  H63   S    
C2    C83   S    
C41   Cl1   S    
C50   C54   A    
C3    C82   S    
C112  H60   S    
C49   C53   A    
O18   V4    S    
C23   C27   A    
N3    C96   S    
C100  H31   S    
C32   C44   A    
C14   Cl6   S    
O11   V3    S    
N1    C94   S    
C71   C101  S    
O8    V4    S    
C74   C78   A    
C20   H7    S    
C99   H34   S    
C101  C102  S    
C104  H41   S    
C39   C43   A    
C73   C77   A    
C63   C72   A    
C37   C41   A    
C112  H61   S    
C46   N2    A    
O7    C3    A    
C109  C110  S    
C14   C30   A    
C110  H57   S    
C45   N1    A    
O8    C4    A    
C100  H32   S    
C48   O24   S    
C106  H47   S    
C97   H29   S    
O9    C5    A    
C105  H48   S    
C46   O22   S    
C26   C30   A    
C110  H55   S    
C43   Cl3   S    
C45   O21   S    
C42   Cl2   S    
C73   C105  S    
C73   C93   A    
C103  H43   S    
O14   V2    S    
C61   C70   A    
C99   C100  S    
O6    V2    S    
C110  H56   S    
C4    C81   S    
C76   C96   A    
C86   H18   S    
C90   C94   A    
C12   C20   A    
C27   C35   A    
C24   H3    S    
C15   Cl7   S    
C57   C61   A    
C75   C79   A    
C68   C72   A    
C29   C41   A    
C13   Cl5   S    
O16   V4    S    
C108  H52   S    
O9    V1    S    
C19   H8    S    
C85   H17   S    
C3    O13   A    
C64   C71   A    
C70   C99   S    
C38   Cl10  S    
C21   H2    S    
C51   O27   S    
C67   H11   S    
C92   H24   S    
C55   C67   A    
C82   C86   A    
C15   C19   A    
C16   Cl8   S    
C30   C42   A    
C103  H44   S    
C91   C95   A    
O12   V4    S    
C22   C26   A    
C107  H54   S    
C8    C9    S    
C102  H37   S    
C47   O23   S    
C50   O26   S    
C67   C71   A    
C9    C17   A    
O10   C6    A    
C79   H15   S    
C49   O25   S    
C104  H42   S    
C65   H9    S    
C31   C43   A    
C85   C89   A    
N2    C50   A    
C101  H38   S    
C112  H62   S    
C47   N3    A    
C33   C34   A    
N4    C52   A    
C98   H26   S    
C86   C90   A    
C25   C29   A    
C91   H23   S    
C60   C64   A    
C39   Cl11  S    
O2    C6    A    
C18   H5    S    
C89   C93   A    
C102  H36   S    
C12   C24   A    
C27   C31   A    
C111  H64   S    
C13   C17   A    
C105  C106  S    
O4    V2    S    
C23   H4    S    
O6    C2    A    
C56   C68   A    
C55   C59   A    
C1    C84   S    
C77   H13   S    
C24   C28   A    
C89   H21   S    
C107  C108  S    
C78   C82   A    
C40   Cl12  S    
C100  H30   S    
C66   C70   A    
C4    O14   A    
C78   H14   S    
C106  H46   S    
O5    C1    A    
C92   C96   A    
C44   Cl4   S    
N1    C49   A    
C28   C32   A    
C68   H12   S    
C98   H27   S    
