data_mof_unit_22512.cif
_audit_creation_date              2013-03-05T15:47:14-0500
_audit_creation_method            fapswitch 2.2
_symmetry_space_group_name_H-M    P1
_symmetry_Int_Tables_number       1
_space_group_crystal_system       triclinic
_cell_length_a                    27.827878
_cell_length_b                    11.034929
_cell_length_c                    9.796779
_cell_angle_alpha                 111.099828
_cell_angle_beta                  98.037662
_cell_angle_gamma                 90.987628
_cell_volume                      2771.66708371

loop_
_atom_site_label
_atom_site_type_symbol
_atom_site_description
_atom_site_fract_x
_atom_site_fract_y
_atom_site_fract_z
_atom_type_partial_charge
O1    O     O_R   0.504520 0.332330 0.577400 -0.590599
O2    O     O_R   0.495480 0.667670 0.422600 -0.589568
O3    O     O_R   0.490210 0.295500 0.332650 -0.553694
O4    O     O_R   0.509790 0.704500 0.667350 -0.555626
C1    C     C_R   0.496507 0.254049 0.440619 0.875273
C2    C     C_R   0.503506 0.745952 0.559380 0.870810
O5    O     O_R   0.437420 0.518430 0.622370 -0.537341
O6    O     O_R   0.562580 0.481570 0.377630 -0.539568
O7    O     O_R   0.423110 0.481600 0.377610 -0.584731
O8    O     O_R   0.576890 0.518400 0.622390 -0.584284
C3    C     C_R   0.407493 0.503070 0.502343 0.844537
C4    C     C_R   0.592459 0.496825 0.497651 0.848915
Cu1   Cu    Cu3+1 0.508480 0.521810 0.644910 1.005943
Cu2   Cu    Cu3+1 0.491520 0.478190 0.355090 1.006125
C5    C     C_R   0.177954 0.397274 0.517811 0.528655
C6    C     C_R   0.821087 0.594485 0.465671 0.531442
O9    O     O_2   0.202874 0.297517 0.532009 -0.544398
O10   O     O_2   0.795606 0.688683 0.438906 -0.544124
N1    N     N_R   0.201934 0.499844 0.503026 -0.460798
N2    N     N_R   0.797714 0.498177 0.493863 -0.460826
C7    C     C_R   0.178052 0.603393 0.490413 0.529783
C8    C     C_R   0.822164 0.400103 0.519220 0.528999
C9    C     C_R   0.284877 0.553442 0.635470 -0.182367
C10   C     C_R   0.714635 0.436861 0.364071 -0.180529
C11   C     C_R   0.335240 0.560461 0.639427 0.307709
C12   C     C_R   0.664329 0.430319 0.361455 0.305155
C13   C     C_R   0.322454 0.451694 0.370808 -0.246537
C14   C     C_R   0.677505 0.556336 0.626912 -0.248419
C15   C     C_R   0.271697 0.448772 0.366268 0.142319
C16   C     C_R   0.728226 0.559289 0.630485 0.143237
C17   C     C_R   0.253344 0.499218 0.501226 0.267979
C18   C     C_R   0.746347 0.499575 0.496364 0.267376
C19   C     C_R   0.101867 0.499772 0.502275 -0.042746
C20   C     C_R   0.897721 0.497166 0.493515 -0.042445
C21   C     C_R   0.127502 0.395299 0.517726 -0.022036
C22   C     C_R   0.871512 0.595941 0.465232 -0.021642
C23   C     C_R   0.102327 0.290858 0.531358 -0.155841
C24   C     C_R   0.896023 0.693601 0.436924 -0.156945
C25   C     C_R   0.127587 0.604991 0.488988 -0.024157
C26   C     C_R   0.872596 0.398009 0.520069 -0.024187
C27   C     C_R   0.354519 0.506419 0.505633 -0.189544
C28   C     C_R   0.645331 0.493146 0.494078 -0.187618
H1    H     H_    0.337571 0.410593 0.269532 0.176042
H2    H     H_    0.662453 0.604096 0.727111 0.172846
H3    H     H_    0.121134 0.208761 0.541959 0.185341
H4    H     H_    0.876578 0.769393 0.412354 0.184332
C29   C     C_R   0.974563 0.395385 0.520597 0.042053
C30   C     C_R   0.025254 0.603689 0.480372 0.042055
C31   C     C_R   0.973808 0.600234 0.471961 0.042899
C32   C     C_R   0.025500 0.393715 0.517665 0.043186
C33   C     C_R   0.948911 0.497558 0.495293 0.067044
C34   C     C_R   0.050657 0.499061 0.500131 0.066875
C35   C     C_R   0.948142 0.298425 0.548891 -0.206816
C36   C     C_R   0.052513 0.709191 0.471002 -0.206498
C37   C     C_R   0.898238 0.299804 0.548202 -0.148822
C38   C     C_R   0.102574 0.709415 0.474921 -0.148096
O11   O     O_2   0.797703 0.305389 0.544215 -0.529296
O12   O     O_2   0.203097 0.703986 0.478412 -0.528306
C39   C     C_R   0.052408 0.289663 0.531043 -0.206038
C40   C     C_R   0.946064 0.695768 0.439760 -0.206025
H5    H     H_    0.729571 0.388867 0.263286 0.178995
H6    H     H_    0.269789 0.594551 0.737242 0.177594
H7    H     H_    0.879817 0.223243 0.570561 0.187735
H8    H     H_    0.121636 0.792378 0.466711 0.187235
H9    H     H_    0.964908 0.220523 0.574655 0.137305
H10   H     H_    0.036502 0.794958 0.463071 0.136022
H11   H     H_    0.036021 0.203946 0.539068 0.135709
H12   H     H_    0.961679 0.773084 0.413609 0.137040
H13   H     H_    0.492604 0.864673 0.367958 0.189037
H14   H     H_    0.507487 0.135328 0.632031 0.188812
C41   C     C_2   0.494632 0.114778 0.407043 -0.308857
C42   C     C_2   0.505414 0.885224 0.592951 -0.312140
C43   C     C_2   0.500944 0.069552 0.516691 -0.142264
C44   C     C_2   0.499138 0.930449 0.483299 -0.141246
H15   H     H_    0.511964 0.951269 0.708098 0.169363
H16   H     H_    0.488075 0.048735 0.291894 0.169254
H17   H     H_    0.467321 0.417898 0.845753 0.156861
H18   H     H_    0.532633 0.582224 0.154273 0.154722
N3    N     N_2   0.478780 0.445430 0.137360 -0.274408
N4    N     N_2   0.521220 0.554570 0.862640 -0.275610
C45   C     C_2   0.504222 0.510355 0.081285 -0.005784
C46   C     C_2   0.495750 0.489714 0.918729 -0.001378
H19   H     H_    0.548023 0.622047 0.934395 0.198478
H20   H     H_    0.451989 0.377918 0.065597 0.199964
C47   C     C_3   0.236017 0.393504 0.221862 -0.383734
C48   C     C_3   0.258738 0.347165 0.078947 -0.379900
C49   C     C_3   0.219548 0.300122 0.941808 -0.755641
H21   H     H_    0.196261 0.217507 0.942216 0.250782
H22   H     H_    0.196484 0.380501 0.938464 0.253342
H23   H     H_    0.236995 0.266744 0.840543 0.273470
H24   H     H_    0.281573 0.428695 0.073935 0.247735
H25   H     H_    0.281729 0.265320 0.076898 0.231492
H26   H     H_    0.213642 0.310357 0.224966 0.212810
H27   H     H_    0.211233 0.470113 0.216395 0.218396
C50   C     C_3   0.764113 0.624228 0.772914 -0.383063
C51   C     C_3   0.741677 0.681809 0.915519 -0.379432
C52   C     C_3   0.781096 0.738711 0.051213 -0.755289
H28   H     H_    0.804534 0.661654 0.063618 0.256141
H29   H     H_    0.803970 0.817517 0.040873 0.248916
H30   H     H_    0.763866 0.780086 0.152264 0.270963
H31   H     H_    0.718316 0.760722 0.908470 0.231524
H32   H     H_    0.719272 0.604423 0.930445 0.244232
H33   H     H_    0.789148 0.550682 0.786879 0.218756
H34   H     H_    0.786183 0.703283 0.760063 0.211808
N5    N     N_R   0.633643 0.354251 0.225390 0.132717
O13   O     O_R   0.642850 0.358508 0.100502 -0.362783
O14   O     O_R   0.602673 0.263442 0.222849 -0.344167
N6    N     N_R   0.365694 0.628082 0.778796 0.132709
O15   O     O_R   0.356705 0.610532 0.897466 -0.370427
O16   O     O_R   0.395760 0.724940 0.792652 -0.340260

loop_
_geom_bond_atom_site_label_1
_geom_bond_atom_site_label_2
_geom_bond_distance
_ccdc_geom_bond_type
C49   H21   1.110875 S    
C10   H5    1.083511 S    
C51   H32   1.111930 S    
C13   C15   1.406370 A    
C43   C44   1.448083 S    
C50   C51   1.537483 S    
N1    C17   1.433289 S    
C8    O11   1.349826 S    
C45   C46   1.508505 S    
C47   C48   1.537769 S    
C19   C34   1.422106 A    
C5    N1    1.366169 A    
N5    O14   1.301466 A    
C20   C33   1.422105 A    
C19   C25   1.408394 A    
C31   C40   1.416452 A    
O1    C1    1.291488 A    
C32   C39   1.416613 A    
C21   C23   1.394999 A    
C10   C12   1.396710 A    
C48   H24   1.111965 S    
C42   H15   1.087622 S    
N3    H20   1.030681 S    
N6    O15   1.301325 A    
C14   C28   1.407360 A    
O4    Cu1   1.946775 S    
C4    C28   1.477532 S    
C39   H11   1.075887 S    
C47   H26   1.111829 S    
C9    H6    1.083582 S    
C31   C33   1.421141 A    
C37   H7    1.083609 S    
C32   C34   1.421394 A    
C38   H8    1.083609 S    
C35   H9    1.075872 S    
C15   C47   1.524571 S    
C6    N2    1.366206 A    
C29   C35   1.416205 A    
Cu1   N4    2.008783 S    
C51   H31   1.111719 S    
O2    C2    1.291484 A    
N4    H19   1.030677 S    
C12   N5    1.435976 S    
C5    C21   1.403644 A    
C52   H29   1.110882 S    
C50   H33   1.111517 S    
C52   H28   1.111089 S    
C29   C32   1.422043 A    
C35   C37   1.388179 A    
C36   C38   1.388180 A    
N4    C46   1.300402 D    
C11   C27   1.416476 A    
N3    C45   1.300389 D    
C48   C49   1.527245 S    
C29   C33   1.421870 A    
C2    C42   1.449589 S    
C14   H2    1.080242 S    
C9    C17   1.396529 A    
C30   C36   1.416048 A    
O7    Cu2   1.946309 S    
C10   C18   1.396681 A    
C16   C50   1.524328 S    
C47   H27   1.111574 S    
C13   C27   1.408220 A    
O5    C3    1.297214 A    
C25   C38   1.395160 A    
C7    C25   1.402928 A    
C30   C34   1.421624 A    
O6    C4    1.296726 A    
C26   C37   1.395067 A    
C8    C26   1.402901 A    
C51   C52   1.527180 S    
H14   C43   1.088209 S    
H13   C44   1.088210 S    
C6    O10   1.349704 S    
Cu2   N3    2.008781 S    
O7    C3    1.296865 A    
C23   C39   1.388536 A    
O3    Cu2   1.946774 S    
O8    C4    1.296119 A    
C24   C40   1.388545 A    
C42   C44   1.330439 D    
C30   C31   1.421508 A    
N2    C8    1.366604 A    
C49   H22   1.111031 S    
C20   C26   1.408258 A    
O4    C2    1.287657 A    
O1    Cu1   1.948703 S    
C23   H3    1.083655 S    
C52   H30   1.110524 S    
C50   H34   1.111878 S    
C12   C28   1.415774 A    
C41   C43   1.330433 D    
N2    C18   1.433326 S    
C5    O9    1.349672 S    
O6    Cu2   1.957006 S    
N1    C7    1.366571 A    
O3    C1    1.287653 A    
O8    Cu1   1.946314 S    
C36   H10   1.076148 S    
N5    O13   1.301317 A    
C14   C16   1.406499 A    
C7    O12   1.349806 S    
C15   C17   1.409796 A    
C48   H25   1.111702 S    
C6    C22   1.403658 A    
C16   C18   1.410077 A    
H18   C45   1.085047 S    
C41   H16   1.087620 S    
H17   C46   1.085056 S    
C22   C24   1.395096 A    
C19   C21   1.408788 A    
N6    O16   1.301450 A    
C3    C27   1.479811 S    
C20   C22   1.408930 A    
C9    C11   1.396628 A    
O2    Cu2   1.948704 S    
C24   H4    1.083683 S    
C13   H1    1.079995 S    
O5    Cu1   1.957006 S    
C40   H12   1.076146 S    
C1    C41   1.449577 S    
C49   H23   1.110569 S    
Cu1   Cu2   2.673857 S    
C11   N6    1.435381 S    
