data_mof_unit_65704.cif
_audit_creation_date              2012-12-11T17:26:13-0500
_audit_creation_method            fapswitch 2.2
_symmetry_space_group_name_H-M    P1
_symmetry_Int_Tables_number       1
_space_group_crystal_system       triclinic
_cell_length_a                    6.948807
_cell_length_b                    18.958571
_cell_length_c                    20.733691
_cell_angle_alpha                 107.581005
_cell_angle_beta                  90.254585
_cell_angle_gamma                 90.540977
_cell_volume                      2603.66929926

loop_
_atom_site_label
_atom_site_type_symbol
_atom_type_description
_atom_site_fract_x
_atom_site_fract_y
_atom_site_fract_z
_atom_type_partial_charge
O1    O     O_R   0.505770 0.444240 0.557370 -0.535892
O2    O     O_R   0.169820 0.415250 0.421330 -0.536076
O3    O     O_R   0.005590 0.555760 0.442630 -0.534190
C1    C     C_R   0.338709 0.393631 0.395294 0.718400
O4    O     O_R   0.175660 0.435500 0.555540 -0.537997
O5    O     O_R   0.011460 0.576150 0.577800 -0.533067
C2    C     C_R   0.344497 0.421160 0.575641 0.721215
O6    O     O_R   0.499890 0.423850 0.422200 -0.534559
O7    O     O_3   0.341200 0.546120 0.507150 -0.361622
V1    V     V_3+5 0.063980 0.491440 0.498670 1.448258
O8    O     O_R   0.682100 0.584750 0.578670 -0.535574
C3    C     C_R   0.852042 0.606239 0.604596 0.724804
O9    O     O_R   0.676270 0.564500 0.444460 -0.529421
C4    C     C_R   0.845098 0.578840 0.424363 0.723216
V2    V     V_3+5 0.564720 0.508560 0.501330 1.463130
O10   O     O_3   0.837360 0.453880 0.492850 -0.370076
H1    H     H_    0.158277 0.668818 0.258906 0.171344
C5    C     C_R   0.053615 0.747227 0.210996 -0.118964
H2    H     H_    0.182431 0.744228 0.181082 0.137911
C6    C     C_R   0.902320 0.793503 0.205191 0.059991
C7    C     C_R   0.737227 0.796378 0.244676 -0.190277
H3    H     H_    0.619235 0.831855 0.240733 0.154163
C8    C     C_R   0.723099 0.753732 0.289529 0.398394
C9    C     C_R   0.875211 0.707168 0.295234 0.036067
C10   C     C_R   0.039894 0.704322 0.255491 -0.153520
C11   C     C_1   0.916193 0.838070 0.159048 -0.018456
C12   C     C_1   0.864291 0.662158 0.341182 0.065741
C13   C     C_1   0.855280 0.624424 0.379286 -0.141631
C14   C     C_1   0.926567 0.875623 0.120816 -0.182187
C15   C     C_1   0.916327 0.831613 0.833090 -0.189694
C16   C     C_1   0.900966 0.780175 0.780819 0.014056
C17   C     C_1   0.881453 0.719789 0.719199 0.016006
C18   C     C_1   0.866095 0.668350 0.666929 -0.183686
C19   C     C_1   0.352936 0.331298 0.332774 -0.190330
C20   C     C_1   0.375703 0.280071 0.280657 0.014976
C21   C     C_1   0.406763 0.220020 0.219279 0.016837
C22   C     C_1   0.429526 0.168784 0.167170 -0.184323
H4    H     H_    0.665114 0.332584 0.740312 0.154217
C23   C     C_R   0.561269 0.254170 0.789245 0.398589
C24   C     C_R   0.408106 0.207204 0.795179 0.035668
C25   C     C_R   0.241489 0.203976 0.755690 -0.153158
H5    H     H_    0.122217 0.168180 0.759285 0.170732
C26   C     C_R   0.226920 0.246875 0.711228 -0.117317
H6    H     H_    0.096625 0.243556 0.681519 0.138269
C27   C     C_R   0.379256 0.293551 0.705194 0.059602
C28   C     C_R   0.546268 0.296809 0.744427 -0.190277
C29   C     C_1   0.419747 0.162213 0.841141 0.065371
C30   C     C_1   0.364657 0.338091 0.659042 -0.018175
C31   C     C_1   0.354195 0.375637 0.620806 -0.182075
C32   C     C_1   0.428849 0.124485 0.879249 -0.142021
O11   O     O_R   0.282550 0.076220 0.077760 -0.533354
O12   O     O_R   0.606940 0.064510 0.944450 -0.529732
O13   O     O_R   0.770980 0.923830 0.922210 -0.534345
C33   C     C_R   0.438162 0.078873 0.924333 0.723043
O14   O     O_R   0.612630 0.084760 0.078660 -0.534223
O15   O     O_R   0.776710 0.944230 0.057380 -0.536280
C34   C     C_R   0.443740 0.106426 0.104668 0.723027
O16   O     O_R   0.276820 0.055820 0.942590 -0.533998
O17   O     O_3   0.441200 0.953910 0.992830 -0.369969
V3    V     V_3+5 0.718480 0.008550 0.001330 1.462092
O18   O     O_R   0.106020 0.935440 0.055580 -0.537879
C35   C     C_R   0.937132 0.921122 0.075661 0.721449
O19   O     O_R   0.100330 0.915180 0.921370 -0.537385
C36   C     C_R   0.930391 0.893722 0.895424 0.720184
V4    V     V_3+5 0.217720 0.991360 0.998720 1.448746
O20   O     O_3   0.945130 0.046090 0.007170 -0.361775
Cl1   Cl    Cl    0.513064 0.759986 0.337995 -0.666135
Cl2   Cl    Cl    0.773730 0.260949 0.837381 -0.665858

loop_
_geom_bond_atom_site_label_1
_geom_bond_atom_site_label_2
_ccdc_geom_bond_type
O5    V1    S    
C24   C29   S    
O2    C1    A    
O8    C3    A    
O19   V4    S    
C23   Cl2   S    
O11   C34   A    
C15   C36   S    
C29   C32   T    
C26   C27   A    
C25   H5    S    
O16   V4    S    
C16   C17   S    
C9    C12   S    
C1    O6    A    
C15   C16   T    
C8    C9    A    
O15   C35   A    
H1    C10   S    
C17   C18   T    
C6    C7    A    
C7    C8    A    
O7    V2    S    
V3    O20   S    
O4    V1    S    
O3    V1    S    
V1    O10   S    
C7    H3    S    
O17   V4    S    
C26   H6    S    
C25   C26   A    
C32   C33   S    
C5    C10   A    
C6    C11   S    
O3    C4    A    
C23   C28   A    
O1    V2    S    
C24   C25   A    
O15   V3    S    
O13   V3    S    
O12   C33   A    
C19   C20   T    
O6    V2    S    
C5    C6    A    
O14   C34   A    
O9    V2    S    
O5    C3    A    
O18   C35   A    
C33   O16   A    
O13   C36   A    
C1    C19   S    
H4    C28   S    
O11   V4    S    
V2    O10   S    
O2    V1    S    
O18   V4    S    
O17   V3    S    
C5    H2    S    
C9    C10   A    
C2    C31   S    
C11   C14   T    
V4    O20   S    
O7    V1    S    
C27   C30   S    
C8    Cl1   S    
C23   C24   A    
O4    C2    A    
C14   C35   S    
C21   C22   T    
O1    C2    A    
O12   V3    S    
O9    C4    A    
C4    C13   S    
C3    C18   S    
O14   V3    S    
O8    V2    S    
C30   C31   T    
C22   C34   S    
O19   C36   A    
C27   C28   A    
C12   C13   T    
C20   C21   S    
