data_mof_unit_20348.cif
_audit_creation_date              2012-12-10T17:11:10-0500
_audit_creation_method            fapswitch 2.2
_symmetry_space_group_name_H-M    P1
_symmetry_Int_Tables_number       1
_space_group_crystal_system       triclinic
_cell_length_a                    10.067541
_cell_length_b                    10.648752
_cell_length_c                    16.579194
_cell_angle_alpha                 90.654403
_cell_angle_beta                  86.384192
_cell_angle_gamma                 90.368564
_cell_volume                      1773.71854944

loop_
_atom_site_label
_atom_site_type_symbol
_atom_type_description
_atom_site_fract_x
_atom_site_fract_y
_atom_site_fract_z
_atom_type_partial_charge
C1    C     C_R   0.501087 0.737578 0.502973 0.854718
C2    C     C_R   0.524208 0.513170 0.256657 -0.440693
C3    C     C_2   0.604858 0.064210 0.455157 0.392026
C4    C     C_R   0.482055 0.507581 0.653129 0.855630
C5    C     C_2   0.496157 0.132704 0.472204 -0.343394
C6    C     C_2   0.584171 0.928333 0.447363 0.279317
C7    C     C_2   0.509885 0.871981 0.507448 0.188695
C8    C     C_2   0.080830 0.436747 0.447532 0.523423
C9    C     C_2   0.933238 0.463437 0.439228 -0.103551
C10   C     C_R   0.499821 0.262876 0.493441 0.971738
C11   C     C_R   0.517095 0.500290 0.345702 0.974360
C12   C     C_R   0.355617 0.519746 0.785368 -0.196502
C13   C     C_R   0.468001 0.553472 0.736120 -0.111236
C14   C     C_R   0.551197 0.650479 0.760633 -0.221887
C15   C     C_R   0.531202 0.703706 0.837046 -0.270305
C16   C     C_R   0.425455 0.662743 0.889156 0.036889
C17   C     C_R   0.331792 0.574951 0.861392 0.442263
C18   C     C_3   0.650498 0.914287 0.309892 0.073372
C19   C     C_3   0.516439 0.894609 0.272873 -0.402941
C20   C     C_3   0.516083 0.953131 0.189357 -0.925102
C21   C     C_3   0.373149 0.887743 0.628401 0.100948
C22   C     C_3   0.239930 0.920713 0.594599 -0.371147
C23   C     C_R   0.415565 0.523687 0.130435 0.324810
C24   C     C_3   0.124227 0.870382 0.648320 -0.954256
C25   C     C_3   0.086679 0.246710 0.375642 0.073890
C26   C     C_3   0.079947 0.158304 0.448352 -0.340312
C27   C     C_3   0.070355 0.021095 0.421436 -0.997148
C28   C     C_3   0.889770 0.580100 0.621244 0.167165
C29   C     C_3   0.960279 0.553307 0.698500 -0.364854
C30   C     C_3   0.925307 0.648582 0.765966 -0.942610
C31   C     C_3   0.182762 0.564283 0.243748 0.212459
C32   C     C_3   0.219284 0.701471 0.262740 -0.462700
C33   C     C_3   0.097894 0.786206 0.260758 -0.895839
C34   C     C_R   0.406198 0.509509 0.214381 0.384149
C35   C     C_3   0.837239 0.416348 0.211082 0.122759
C36   C     C_3   0.772505 0.287888 0.229732 -0.442841
C37   C     C_3   0.855803 0.182365 0.189501 -0.920953
C38   C     C_R   0.647672 0.535931 0.213564 0.423799
C39   C     C_R   0.649472 0.583641 0.135038 0.316491
C40   C     C_R   0.532376 0.576457 0.092811 -0.201107
C41   C     C_2   0.439067 0.679596 0.975678 0.440601
C42   C     C_2   0.534676 0.610600 0.007413 -0.325670
H1    H     H_    0.630388 0.686848 0.720540 0.155066
H2    H     H_    0.728680 0.868018 0.269829 0.196581
H3    H     H_    0.677633 0.015400 0.311454 0.151950
H4    H     H_    0.497101 0.792245 0.267755 0.218662
H5    H     H_    0.435590 0.937436 0.312646 0.210129
H6    H     H_    0.539450 0.055069 0.192898 0.271246
H7    H     H_    0.415971 0.941834 0.165704 0.270351
H8    H     H_    0.590460 0.906193 0.146982 0.273151
H9    H     H_    0.376282 0.931998 0.689264 0.182572
H10   H     H_    0.383040 0.785369 0.638481 0.139459
H11   H     H_    0.231362 0.024386 0.590668 0.234104
H12   H     H_    0.398117 0.089261 0.470998 0.103207
H13   H     H_    0.234645 0.879644 0.533065 0.227564
H14   H     H_    0.132881 0.767049 0.652924 0.272069
H15   H     H_    0.028750 0.892907 0.621856 0.262635
H16   H     H_    0.124408 0.913327 0.709686 0.276657
H17   H     H_    0.145483 0.200984 0.324576 0.192291
H18   H     H_    0.986170 0.261555 0.353828 0.121273
H19   H     H_    0.169988 0.170514 0.482984 0.238960
H20   H     H_    0.991912 0.182606 0.489207 0.247508
H21   H     H_    0.997698 0.009609 0.374168 0.274043
H22   H     H_    0.037376 0.962044 0.473699 0.275005
H23   H     H_    0.103428 0.575377 0.526415 0.137145
H24   H     H_    0.169364 0.988143 0.396745 0.261060
H25   H     H_    0.787050 0.607479 0.637105 0.182487
H26   H     H_    0.936710 0.662721 0.590281 0.081590
H27   H     H_    0.931673 0.458240 0.720869 0.255635
H28   H     H_    0.069646 0.553605 0.684308 0.214551
H29   H     H_    0.927540 0.745825 0.742727 0.265643
H30   H     H_    0.997636 0.641314 0.813547 0.301022
H31   H     H_    0.824545 0.628432 0.793858 0.269627
H32   H     H_    0.098284 0.538486 0.286457 0.149939
H33   H     H_    0.144511 0.555740 0.182669 0.196629
H34   H     H_    0.893911 0.452435 0.380399 0.136035
H35   H     H_    0.260419 0.708290 0.323310 0.238024
H36   H     H_    0.294918 0.735477 0.216529 0.213956
H37   H     H_    0.050170 0.774514 0.202494 0.292227
H38   H     H_    0.129484 0.885717 0.266529 0.261719
H39   H     H_    0.024341 0.763459 0.311353 0.274214
H40   H     H_    0.938216 0.415644 0.233809 0.137902
H41   H     H_    0.852156 0.428924 0.144622 0.193583
H42   H     H_    0.762971 0.273659 0.296148 0.250288
H43   H     H_    0.671431 0.283617 0.206521 0.215929
H44   H     H_    0.867287 0.196314 0.123126 0.278045
H45   H     H_    0.608312 0.562678 0.967403 0.163235
H46   H     H_    0.806093 0.090561 0.200633 0.259178
H47   H     H_    0.955840 0.179858 0.214022 0.259809
H48   H     H_    0.203221 0.595397 0.952999 0.386748
H49   H     H_    0.346861 0.454263 0.032750 0.367798
H50   H     H_    0.377093 0.763448 0.075744 0.343499
H51   H     H_    0.285729 0.450537 0.764564 0.172314
H52   H     H_    0.602841 0.771476 0.857518 0.166475
H53   H     H_    0.751747 0.680743 0.052628 0.346523
H54   H     H_    0.795100 0.047232 0.443976 0.346982
N1    N     N_2   0.147950 0.498670 0.499150 -0.198906
N2    N     N_2   0.852290 0.498640 0.499130 0.059698
O1    O     O_R   0.386960 0.680940 0.500010 -0.663444
O2    O     O_3   0.730655 0.116932 0.449903 -0.763569
O3    O     O_3   0.650458 0.856617 0.386329 -0.651433
O4    O     O_3   0.479907 0.938682 0.579698 -0.680506
O5    O     O_3   0.153231 0.360198 0.392665 -0.593912
O6    O     O_3   0.896388 0.470786 0.572048 -0.569340
O7    O     O_3   0.285958 0.476595 0.254809 -0.570259
O8    O     O_3   0.766099 0.517300 0.249987 -0.600230
O9    O     O_3   0.220654 0.535712 0.907505 -0.771285
O10   O     O_3   0.311088 0.482003 0.086980 -0.738349
O11   O     O_3   0.345312 0.749258 0.021081 -0.753454
O12   O     O_R   0.613100 0.680900 0.499990 -0.592394
O13   O     O_R   0.373570 0.500040 0.615810 -0.627544
O14   O     O_R   0.599710 0.500000 0.615790 -0.608478
O15   O     O_R   0.386900 0.319100 0.500010 -0.613800
O16   O     O_R   0.613040 0.319060 0.499990 -0.529867
O17   O     O_R   0.400290 0.500000 0.384210 -0.539558
O18   O     O_R   0.626430 0.499960 0.384190 -0.576395
O19   O     O_3   0.767710 0.633837 0.102197 -0.757187
Zn1   Zn    Zn3+2 0.349000 0.500030 0.500020 0.967229
Zn2   Zn    Zn3+2 0.651000 0.499970 0.499980 1.034232

loop_
_geom_bond_atom_site_label_1
_geom_bond_atom_site_label_2
_ccdc_geom_bond_type
C9    N2    D    
C41   C42   D    
C37   H46   S    
C19   C20   S    
C3    C6    S    
C1    O1    A    
C15   H52   S    
C30   H29   S    
C19   H4    S    
N2    Zn2   S    
H53   O19   S    
C26   C27   S    
C20   H7    S    
O13   Zn1   S    
C36   C37   S    
C28   H26   S    
C26   H19   S    
H48   O9    S    
C17   O9    S    
C38   C39   A    
C19   H5    S    
H50   O11   S    
C23   C40   A    
N1    Zn1   S    
C18   C19   S    
C6    O3    S    
C4    C13   S    
C2    C38   A    
C20   H8    S    
C22   H13   S    
C32   H35   S    
C3    O2    S    
C35   C36   S    
C24   H15   S    
C7    O4    S    
C12   C17   A    
C25   H18   S    
C11   O17   A    
O16   Zn2   S    
C10   O16   A    
O17   Zn1   S    
C2    C34   A    
C40   C42   S    
C4    O14   A    
C41   O11   S    
C13   C14   A    
C31   O7    S    
C2    C11   S    
C35   H40   S    
C22   H11   S    
C29   H27   S    
C5    H12   S    
C28   H25   S    
C39   C40   A    
C30   H31   S    
C35   H41   S    
C8    C9    S    
C31   H32   S    
C37   H44   S    
C25   C26   S    
C39   O19   S    
C18   O3    S    
C38   O8    S    
C8    N1    D    
C29   C30   S    
C18   H2    S    
C1    O12   A    
C28   O6    S    
C31   H33   S    
C31   C32   S    
C23   C34   A    
C11   O18   A    
C20   H6    S    
C10   O15   A    
C27   H21   S    
C21   O4    S    
C9    H34   S    
C4    O13   A    
C22   C24   S    
C12   H51   S    
C18   H3    S    
C21   H9    S    
C29   H28   S    
C28   C29   S    
C1    C7    S    
C34   O7    S    
H49   O10   S    
C25   O5    S    
C33   H37   S    
C3    C5    D    
O12   Zn2   S    
O14   Zn2   S    
C30   H30   S    
C33   H38   S    
C6    C7    D    
C36   H43   S    
C24   H14   S    
O18   Zn2   S    
C37   H47   S    
C32   C33   S    
C26   H20   S    
H23   N1    S    
C5    C10   S    
C35   O8    S    
O1    Zn1   S    
C16   C17   A    
C36   H42   S    
N2    O6    S    
C23   O10   S    
H54   O2    S    
C8    O5    S    
C27   H22   S    
C32   H36   S    
O15   Zn1   S    
C12   C13   A    
C24   H16   S    
C27   H24   S    
C14   C15   A    
C42   H45   S    
C25   H17   S    
C21   C22   S    
C33   H39   S    
C16   C41   S    
C21   H10   S    
C15   C16   A    
C14   H1    S    
