data_mof_unit_24525.cif
_audit_creation_date              2013-03-05T16:18:23-0500
_audit_creation_method            fapswitch 2.2
_symmetry_space_group_name_H-M    P1
_symmetry_Int_Tables_number       1
_space_group_crystal_system       triclinic
_cell_length_a                    10.600162
_cell_length_b                    9.911651
_cell_length_c                    10.544705
_cell_angle_alpha                 91.226054
_cell_angle_beta                  89.553798
_cell_angle_gamma                 89.873628
_cell_volume                      1107.59020438

loop_
_atom_site_label
_atom_site_type_symbol
_atom_site_description
_atom_site_fract_x
_atom_site_fract_y
_atom_site_fract_z
_atom_type_partial_charge
O1    O     O_R   0.314910 0.616040 0.499970 -0.593564
O2    O     O_R   0.314910 0.383960 0.499970 -0.604739
C1    C     C_R   0.258477 0.500432 0.505731 0.864518
O3    O     O_R   0.500080 0.616020 0.313900 -0.561239
O4    O     O_R   0.500080 0.383980 0.313900 -0.538856
C2    C     C_R   0.499807 0.499497 0.257394 0.972468
Zn1   Zn    Zn3+2 0.500150 0.654960 0.499940 1.020840
Zn2   Zn    Zn3+2 0.500150 0.345040 0.499940 1.029600
O5    O     O_R   0.685320 0.616040 0.499930 -0.622221
O6    O     O_R   0.685320 0.383960 0.499930 -0.616056
O7    O     O_R   0.500150 0.616060 0.686000 -0.592534
O8    O     O_R   0.500150 0.383940 0.686000 -0.614398
C3    C     C_R   0.741744 0.500328 0.505021 0.835276
C4    C     C_R   0.500356 0.501014 0.741612 0.921750
C5    C     C_3   0.395867 0.439975 0.037790 0.291566
C6    C     C_3   0.602300 0.437587 0.036762 0.282325
C7    C     C_3   0.498835 0.373383 0.953009 -0.143378
H1    H     H_    0.499160 0.267690 0.916132 0.222662
C8    C     C_3   0.500285 0.502222 0.875808 -0.126138
C9    C     C_3   0.397419 0.567747 0.957709 -0.163528
C10   C     C_3   0.603744 0.565457 0.956654 -0.215451
C11   C     C_3   0.500745 0.629871 0.042505 -0.098960
C12   C     C_3   0.499312 0.501139 0.121467 -0.160841
H2    H     H_    0.312932 0.620628 0.921799 0.213423
H3    H     H_    0.688685 0.617002 0.919136 0.183297
H4    H     H_    0.500158 0.735809 0.076687 0.266810
C13   C     C_3   0.071359 0.640511 0.558651 -0.350431
C14   C     C_3   0.071689 0.390639 0.598391 -0.342567
H5    H     H_    0.104940 0.723101 0.496949 0.221933
H6    H     H_    0.105620 0.289257 0.565881 0.225768
H7    H     H_    0.106157 0.661976 0.656353 0.206878
H8    H     H_    0.106405 0.408815 0.696658 0.208040
C15   C     C_3   0.927444 0.640375 0.559125 -0.391337
C16   C     C_3   0.927124 0.390620 0.598081 -0.389904
H9    H     H_    0.891362 0.661076 0.657105 0.176556
H10   H     H_    0.890596 0.409052 0.696240 0.183899
H11   H     H_    0.894284 0.723532 0.498307 0.224969
H12   H     H_    0.893686 0.289205 0.566189 0.223974
H13   H     H_    0.110688 0.551242 0.307836 0.218486
H14   H     H_    0.107706 0.373233 0.338213 0.234087
H15   H     H_    0.896064 0.556527 0.308978 0.223478
H16   H     H_    0.894220 0.378430 0.333931 0.256933
C17   C     C_3   0.073767 0.473727 0.373344 -0.363677
C18   C     C_3   0.121723 0.501452 0.509323 0.078753
C19   C     C_3   0.878485 0.501587 0.508904 0.113527
C20   C     C_3   0.929438 0.476011 0.372734 -0.325898
C21   C     C_3   0.394351 0.077342 0.419968 0.179617
C22   C     C_3   0.387023 0.919379 0.431190 0.169574
H17   H     H_    0.303628 0.118330 0.457371 0.147801
H18   H     H_    0.302090 0.901380 0.490670 0.149999
C23   C     C_3   0.625460 0.076021 0.459536 0.101733
C24   C     C_3   0.619340 0.916736 0.443858 0.104246
C25   C     C_3   0.477861 0.085383 0.628423 0.027242
C26   C     C_3   0.488190 0.922975 0.629882 0.037038
N1    N     N_3   0.499750 0.138610 0.497240 -0.185560
N2    N     N_3   0.499750 0.861390 0.497240 -0.184982
H19   H     H_    0.551683 0.126107 0.693135 0.146365
H20   H     H_    0.573857 0.896214 0.684463 0.127838
H21   H     H_    0.690615 0.093828 0.541083 0.051190
H22   H     H_    0.697746 0.876940 0.502301 0.087486
Br1   Br    Br    0.376563 0.136394 0.246823 -0.252545
Br2   Br    Br    0.321964 0.821837 0.282183 -0.383555
N3    N     N_R   0.692522 0.140831 0.355120 0.280817
O9    O     O_R   0.637876 0.166974 0.249196 -0.240367
O10   O     O_R   0.815280 0.141220 0.356857 -0.392764
N4    N     N_R   0.644384 0.867186 0.313734 0.284244
O11   O     O_R   0.581643 0.912164 0.218228 -0.298062
O12   O     O_R   0.741081 0.789058 0.290943 -0.383392
Br3   Br    Br    0.322616 0.160305 0.707821 -0.432978
Br4   Br    Br    0.349845 0.843987 0.730288 -0.434112
Br5   Br    Br    0.230576 0.370058 0.078653 -0.403980
Br6   Br    Br    0.763492 0.359308 0.078811 -0.388991

loop_
_geom_bond_atom_site_label_1
_geom_bond_atom_site_label_2
_geom_bond_distance
_ccdc_geom_bond_type
N4    O12   1.301067 A    
N3    O10   1.301546 A    
C6    C10   1.538105 S    
C13   H5    1.113821 S    
C15   C19   1.555101 S    
C8    C9    1.521452 S    
C6    Br6   1.933591 S    
C25   Br3   1.976623 S    
C21   H17   1.109471 S    
C25   C26   1.613624 S    
C13   C15   1.525504 S    
Zn1   O7    2.007554 S    
C8    C10   1.522177 S    
O4    C2    1.301988 A    
O7    C4    1.293363 A    
C22   N2    1.506767 S    
H16   C20   1.108727 S    
O5    C3    1.294643 A    
C24   H22   1.114924 S    
C7    C8    1.529067 S    
C13   C18   1.554686 S    
H14   C17   1.113255 S    
C9    H2    1.109892 S    
C6    C7    1.543337 S    
H15   C20   1.113297 S    
C23   N1    1.515302 S    
C5    C12   1.530864 S    
N4    O11   1.297540 A    
C14   C16   1.532442 S    
O1    Zn1   2.001942 S    
C10   C11   1.541416 S    
Zn1   N2    2.046866 S    
O3    Zn1   1.991231 S    
Zn2   N1    2.045666 S    
C25   N1    1.507453 S    
C5    C9    1.537142 S    
C26   N2    1.518011 S    
C1    C18   1.449814 S    
C13   H7    1.113374 S    
C23   C24   1.585407 S    
C14   H8    1.113478 S    
C23   N3    1.466404 S    
O3    C2    1.288215 A    
C25   H19   1.113029 S    
H13   C17   1.113745 S    
C19   C20   1.545785 S    
C14   C18   1.551990 S    
C15   H11   1.113117 S    
O1    C1    1.296144 A    
C17   C18   1.544345 S    
C22   Br2   1.958032 S    
C21   C22   1.574706 S    
C26   Br4   1.975045 S    
Zn2   O8    1.991364 S    
C7    H1    1.109597 S    
C16   C19   1.552122 S    
C9    C11   1.540442 S    
C6    C12   1.531030 S    
C23   H21   1.118413 S    
C24   N4    1.469453 S    
C21   N1    1.508948 S    
C26   H20   1.113470 S    
C5    C7    1.543562 S    
C10   H3    1.110569 S    
C16   H12   1.112698 S    
C4    C8    1.414846 S    
O2    Zn2   2.000269 S    
O8    C4    1.288921 A    
O6    C3    1.300702 A    
C21   Br1   1.939623 S    
O4    Zn2   2.007436 S    
C5    Br5   1.934474 S    
C14   H6    1.112830 S    
O2    C1    1.299087 A    
C3    C19   1.450447 S    
C2    C12   1.433806 S    
C22   H18   1.110159 S    
C15   H9    1.113671 S    
C16   H10   1.113547 S    
C17   C20   1.530085 S    
N3    O9    1.293065 A    
Zn1   O5    1.999543 S    
Zn2   O6    2.001213 S    
C11   H4    1.102836 S    
C11   C12   1.538471 S    
C24   N2    1.493300 S    
