data_mof_unit_27950.cif
_audit_creation_date              2013-03-05T15:41:01-0500
_audit_creation_method            fapswitch 2.2
_symmetry_space_group_name_H-M    P1
_symmetry_Int_Tables_number       1
_space_group_crystal_system       triclinic
_cell_length_a                    28.191262
_cell_length_b                    18.446606
_cell_length_c                    16.910597
_cell_angle_alpha                 89.928671
_cell_angle_beta                  61.218252
_cell_angle_gamma                 90.460487
_cell_volume                      7707.27152004

loop_
_atom_site_label
_atom_site_type_symbol
_atom_site_description
_atom_site_fract_x
_atom_site_fract_y
_atom_site_fract_z
_atom_type_partial_charge
O1    O     O_R   0.746490 0.236330 0.638080 -0.630760
O2    O     O_R   0.253510 0.763670 0.361920 -0.637758
O3    O     O_R   0.253510 0.236330 0.361920 -0.630938
O4    O     O_R   0.746490 0.763670 0.638080 -0.624276
O5    O     O_R   0.246490 0.736330 0.638080 -0.639070
O6    O     O_R   0.753510 0.263670 0.361920 -0.636688
O7    O     O_R   0.753510 0.736330 0.361920 -0.630169
O8    O     O_R   0.246490 0.263670 0.638080 -0.646282
O9    O     O_R   0.674170 0.186160 0.516270 -0.628372
O10   O     O_R   0.325830 0.813840 0.483730 -0.632299
O11   O     O_R   0.325830 0.186160 0.483730 -0.640820
O12   O     O_R   0.674170 0.813840 0.516270 -0.640745
O13   O     O_R   0.174170 0.686160 0.516270 -0.638053
O14   O     O_R   0.825830 0.313840 0.483730 -0.638357
O15   O     O_R   0.825830 0.686160 0.483730 -0.642684
O16   O     O_R   0.174170 0.313840 0.516270 -0.660557
O17   O     O_R   0.739960 0.127620 0.525000 -0.618852
O18   O     O_R   0.260040 0.872380 0.475000 -0.622723
O19   O     O_R   0.260040 0.127620 0.475000 -0.614924
O20   O     O_R   0.739960 0.872380 0.525000 -0.621648
O21   O     O_R   0.239960 0.627620 0.525000 -0.622183
O22   O     O_R   0.760040 0.372380 0.475000 -0.622573
O23   O     O_R   0.760040 0.627620 0.475000 -0.618896
O24   O     O_R   0.239960 0.372380 0.525000 -0.624046
O25   O     O_R   0.680700 0.294870 0.629350 -0.593183
O26   O     O_R   0.319300 0.705130 0.370650 -0.589736
O27   O     O_R   0.319300 0.294870 0.370650 -0.586744
O28   O     O_R   0.680700 0.705130 0.629350 -0.589679
O29   O     O_R   0.180700 0.794870 0.629350 -0.587999
O30   O     O_R   0.819300 0.205130 0.370650 -0.587415
O31   O     O_R   0.819300 0.794870 0.370650 -0.591947
O32   O     O_R   0.180700 0.205130 0.629350 -0.587341
C1    C     C_R   0.704863 0.274850 0.674449 0.886894
C2    C     C_R   0.299581 0.735422 0.322887 0.907362
C3    C     C_R   0.295874 0.274005 0.324835 0.893784
C4    C     C_R   0.700123 0.736105 0.677286 0.882877
C5    C     C_R   0.200338 0.764648 0.677408 0.911637
C6    C     C_R   0.799632 0.235181 0.322794 0.906488
C7    C     C_R   0.800109 0.763819 0.322309 0.890609
C8    C     C_R   0.199835 0.236413 0.677294 0.891602
C9    C     C_R   0.690882 0.129555 0.536849 0.886323
C10   C     C_R   0.308408 0.871021 0.467077 0.887026
C11   C     C_R   0.303434 0.127965 0.482735 0.906885
C12   C     C_R   0.691548 0.870612 0.534672 0.886330
C13   C     C_R   0.191506 0.629085 0.533037 0.885168
C14   C     C_R   0.808800 0.370695 0.463796 0.869735
C15   C     C_R   0.808626 0.629724 0.464205 0.885095
C16   C     C_R   0.194946 0.371952 0.521758 0.874280
Zn1   Zn    Zn3+2 0.792340 0.208750 0.507670 1.014176
Zn2   Zn    Zn3+2 0.207660 0.791250 0.492330 1.000276
Zn3   Zn    Zn3+2 0.207660 0.208750 0.492330 1.012668
Zn4   Zn    Zn3+2 0.792340 0.791250 0.507670 0.999933
Zn5   Zn    Zn3+2 0.292340 0.708750 0.507670 1.017188
Zn6   Zn    Zn3+2 0.707660 0.291250 0.492330 1.024279
Zn7   Zn    Zn3+2 0.707660 0.708750 0.492330 1.019705
Zn8   Zn    Zn3+2 0.292340 0.291250 0.507670 1.012895
H1    H     H_    0.054440 0.254938 0.457698 0.186267
H2    H     H_    0.965433 0.750101 0.471851 0.153351
H3    H     H_    0.979347 0.254676 0.423668 0.157801
H4    H     H_    0.031009 0.747549 0.528162 0.154092
H5    H     H_    0.538597 0.751642 0.516658 0.166475
H6    H     H_    0.417881 0.235910 0.614297 0.166889
H7    H     H_    0.472610 0.755463 0.461357 0.167441
H8    H     H_    0.500922 0.239002 0.627397 0.158785
C17   C     C_R   0.521327 0.126932 0.588762 0.105076
C18   C     C_R   0.458631 0.870877 0.482758 0.085717
C19   C     C_R   0.427319 0.124355 0.569249 0.096144
C20   C     C_R   0.537050 0.867402 0.539497 0.088983
C21   C     C_R   0.041147 0.631024 0.516806 0.094873
C22   C     C_R   0.969870 0.371233 0.433800 0.091255
C23   C     C_R   0.963462 0.633509 0.457837 0.101100
C24   C     C_R   0.057806 0.371567 0.466837 0.073342
C25   C     C_R   0.489332 0.189097 0.607224 -0.185458
C26   C     C_R   0.483322 0.805243 0.483177 -0.148180
C27   C     C_R   0.442008 0.187339 0.599475 -0.187914
C28   C     C_R   0.520682 0.803014 0.515085 -0.146852
C29   C     C_R   0.018738 0.697031 0.510387 -0.186953
C30   C     C_R   0.994170 0.305819 0.435138 -0.057206
C31   C     C_R   0.981616 0.698527 0.477789 -0.187976
C32   C     C_R   0.037394 0.306022 0.453075 -0.055704
C33   C     C_R   0.458854 0.062087 0.551170 0.036024
C34   C     C_R   0.513931 0.933352 0.536282 0.033884
C35   C     C_R   0.504425 0.062576 0.564841 0.032936
C36   C     C_R   0.472248 0.934380 0.513319 0.032465
C37   C     C_R   0.984403 0.567394 0.466861 0.034010
C38   C     C_R   0.031815 0.436412 0.471377 0.044198
C39   C     C_R   0.025303 0.566533 0.491890 0.032391
C40   C     C_R   0.988427 0.436557 0.452673 0.036620
C41   C     C_R   0.964646 0.502135 0.450330 -0.039579
C42   C     C_R   0.049874 0.501061 0.492677 -0.035222
C43   C     C_R   0.444436 0.998822 0.520823 -0.042280
C44   C     C_R   0.532234 0.998124 0.556745 -0.044107
C45   C     C_R   0.896094 0.435780 0.429863 0.049132
C46   C     C_R   0.110332 0.565231 0.535926 0.059560
C47   C     C_R   0.121672 0.435508 0.502969 0.055286
C48   C     C_R   0.895239 0.568204 0.434742 0.054212
C49   C     C_R   0.387577 0.935820 0.469073 0.059751
C50   C     C_R   0.602172 0.064858 0.573465 0.054945
C51   C     C_R   0.604637 0.932310 0.564102 0.052743
C52   C     C_R   0.370882 0.062772 0.514508 0.050616
C53   C     C_R   0.843382 0.435746 0.438686 -0.110778
C54   C     C_R   0.158601 0.564410 0.544339 -0.109043
C55   C     C_R   0.165408 0.436287 0.523644 -0.097023
C56   C     C_R   0.843176 0.566290 0.440100 -0.117474
C57   C     C_R   0.340337 0.936169 0.458131 -0.110457
C58   C     C_R   0.655916 0.064775 0.561637 -0.118476
C59   C     C_R   0.656918 0.934206 0.558005 -0.115538
C60   C     C_R   0.330718 0.063131 0.485730 -0.106730
C61   C     C_R   0.819320 0.500743 0.438544 -0.281010
C62   C     C_R   0.182133 0.499813 0.545388 -0.301959
C63   C     C_R   0.316393 0.000499 0.458093 -0.294395
C64   C     C_R   0.680579 0.999733 0.559608 -0.283097
H9    H     H_    0.779065 0.500235 0.445365 0.206877
H10   H     H_    0.216681 0.499680 0.557272 0.202457
H11   H     H_    0.283520 0.000878 0.441926 0.201606
H12   H     H_    0.721096 0.000203 0.551673 0.203990
C65   C     C_R   0.919079 0.502111 0.436847 0.071588
C66   C     C_R   0.093429 0.500382 0.512092 0.066604
C67   C     C_R   0.401347 0.999396 0.500514 0.067046
C68   C     C_R   0.579418 0.998439 0.565911 0.072286
C69   C     C_R   0.104869 0.372933 0.473209 -0.222505
C70   C     C_R   0.923372 0.633286 0.432047 -0.233510
C71   C     C_R   0.925965 0.371875 0.417576 -0.200838
C72   C     C_R   0.079747 0.628718 0.546158 -0.219865
C73   C     C_R   0.577193 0.867156 0.564825 -0.221145
C74   C     C_R   0.381707 0.122670 0.556835 -0.229474
C75   C     C_R   0.419890 0.873611 0.453964 -0.208489
C76   C     C_R   0.570171 0.128048 0.592358 -0.234055
H13   H     H_    0.127923 0.324474 0.448452 0.189134
H14   H     H_    0.914735 0.684679 0.411558 0.176467
H15   H     H_    0.915904 0.322029 0.395366 0.185801
H16   H     H_    0.084749 0.677159 0.577189 0.186078
H17   H     H_    0.586067 0.815254 0.583580 0.183740
H18   H     H_    0.354993 0.168323 0.582725 0.184742
H19   H     H_    0.416003 0.826661 0.419343 0.186282
H20   H     H_    0.581877 0.177915 0.612067 0.172941
C77   C     C_R   0.731587 0.293688 0.944866 0.008936
C78   C     C_R   0.272594 0.721846 0.054537 0.007827
C79   C     C_R   0.273105 0.286945 0.050111 0.003773
C80   C     C_R   0.727959 0.722476 0.944434 0.007131
C81   C     C_R   0.213453 0.752190 0.961897 0.007652
C82   C     C_R   0.792036 0.261103 0.034566 0.009868
C83   C     C_R   0.786932 0.751668 0.037662 0.006794
C84   C     C_R   0.212231 0.256108 0.960672 0.008608
C85   C     C_R   0.786108 0.271487 0.894176 -0.067226
C86   C     C_R   0.234225 0.778165 0.085235 -0.077866
C87   C     C_R   0.218996 0.262282 0.100047 -0.068720
C88   C     C_R   0.767131 0.778678 0.913432 -0.078530
C89   C     C_R   0.256021 0.701346 0.925508 -0.071886
C90   C     C_R   0.743306 0.300497 0.079650 -0.074670
C91   C     C_R   0.743476 0.701246 0.074367 -0.073149
C92   C     C_R   0.261427 0.295839 0.915433 -0.077266
C93   C     C_R   0.813324 0.245692 0.941665 0.088906
C94   C     C_R   0.199621 0.785167 0.045846 0.090304
C95   C     C_R   0.192011 0.236999 0.052380 0.081825
C96   C     C_R   0.801634 0.784972 0.953124 0.092431
C97   C     C_R   0.280225 0.679615 0.979277 0.068686
C98   C     C_R   0.709637 0.306893 0.038317 0.086323
C99   C     C_R   0.719580 0.679735 0.020042 0.072219
C100  C     C_R   0.295301 0.301299 0.956668 0.088787
C101  C     C_R   0.645073 0.326943 0.951376 -0.005837
C102  C     C_R   0.339043 0.647993 0.072805 0.004442
C103  C     C_R   0.359017 0.321404 0.045081 -0.003063
C104  C     C_R   0.661150 0.648725 0.925915 -0.016716
C105  C     C_R   0.137913 0.814644 0.956453 0.018519
C106  C     C_R   0.865150 0.191881 0.041042 0.016189
C107  C     C_R   0.863403 0.812602 0.042668 0.000023
C108  C     C_R   0.136919 0.189768 0.956379 -0.001858
C109  C     C_R   0.615346 0.342965 0.904481 -0.174066
C110  C     C_R   0.374855 0.640600 0.110103 -0.233150
C111  C     C_R   0.387867 0.338793 0.092956 -0.176602
C112  C     C_R   0.624408 0.642756 0.890374 -0.186016
C113  C     C_R   0.112200 0.838596 0.905407 -0.207279
C114  C     C_R   0.888682 0.163148 0.093785 -0.205291
C115  C     C_R   0.889500 0.835711 0.093278 -0.185729
C116  C     C_R   0.111151 0.164400 0.905888 -0.185044
C117  C     C_R   0.631847 0.314159 0.820325 0.340669
C118  C     C_R   0.367032 0.681290 0.184475 0.335027
C119  C     C_R   0.370617 0.310958 0.178099 0.336595
C120  C     C_R   0.630058 0.687009 0.819754 0.364824
C121  C     C_R   0.128713 0.811767 0.819417 0.318776
C122  C     C_R   0.871173 0.187669 0.181060 0.322888
C123  C     C_R   0.875013 0.805077 0.177010 0.344827
C124  C     C_R   0.125258 0.194717 0.822190 0.345263
C125  C     C_R   0.685841 0.293799 0.768757 -0.202811
C126  C     C_R   0.322595 0.725542 0.225056 -0.156020
C127  C     C_R   0.316320 0.290919 0.229383 -0.208109
C128  C     C_R   0.676543 0.728771 0.775801 -0.241660
C129  C     C_R   0.174969 0.769874 0.777003 -0.169218
C130  C     C_R   0.825309 0.230260 0.223477 -0.171286
C131  C     C_R   0.826362 0.766506 0.222065 -0.229567
C132  C     C_R   0.173673 0.233745 0.776819 -0.226762
C133  C     C_R   0.721258 0.293712 0.808159 -0.045664
C134  C     C_R   0.294774 0.746414 0.176570 -0.053142
C135  C     C_R   0.281942 0.288795 0.188245 -0.037932
C136  C     C_R   0.705806 0.748322 0.822656 -0.022722
C137  C     C_R   0.200168 0.742957 0.827927 -0.046597
C138  C     C_R   0.800944 0.259419 0.172695 -0.052389
C139  C     C_R   0.799754 0.741357 0.172184 -0.025687
C140  C     C_R   0.200692 0.259576 0.825280 -0.034561
C141  C     C_R   0.699142 0.303839 0.901726 0.068046
C142  C     C_R   0.302540 0.706088 0.100629 0.076671
C143  C     C_R   0.304919 0.297874 0.094166 0.065665
C144  C     C_R   0.697881 0.707273 0.898418 0.077596
C145  C     C_R   0.183977 0.770074 0.915137 0.068621
C146  C     C_R   0.819440 0.237369 0.082762 0.072779
C147  C     C_R   0.816612 0.768528 0.084420 0.071354
C148  C     C_R   0.183224 0.235199 0.914070 0.074398
C149  C     C_R   0.622461 0.331818 0.045848 -0.155808
C150  C     C_R   0.337320 0.598735 0.010556 -0.149694
C151  C     C_R   0.382330 0.326501 0.950384 -0.153700
C152  C     C_R   0.662934 0.598331 0.987203 -0.149733
C153  C     C_R   0.118046 0.830412 0.048925 -0.151072
C154  C     C_R   0.885997 0.178618 0.947744 -0.152178
C155  C     C_R   0.883955 0.828470 0.949898 -0.147086
C156  C     C_R   0.117641 0.172800 0.048318 -0.155461
C157  C     C_R   0.653953 0.321843 0.088223 -0.123401
C158  C     C_R   0.308535 0.614251 0.965021 -0.101564
C159  C     C_R   0.351154 0.316756 0.907214 -0.126838
C160  C     C_R   0.691140 0.613919 0.033771 -0.094950
C161  C     C_R   0.149014 0.818409 0.091374 -0.130701
C162  C     C_R   0.860004 0.202942 0.900419 -0.109234
C163  C     C_R   0.852947 0.817488 0.907298 -0.124113
C164  C     C_R   0.146073 0.192049 0.092813 -0.101486
C165  C     C_R   0.778104 0.287524 0.757522 -0.202465
C166  C     C_R   0.261059 0.807259 0.199760 -0.201771
C167  C     C_R   0.225309 0.280449 0.237465 -0.217470
C168  C     C_R   0.740920 0.808631 0.798314 -0.201357
C169  C     C_R   0.240811 0.689709 0.795264 -0.212927
C170  C     C_R   0.760977 0.313646 0.206457 -0.203414
C171  C     C_R   0.757412 0.689393 0.205999 -0.212012
C172  C     C_R   0.242372 0.312655 0.790450 -0.209791
C173  C     C_R   0.810602 0.277086 0.798622 0.283238
C174  C     C_R   0.232033 0.824666 0.154217 0.279337
C175  C     C_R   0.194311 0.265464 0.195392 0.316045
C176  C     C_R   0.770372 0.825389 0.843602 0.277366
C177  C     C_R   0.271072 0.672877 0.838522 0.276599
C178  C     C_R   0.731382 0.333116 0.162930 0.267244
C179  C     C_R   0.727279 0.672902 0.162114 0.278405
C180  C     C_R   0.273390 0.329813 0.832554 0.257447
H21   H     H_    0.579630 0.340091 0.088862 0.181532
H22   H     H_    0.356641 0.546533 0.997915 0.183045
H23   H     H_    0.425300 0.335743 0.908215 0.174864
H24   H     H_    0.643571 0.545689 0.999105 0.181826
H25   H     H_    0.077712 0.849657 0.092022 0.181421
H26   H     H_    0.923795 0.151797 0.907227 0.189896
H27   H     H_    0.924900 0.846931 0.906950 0.179821
H28   H     H_    0.079205 0.147258 0.090813 0.192165
H29   H     H_    0.633615 0.323533 0.161105 0.176532
H30   H     H_    0.307402 0.573042 0.920763 0.215420
H31   H     H_    0.371756 0.319180 0.834323 0.168939
H32   H     H_    0.691678 0.572649 0.078535 0.216966
H33   H     H_    0.131593 0.832384 0.161928 0.169862
H34   H     H_    0.876478 0.185567 0.831284 0.185591
H35   H     H_    0.870823 0.831531 0.836527 0.169046
H36   H     H_    0.131707 0.168884 0.158954 0.207476
H37   H     H_    0.798843 0.296081 0.685454 0.210793
H38   H     H_    0.260137 0.845185 0.249207 0.200717
H39   H     H_    0.203183 0.288740 0.309237 0.179000
H40   H     H_    0.742604 0.846655 0.748235 0.199011
H41   H     H_    0.250201 0.659197 0.735401 0.210235
H42   H     H_    0.754546 0.345916 0.263844 0.207146
H43   H     H_    0.746835 0.659300 0.266896 0.209857
H44   H     H_    0.249056 0.345984 0.733453 0.211353
O33   O     O_R   0.062020 0.072840 0.007170 -0.649972
O34   O     O_R   0.937980 0.927160 0.992830 -0.644268
O35   O     O_R   0.937980 0.072840 0.992830 -0.638112
O36   O     O_R   0.062020 0.927160 0.007170 -0.636846
O37   O     O_R   0.562020 0.572840 0.007170 -0.631521
O38   O     O_R   0.437980 0.427160 0.992830 -0.660133
O39   O     O_R   0.437980 0.572840 0.992830 -0.617660
O40   O     O_R   0.562020 0.427160 0.007170 -0.662509
O41   O     O_R   0.947860 0.073950 0.109290 -0.586637
O42   O     O_R   0.052140 0.926050 0.890710 -0.594837
O43   O     O_R   0.052140 0.073950 0.890710 -0.551201
O44   O     O_R   0.947860 0.926050 0.109290 -0.553883
O45   O     O_R   0.447860 0.573950 0.109290 -0.591642
O46   O     O_R   0.552140 0.426050 0.890710 -0.564805
O47   O     O_R   0.552140 0.573950 0.890710 -0.542431
O48   O     O_R   0.447860 0.426050 0.109290 -0.565511
C181  C     C_R   0.072136 0.103307 0.936301 0.955980
C182  C     C_R   0.928411 0.896407 0.063210 0.957905
C183  C     C_R   0.927964 0.103139 0.063391 0.931185
C184  C     C_R   0.072381 0.897440 0.936168 0.929498
C185  C     C_R   0.578376 0.593817 0.929599 0.977065
C186  C     C_R   0.429544 0.395427 0.061770 0.922954
C187  C     C_R   0.421336 0.593055 0.070607 0.957906
C188  C     C_R   0.572146 0.397087 0.936728 0.920725
Zn9   Zn    Zn3+2 0.505960 0.500000 0.080520 1.033898
Zn10  Zn    Zn3+2 0.494040 0.500000 0.919480 1.058033
Zn11  Zn    Zn3+2 0.005960 1.000000 0.080520 1.011386
Zn12  Zn    Zn3+2 0.994040 0.000000 0.919480 1.012032
O49   O     O_3   0.594846 0.309339 0.788997 -0.737368
H45   H     H_    0.598678 0.260697 0.761725 0.328677
O50   O     O_3   0.402069 0.677365 0.219629 -0.716039
H46   H     H_    0.394588 0.629980 0.251508 0.353423
O51   O     O_3   0.406972 0.307840 0.210832 -0.732382
H47   H     H_    0.401819 0.260257 0.241385 0.341752
O52   O     O_3   0.591153 0.686167 0.792057 -0.719087
H48   H     H_    0.592989 0.732875 0.761502 0.333062
O53   O     O_3   0.099384 0.827118 0.775819 -0.732528
H49   H     H_    0.113579 0.874431 0.744959 0.353561
O54   O     O_3   0.899163 0.169210 0.226008 -0.724020
H50   H     H_    0.883362 0.122187 0.256360 0.351854
O55   O     O_3   0.908400 0.815605 0.214839 -0.738358
H51   H     H_    0.907652 0.770497 0.247439 0.329030
O56   O     O_3   0.091834 0.183425 0.784586 -0.728600
H52   H     H_    0.092124 0.228430 0.752179 0.344608
N1    N     N_R   0.868339 0.282957 0.742906 0.189117
O57   O     O_R   0.896650 0.322640 0.768864 -0.382754
O58   O     O_R   0.891518 0.258155 0.660866 -0.410456
N2    N     N_R   0.206233 0.894117 0.171678 0.193491
O59   O     O_R   0.213907 0.936394 0.104773 -0.371266
O60   O     O_R   0.182166 0.919787 0.253288 -0.397775
N3    N     N_R   0.137094 0.259884 0.251659 0.165787
O61   O     O_R   0.104811 0.302624 0.239039 -0.408229
O62   O     O_R   0.117250 0.208127 0.311430 -0.450177
N4    N     N_R   0.797691 0.894482 0.825046 0.192841
O63   O     O_R   0.791053 0.936533 0.891291 -0.372521
O64   O     O_R   0.822058 0.920248 0.743121 -0.403023
N5    N     N_R   0.320897 0.634775 0.786910 0.198514
O65   O     O_R   0.365944 0.662006 0.778079 -0.366641
O66   O     O_R   0.322945 0.580637 0.736111 -0.333364
N6    N     N_R   0.695116 0.393317 0.198101 0.203579
O67   O     O_R   0.696277 0.444406 0.144069 -0.388003
O68   O     O_R   0.666634 0.402583 0.284832 -0.362214
N7    N     N_R   0.676656 0.635074 0.213424 0.198990
O69   O     O_R   0.632474 0.662007 0.219580 -0.370553
O70   O     O_R   0.672970 0.581577 0.266404 -0.330130
N8    N     N_R   0.311300 0.389190 0.796441 0.203324
O71   O     O_R   0.311480 0.439979 0.849633 -0.381116
O72   O     O_R   0.339902 0.398324 0.709553 -0.376933

loop_
_geom_bond_atom_site_label_1
_geom_bond_atom_site_label_2
_geom_bond_distance
_ccdc_geom_bond_type
O4    C4    1.249273 A    
C155  H27   1.077795 S    
O5    C5    1.259587 A    
C138  C146  1.411235 A    
C59   C64   1.382488 A    
C23   C70   1.393617 A    
C180  N8    1.437319 S    
O31   Zn4   2.062522 S    
O8    Zn8   2.008656 S    
C86   C174  1.426296 A    
O33   C181  1.224772 A    
C113  C184  1.472317 S    
O53   H49   0.993166 S    
C114  C183  1.479506 S    
C103  C143  1.404548 A    
C157  H29   1.081038 S    
C77   C98   1.414684 A    
C110  C118  1.389855 A    
C96   C163  1.399395 A    
C80   C99   1.419798 A    
C38   C40   1.403121 A    
C81   C94   1.417867 A    
C100  C159  1.408574 A    
C135  C143  1.408515 A    
C133  C141  1.407088 A    
O30   C6    1.305978 A    
C2    C126  1.469754 S    
C139  C171  1.411959 A    
C104  C144  1.404295 A    
O20   C12   1.294134 A    
N6    O67   1.301023 A    
C6    C130  1.477738 S    
C89   C177  1.422716 A    
C108  C148  1.414162 A    
C36   C43   1.401251 A    
O7    Zn7   2.008656 S    
C136  C144  1.408527 A    
C87   C95   1.425408 A    
C49   C57   1.430132 A    
O2    C2    1.257107 A    
C83   C91   1.413926 A    
C140  C148  1.407810 A    
C158  H30   1.078461 S    
C51   C59   1.427209 A    
O6    Zn6   2.015298 S    
C29   C31   1.398506 A    
C106  C114  1.445959 A    
N8    O71   1.301271 A    
C122  C130  1.388589 A    
C150  H22   1.080032 S    
C38   C42   1.406769 A    
C45   C53   1.420222 A    
C102  C150  1.409630 A    
O27   C3    1.293784 A    
C4    C128  1.472120 S    
C156  C164  1.382570 A    
C7    C131  1.488262 S    
O54   H50   0.993386 S    
C8    C132  1.477451 S    
C50   C68   1.412654 A    
N8    O72   1.301473 A    
H2    C31   1.083583 S    
O30   Zn1   2.063104 S    
C34   C36   1.404193 A    
C160  H32   1.078246 S    
H6    C27   1.083706 S    
C156  H28   1.074091 S    
C149  H21   1.080679 S    
O47   C185  1.256383 A    
C91   C179  1.423181 A    
C136  C168  1.405632 A    
C164  H36   1.075852 S    
C115  C123  1.388698 A    
C129  C137  1.444446 A    
C116  C124  1.388024 A    
C15   C56   1.456461 S    
C45   C71   1.410679 A    
C106  C146  1.416247 A    
O23   Zn7   2.031263 S    
H7    C26   1.083630 S    
O24   Zn8   2.031263 S    
O9    C9    1.264223 A    
O48   Zn9   1.993838 S    
C50   C58   1.429591 A    
C60   C63   1.375468 A    
C135  C167  1.407686 A    
C149  C157  1.396578 A    
C133  C165  1.412902 A    
C93   C162  1.405091 A    
O12   C12   1.254174 A    
O13   C13   1.252474 A    
C78   C142  1.428904 A    
C134  C166  1.405787 A    
O44   C182  1.270620 A    
C104  C152  1.410457 A    
C97   C158  1.407052 A    
C11   C60   1.441054 S    
C82   C146  1.436546 A    
C13   C54   1.459875 S    
C118  C126  1.377185 A    
C40   C41   1.397451 A    
C46   C54   1.434901 A    
N5    O65   1.301638 A    
C118  O50   1.378665 S    
O33   Zn11  1.978805 S    
O7    C7    1.254065 A    
O34   Zn12  1.978806 S    
O9    Zn6   2.100912 S    
O8    C8    1.253455 A    
O42   Zn12  2.012591 S    
O11   Zn8   2.115793 S    
C109  C188  1.469247 S    
C21   C29   1.404108 A    
C110  C187  1.452418 S    
O16   Zn3   2.115793 S    
C107  C155  1.415395 A    
C152  H24   1.080125 S    
C111  C186  1.460199 S    
C176  N4    1.437544 S    
C114  C122  1.389314 A    
C23   C31   1.404134 A    
C34   C44   1.405932 A    
O22   Zn6   2.013157 S    
C26   C28   1.396438 A    
C102  C142  1.407677 A    
C55   C62   1.374708 A    
C52   C74   1.425897 A    
O35   Zn12  1.998057 S    
O43   Zn12  1.993837 S    
C80   C144  1.426617 A    
C30   C32   1.390222 A    
O45   Zn9   2.012590 S    
C18   C26   1.403097 A    
N2    O59   1.301725 A    
C72   H16   1.078929 S    
N4    O64   1.301473 A    
O2    Zn2   2.015298 S    
H8    C25   1.083447 S    
O6    C6    1.260146 A    
C154  C162  1.395656 A    
C62   H10   1.085121 S    
C101  C109  1.435932 A    
O34   C182  1.223835 A    
C132  C140  1.440499 A    
H1    C32   1.080871 S    
C111  C119  1.375914 A    
C45   C65   1.411480 A    
H3    C30   1.083717 S    
C109  C117  1.375648 A    
C33   C35   1.410597 A    
C47   C55   1.434415 A    
O21   C13   1.306499 A    
N1    O58   1.301699 A    
H5    C28   1.083668 S    
C14   C53   1.466960 S    
C161  H33   1.081536 S    
C52   C60   1.431669 A    
O23   C15   1.292002 A    
O24   C16   1.296244 A    
C48   C65   1.405528 A    
C119  O51   1.381038 S    
O17   Zn1   2.013157 S    
N7    O70   1.301460 A    
C16   C55   1.446803 S    
C91   C99   1.431003 A    
C49   C67   1.414823 A    
O37   Zn9   1.978805 S    
O49   H45   0.992018 S    
O40   Zn9   1.998059 S    
O3    C3    1.251786 A    
C52   C67   1.407631 A    
C153  H25   1.076680 S    
C74   H18   1.077806 S    
C105  C153  1.415631 A    
C41   C65   1.408596 A    
C19   C33   1.399543 A    
C43   C67   1.412646 A    
C104  C112  1.429687 A    
C19   C27   1.407184 A    
C64   H12   1.083978 S    
C107  C115  1.434456 A    
C12   C59   1.460688 S    
C108  C116  1.438245 A    
C171  H43   1.076003 S    
C172  H44   1.079012 S    
C179  N7    1.437554 S    
C126  C134  1.434908 A    
C168  H40   1.081991 S    
C169  H41   1.075821 S    
C20   C28   1.403535 A    
C151  C159  1.397622 A    
C166  C174  1.405811 A    
C153  C161  1.390199 A    
C108  C156  1.411713 A    
C44   C68   1.411318 A    
C24   C32   1.402016 A    
C46   C66   1.413326 A    
C47   C69   1.425574 A    
C77   C141  1.431381 A    
C78   C86   1.413316 A    
C120  O52   1.384535 S    
O43   C181  1.272832 A    
O48   C186  1.275728 A    
O12   Zn7   2.115793 S    
O13   Zn2   2.100912 S    
N6    O68   1.301493 A    
C173  N1    1.438376 S    
C20   C73   1.389596 A    
O25   C1    1.298322 A    
C170  H42   1.078305 S    
C117  O49   1.381096 S    
C85   C173  1.422150 A    
C24   C69   1.381909 A    
O10   C10   1.254550 A    
C25   C27   1.402054 A    
C137  C145  1.410953 A    
C166  H38   1.081738 S    
O14   C14   1.267724 A    
O45   C187  1.259338 A    
O46   C188  1.278888 A    
C42   C66   1.415648 A    
C77   C85   1.416740 A    
C75   H19   1.079994 S    
C76   H20   1.080723 S    
C119  C127  1.394137 A    
C53   C61   1.382869 A    
C134  C142  1.408813 A    
C117  C125  1.396510 A    
O10   Zn5   2.100912 S    
C120  C128  1.381174 A    
O44   Zn11  1.993838 S    
C121  C129  1.388896 A    
C83   C147  1.433732 A    
C124  C132  1.394374 A    
C177  N5    1.437235 S    
C115  C182  1.468749 S    
C103  C111  1.431905 A    
C21   C39   1.402212 A    
C112  C120  1.389336 A    
C50   C76   1.419494 A    
C57   C63   1.370092 A    
C113  C121  1.389166 A    
N3    O61   1.301382 A    
C159  H31   1.081091 S    
C123  O55   1.382033 S    
O16   C16   1.242292 A    
O19   C11   1.291395 A    
O46   Zn10  2.012591 S    
C9    C58   1.468770 S    
O1    C1    1.256891 A    
O56   H52   0.991984 S    
C17   C76   1.407270 A    
C151  H23   1.081470 S    
O25   Zn6   2.063104 S    
C19   C74   1.399228 A    
O50   H46   0.992736 S    
C37   C41   1.406257 A    
O27   Zn8   2.062522 S    
C21   C72   1.397541 A    
C101  C149  1.409725 A    
C155  C163  1.388530 A    
C122  O54   1.377517 S    
O52   H48   0.992199 S    
O32   Zn3   2.062522 S    
C102  C110  1.432054 A    
O35   C183  1.222976 A    
O47   Zn10  1.993837 S    
O15   Zn4   2.115793 S    
O36   Zn11  1.998059 S    
C174  N2    1.437573 S    
O22   C14   1.294723 A    
C99   C160  1.405402 A    
O4    Zn4   2.008656 S    
C79   C100  1.415189 A    
C137  C169  1.411643 A    
C54   C62   1.372698 A    
C175  N3    1.427212 S    
O18   Zn2   2.013157 S    
O5    Zn5   2.015298 S    
O3    Zn3   2.008656 S    
C90   C98   1.429639 A    
C71   H15   1.079911 S    
C69   H13   1.070058 S    
O38   Zn10  1.978806 S    
C24   C38   1.390607 A    
O39   C187  1.224281 A    
C152  C160  1.391027 A    
C48   C70   1.422025 A    
C165  C173  1.405390 A    
C82   C90   1.416113 A    
C94   C161  1.400605 A    
O18   C10   1.304793 A    
C20   C34   1.398004 A    
N7    O69   1.301634 A    
C79   C143  1.428619 A    
C112  C185  1.445603 S    
C98   C157  1.408675 A    
N2    O60   1.301649 A    
C10   C57   1.458904 S    
C33   C43   1.408990 A    
O41   Zn11  2.012590 S    
O28   C4    1.306517 A    
C3    C127  1.461160 S    
O55   H51   0.992025 S    
C39   C42   1.400330 A    
O29   C5    1.309519 A    
C1    C125  1.460832 S    
C88   C96   1.427309 A    
C89   C97   1.433157 A    
C84   C92   1.416494 A    
C84   C148  1.433422 A    
C87   C175  1.416965 A    
C5    C129  1.482895 S    
C92   C100  1.431160 A    
C22   C30   1.397836 A    
O51   H47   0.991468 S    
O15   C15   1.254979 A    
C49   C75   1.416108 A    
C22   C40   1.406827 A    
C80   C88   1.411366 A    
C81   C89   1.416636 A    
C51   C73   1.420968 A    
C58   C64   1.383727 A    
N1    O57   1.301661 A    
C35   C44   1.399621 A    
C79   C87   1.412227 A    
O36   C184  1.222300 A    
C101  C141  1.410300 A    
C131  C139  1.447099 A    
C56   C61   1.385285 A    
C17   C35   1.406299 A    
O14   Zn1   2.100912 S    
C105  C113  1.439636 A    
C17   C25   1.404413 A    
C18   C75   1.394769 A    
C171  C179  1.403004 A    
C51   C68   1.409804 A    
C23   C37   1.398958 A    
C22   C71   1.390939 A    
O26   C2    1.307623 A    
C90   C178  1.417006 A    
C86   C94   1.428121 A    
O11   C11   1.245254 A    
O39   Zn10  1.998057 S    
C130  C138  1.439239 A    
C61   H9    1.083981 S    
C85   C93   1.434696 A    
C95   C164  1.400310 A    
O28   Zn7   2.062522 S    
O38   C186  1.219599 A    
C81   C145  1.435672 A    
O29   Zn2   2.063104 S    
C37   C39   1.406799 A    
C47   C66   1.409727 A    
H4    C29   1.083562 S    
N3    O62   1.300245 A    
O41   C183  1.276713 A    
O42   C184  1.273294 A    
C103  C151  1.410805 A    
N5    O66   1.301504 A    
C88   C176  1.427430 A    
C124  O56   1.381983 S    
C107  C147  1.408548 A    
C116  C181  1.475865 S    
N4    O63   1.301645 A    
C163  H35   1.081540 S    
C92   C180  1.417756 A    
C139  C147  1.412397 A    
O37   C185  1.223314 A    
C162  H34   1.079699 S    
C121  O53   1.377546 S    
C154  H26   1.075143 S    
C106  C154  1.415934 A    
C178  N6    1.437557 S    
C170  C178  1.400854 A    
C105  C145  1.412564 A    
O26   Zn5   2.063104 S    
C73   H17   1.076723 S    
C127  C135  1.439950 A    
C125  C133  1.442741 A    
C123  C131  1.394483 A    
C138  C170  1.412855 A    
C167  H39   1.076352 S    
O40   C188  1.218590 A    
C167  C175  1.393405 A    
C150  C158  1.392212 A    
C84   C95   1.413656 A    
C48   C56   1.426451 A    
C165  H37   1.078848 S    
O20   Zn4   2.031263 S    
O21   Zn5   2.013157 S    
C78   C97   1.419317 A    
C83   C96   1.419877 A    
O1    Zn1   2.015298 S    
O31   C7    1.308098 A    
O32   C8    1.303322 A    
C82   C93   1.415984 A    
O17   C9    1.299819 A    
C168  C176  1.407204 A    
C18   C36   1.404276 A    
O19   Zn3   2.031263 S    
C140  C172  1.414173 A    
C128  C136  1.436606 A    
C172  C180  1.402659 A    
C63   H11   1.085213 S    
C169  C177  1.401414 A    
C70   H14   1.078056 S    
C46   C72   1.420556 A    
