data_mof_unit_8560.cif
_audit_creation_date              2012-12-11T14:15:37-0500
_audit_creation_method            fapswitch 2.2
_symmetry_space_group_name_H-M    P1
_symmetry_Int_Tables_number       1
_space_group_crystal_system       triclinic
_cell_length_a                    11.149488
_cell_length_b                    12.715137
_cell_length_c                    23.507936
_cell_angle_alpha                 90.725039
_cell_angle_beta                  97.058236
_cell_angle_gamma                 68.579995
_cell_volume                      3077.07953631

loop_
_atom_site_label
_atom_site_type_symbol
_atom_type_description
_atom_site_fract_x
_atom_site_fract_y
_atom_site_fract_z
_atom_type_partial_charge
C1    C     C_R   0.149432 0.616695 0.428875 0.541484
C2    C     C_R   0.681708 0.550942 0.308695 -0.138467
C3    C     C_R   0.696217 0.737540 0.318418 -0.030337
C4    C     C_R   0.700445 0.744116 0.258440 0.015040
C5    C     C_R   0.694659 0.650981 0.225542 0.019999
C6    C     C_R   0.691795 0.654113 0.166714 -0.123066
C7    C     C_R   0.691745 0.843663 0.168978 -0.136865
C8    C     C_R   0.709419 0.838063 0.228940 -0.027558
C9    C     C_1   0.236376 0.162524 0.123111 0.001688
C10   C     C_2   0.181901 0.232600 0.226844 -0.117435
C11   C     C_2   0.154768 0.165356 0.262653 -0.110623
C12   C     C_R   0.749001 0.604343 0.403859 0.539597
C13   C     C_1   0.131780 0.198817 0.320462 -0.029134
C14   C     C_1   0.211217 0.197288 0.169912 -0.040770
C15   C     C_1   0.115533 0.231925 0.368304 0.014209
C16   C     C_1   0.167667 0.750052 0.123699 -0.002055
C17   C     C_2   0.142092 0.689773 0.227924 -0.118471
C18   C     C_2   0.236387 0.676618 0.271727 -0.118955
C19   C     C_1   0.217621 0.652816 0.329299 -0.037160
C20   C     C_1   0.155188 0.721256 0.170749 -0.044049
C21   C     C_1   0.193723 0.635019 0.376221 0.008579
C22   C     C_1   0.628596 0.756758 0.865093 0.000828
C23   C     C_R   0.101013 0.282128 0.423349 0.549301
C24   C     C_2   0.699824 0.714453 0.761233 -0.109072
C25   C     C_2   0.614723 0.700927 0.718986 -0.109839
C26   C     C_1   0.652756 0.668858 0.662909 -0.031556
C27   C     C_1   0.664287 0.738501 0.818296 -0.041994
C28   C     C_1   0.691098 0.639730 0.617309 0.011084
C29   C     C_R   0.193962 0.187365 0.856923 0.011869
C30   C     C_R   0.113623 0.229353 0.642989 -0.001672
C31   C     C_R   0.009827 0.176191 0.716518 -0.127089
C32   C     C_R   0.013646 0.198099 0.658990 -0.117477
C33   C     C_R   0.212123 0.236078 0.685483 -0.017102
C34   C     C_R   0.152174 0.617665 0.590190 0.539488
C35   C     C_R   0.194006 0.234635 0.742857 0.033094
C36   C     C_R   0.098249 0.196335 0.758718 0.027392
C37   C     C_R   0.099451 0.171554 0.816374 -0.123261
C38   C     C_R   0.268970 0.247499 0.841979 -0.125781
C39   C     C_R   0.271520 0.268650 0.785030 -0.126516
C40   C     C_R   0.128608 0.753325 0.849668 -0.005258
C41   C     C_R   0.200795 0.641319 0.647776 -0.013340
C42   C     C_R   0.301419 0.562018 0.742328 -0.143661
C43   C     C_R   0.291382 0.552843 0.683135 -0.146152
C44   C     C_R   0.130439 0.743660 0.672067 -0.015306
C45   C     C_R   0.749893 0.602355 0.566020 0.545403
C46   C     C_R   0.119275 0.743826 0.730837 0.018448
C47   C     C_R   0.212001 0.654346 0.766435 0.020989
C48   C     C_R   0.216970 0.660475 0.825729 -0.126653
C49   C     C_R   0.022759 0.829979 0.814670 -0.138621
C50   C     C_R   0.017846 0.827267 0.755490 -0.032617
C51   C     C_R   0.265960 0.110081 0.069468 0.541903
C52   C     C_R   0.601901 0.774538 0.080696 0.545616
C53   C     C_R   0.189685 0.787838 0.069804 0.545358
C54   C     C_R   0.239585 0.117466 0.908917 0.546117
C55   C     C_R   0.573802 0.776440 0.918189 0.546434
C56   C     C_R   0.100944 0.279015 0.585674 0.545075
C57   C     C_R   0.163792 0.787045 0.906771 0.545638
C58   C     C_R   0.673849 0.754689 0.138146 -0.008538
C59   C     C_R   0.697984 0.636171 0.343507 -0.009317
C60   C     C_R   0.681549 0.557770 0.250503 -0.142836
Cr1   Cr    Cr6+3 0.189770 0.415650 0.511620 1.060550
Cr2   Cr    Cr6+3 0.930400 0.667320 0.496770 1.083083
Cr3   Cr    Cr6+3 0.879870 0.417010 0.491650 1.047320
Cr4   Cr    Cr6+3 0.149500 0.973980 0.985330 1.027065
Cr5   Cr    Cr6+3 0.457000 0.976510 0.994660 1.031428
Cr6   Cr    Cr6+3 0.411170 0.724270 0.995270 1.023951
H1    H     H_    0.684609 0.582719 0.142672 0.135005
H2    H     H_    0.051964 0.680509 0.235156 0.141177
H3    H     H_    0.517394 0.710135 0.726851 0.142078
H4    H     H_    0.797591 0.704155 0.753573 0.143041
H5    H     H_    0.037411 0.129113 0.828531 0.125085
H6    H     H_    0.337537 0.265495 0.873665 0.129789
H7    H     H_    0.935183 0.147882 0.728136 0.138484
H8    H     H_    0.338868 0.306446 0.774270 0.115608
H9    H     H_    0.295504 0.597848 0.852969 0.124752
H10   H     H_    0.683998 0.920281 0.146469 0.140582
H11   H     H_    0.372768 0.493595 0.769218 0.112278
H12   H     H_    0.350014 0.474933 0.665205 0.160687
H13   H     H_    0.673248 0.488541 0.224950 0.119881
H14   H     H_    0.184872 0.313641 0.240560 0.138519
H15   H     H_    0.326144 0.686908 0.264839 0.141975
O1    O     O_R   0.196340 0.303200 0.448500 -0.497190
O2    O     O_R   0.811960 0.658090 0.547150 -0.484940
O3    O     O_R   0.757930 0.506140 0.547110 -0.505701
O4    O     O_R   0.988670 0.321620 0.556040 -0.498791
O5    O     O_3   0.000020 0.499990 0.500010 -0.264842
O6    O     O_R   0.113660 0.883270 0.047820 -0.505876
O7    O     O_R   0.186930 0.068530 0.043990 -0.495852
O8    O     O_R   0.377770 0.089040 0.054220 -0.510065
O9    O     O_R   0.562800 0.872960 0.056970 -0.500723
O10   O     O_R   0.555390 0.700940 0.062700 -0.518453
O11   O     O_R   0.295020 0.731920 0.049950 -0.494432
O12   O     O_R   0.199310 0.519670 0.454880 -0.496655
O13   O     O_R   0.094290 0.884230 0.921550 -0.519734
O14   O     O_R   0.168980 0.069410 0.926940 -0.504726
O15   O     O_R   0.358400 0.089990 0.927950 -0.513033
O16   O     O_R   0.544850 0.873850 0.939920 -0.490079
O17   O     O_R   0.536020 0.701900 0.936430 -0.511286
O18   O     O_R   0.277070 0.732810 0.932890 -0.501949
O19   O     O_3   0.339220 0.891590 0.991750 -0.245528
O20   O     O_R   0.045660 0.691380 0.441680 -0.492908
O21   O     O_R   0.811930 0.659460 0.430950 -0.486855
O22   O     O_R   0.757900 0.507620 0.421760 -0.518089
O23   O     O_R   0.988630 0.322990 0.439840 -0.492410
O24   O     O_R   0.196380 0.301720 0.573850 -0.496033
O25   O     O_R   0.199350 0.518300 0.571080 -0.500828
O26   O     O_R   0.045700 0.689900 0.567030 -0.494320
H16   H     H_    0.938068 0.191673 0.627064 0.161156
C61   C     C_1   0.335040 0.238291 0.671653 0.225659
N1    N     N_1   0.433184 0.239373 0.660913 -0.283300
H17   H     H_    0.949057 0.898072 0.833363 0.140718
C62   C     C_1   0.904261 0.907563 0.722152 0.181903
N2    N     N_1   0.812927 0.971798 0.695727 -0.268557
C63   C     C_1   0.078970 0.847821 0.637244 0.240854
N3    N     N_1   0.038637 0.930666 0.609377 -0.277658
C64   C     C_1   0.734621 0.930844 0.257147 0.201400
N4    N     N_1   0.755201 0.005485 0.279224 -0.268272
H18   H     H_    0.678765 0.474022 0.326674 0.156225
C65   C     C_1   0.681446 0.833946 0.354315 0.230752
N5    N     N_1   0.669169 0.910438 0.383380 -0.252823
H19   H     H_    0.152609 0.083961 0.249143 0.144871

loop_
_geom_bond_atom_site_label_1
_geom_bond_atom_site_label_2
_ccdc_geom_bond_type
Cr2   O2    S    
C60   H13   S    
C1    C21   S    
C23   O1    A    
C6    C58   A    
C52   O9    A    
C35   C36   A    
C9    C51   S    
C24   C27   S    
C4    C8    A    
C17   C20   S    
C63   N3    T    
C2    H18   S    
C24   H4    S    
C7    C8    A    
C45   O2    A    
C43   H12   S    
Cr5   O8    S    
Cr2   O5    S    
C34   O26   A    
C36   C37   A    
C19   C21   T    
Cr1   O1    S    
C5    C6    A    
Cr1   O12   S    
C31   H7    S    
C29   C54   S    
C40   C49   A    
C57   O18   A    
C18   H15   S    
C64   N4    T    
C18   C19   S    
C39   H8    S    
Cr6   O19   S    
C16   C53   S    
C12   C59   S    
Cr5   O15   S    
C47   C48   A    
C29   C38   A    
Cr1   O24   S    
Cr4   O6    S    
C54   O15   A    
C5    C60   A    
C49   H17   S    
Cr2   O20   S    
C15   C23   S    
C44   C63   S    
Cr3   O4    S    
C41   C43   A    
C48   H9    S    
C11   H19   S    
C34   C41   S    
C62   N2    T    
C44   C46   A    
Cr5   O9    S    
C38   H6    S    
C28   C45   S    
Cr1   O5    S    
C34   O25   A    
C3    C65   S    
C24   C25   D    
Cr5   O19   S    
C12   O22   A    
Cr3   O22   S    
C10   C14   S    
C7    H10   S    
C10   H14   S    
C2    C59   A    
Cr3   O23   S    
Cr6   O11   S    
Cr2   O26   S    
C25   C26   S    
C30   C56   S    
Cr6   O18   S    
C35   C39   A    
C9    C14   T    
C12   O21   A    
C23   O23   A    
C16   C20   T    
C55   O16   A    
C53   O11   A    
C50   C62   S    
C17   C18   D    
C53   O6    A    
Cr1   O25   S    
C54   O14   A    
C22   C55   S    
C52   C58   S    
C6    H1    S    
C22   C27   T    
C13   C15   T    
Cr3   O5    S    
C41   C44   A    
C45   O3    A    
C33   C61   S    
C42   C43   A    
C3    C4    A    
C1    O20   A    
C40   C48   A    
C46   C47   A    
C17   H2    S    
C40   C57   S    
C7    C58   A    
C30   C33   A    
C31   C32   A    
Cr4   O14   S    
C4    C5    A    
C51   O7    A    
C65   N5    T    
Cr6   O10   S    
C46   C50   A    
C26   C28   T    
Cr3   O3    S    
C57   O13   A    
Cr6   O17   S    
C37   H5    S    
Cr5   O16   S    
C61   N1    T    
C51   O8    A    
C30   C32   A    
C11   C13   S    
C56   O4    A    
C38   C39   A    
C55   O17   A    
C33   C35   A    
C2    C60   A    
C42   C47   A    
C56   O24   A    
C10   C11   D    
C8    C64   S    
Cr4   O13   S    
Cr4   O19   S    
C25   H3    S    
C42   H11   S    
C1    O12   A    
C49   C50   A    
C32   H16   S    
C29   C37   A    
C31   C36   A    
C52   O10   A    
Cr4   O7    S    
Cr2   O21   S    
C3    C59   A    
