data_mof_unit_27756.cif
_audit_creation_date              2012-12-11T14:35:59-0500
_audit_creation_method            fapswitch 2.2
_symmetry_space_group_name_H-M    P1
_symmetry_Int_Tables_number       1
_space_group_crystal_system       triclinic
_cell_length_a                    13.471421
_cell_length_b                    13.48566
_cell_length_c                    27.540796
_cell_angle_alpha                 90.900476
_cell_angle_beta                  90.137295
_cell_angle_gamma                 59.993348
_cell_volume                      4332.12857246

loop_
_atom_site_label
_atom_site_type_symbol
_atom_type_description
_atom_site_fract_x
_atom_site_fract_y
_atom_site_fract_z
_atom_type_partial_charge
C1    C     C_R   0.620283 0.101729 0.570137 0.548505
C2    C     C_1   0.633212 0.727750 0.615368 0.016679
C3    C     C_3   0.720023 0.544744 0.765870 -0.133155
C4    C     C_3   0.682496 0.642541 0.804166 0.025343
C5    C     C_3   0.606624 0.619511 0.737768 -0.100603
C6    C     C_3   0.667586 0.670988 0.708712 0.047991
C7    C     C_3   0.569188 0.716753 0.776791 -0.048973
C8    C     C_3   0.631140 0.765884 0.747366 0.173634
C9    C     C_1   0.690923 0.624848 0.856724 -0.019361
C10   C     C_1   0.652702 0.696442 0.656794 -0.005062
C11   C     C_3   0.063643 0.198739 0.737422 0.351134
C12   C     C_R   0.599956 0.779006 0.568570 0.550447
C13   C     C_3   0.120443 0.097851 0.772114 0.138961
C14   C     C_1   0.097386 0.200746 0.902031 0.009585
C15   C     C_1   0.229755 0.138607 0.617496 0.025627
C16   C     C_3   0.090646 0.272057 0.772967 -0.124874
C17   C     C_3   0.148391 0.168880 0.807532 -0.022173
C18   C     C_3   0.208307 0.228284 0.747108 -0.200845
C19   C     C_3   0.179552 0.155723 0.711925 0.035626
C20   C     C_3   0.265686 0.125485 0.782342 -0.105028
C21   C     C_3   0.236253 0.054154 0.746652 0.406400
C22   C     C_1   0.125460 0.181617 0.859899 -0.014083
C23   C     C_R   0.277696 0.122034 0.569663 0.542867
C24   C     C_1   0.201974 0.147831 0.659596 0.035414
C25   C     C_3   0.628056 0.284828 0.738680 -0.081228
C26   C     C_3   0.556847 0.263855 0.776809 0.374080
C27   C     C_1   0.692759 0.210088 0.902377 0.025614
C28   C     C_1   0.635895 0.135537 0.617889 0.011684
C29   C     C_3   0.737191 0.213642 0.769707 -0.185530
C30   C     C_3   0.664199 0.193984 0.807316 0.048175
C31   C     C_3   0.760645 0.102357 0.742292 -0.082640
C32   C     C_3   0.651458 0.173543 0.712212 -0.041795
C33   C     C_3   0.686910 0.084932 0.780144 0.355520
C34   C     C_R   0.622833 0.100061 0.431581 0.570185
C35   C     C_3   0.577918 0.153944 0.749633 -0.081520
C36   C     C_1   0.676010 0.201997 0.859898 0.037579
C37   C     C_1   0.644393 0.156462 0.659902 -0.022483
C38   C     C_R   0.737916 0.700555 0.360374 -0.131097
C39   C     C_R   0.750778 0.680441 0.310217 0.007320
C40   C     C_R   0.764493 0.659146 0.208483 0.010221
C41   C     C_R   0.853700 0.658923 0.234954 -0.116351
C42   C     C_R   0.846475 0.670363 0.285555 -0.095984
C43   C     C_R   0.773107 0.641063 0.158177 -0.121566
C44   C     C_R   0.684771 0.636389 0.132965 0.001021
C45   C     C_R   0.602534 0.774788 0.430623 0.545746
C46   C     C_R   0.559928 0.695533 0.358125 -0.105021
C47   C     C_R   0.568026 0.682317 0.308129 0.004233
C48   C     C_R   0.662501 0.677164 0.283844 0.056188
C49   C     C_R   0.479124 0.681823 0.281929 -0.081681
C50   C     C_R   0.481682 0.680227 0.231535 -0.125313
C51   C     C_R   0.575541 0.674242 0.207070 0.003299
C52   C     C_R   0.667435 0.670629 0.233118 0.061375
C53   C     C_R   0.582230 0.663967 0.156990 -0.131421
C54   C     C_R   0.638911 0.714884 0.383766 -0.007602
C55   C     C_R   0.210882 0.058213 0.359492 -0.130668
C56   C     C_R   0.275095 0.121938 0.431898 0.562998
C57   C     C_R   0.182865 0.072304 0.310246 0.016142
C58   C     C_R   0.148204 0.095072 0.208990 -0.047537
C59   C     C_R   0.169858 0.993841 0.232235 -0.086954
C60   C     C_R   0.188248 0.982092 0.282170 0.384686
C61   C     C_R   0.127046 0.109612 0.158548 0.064140
C62   C     C_R   0.105583 0.212885 0.136715 0.046668
C63   C     C_R   0.162473 0.257720 0.366709 0.099520
C64   C     C_R   0.144681 0.269811 0.316411 0.025716
C65   C     C_R   0.156293 0.176159 0.288017 -0.013670
C66   C     C_R   0.122189 0.371134 0.293587 -0.126047
C67   C     C_3   0.781129 0.596409 0.735962 -0.132931
C68   C     C_R   0.118225 0.377344 0.243497 -0.094697
C69   C     C_R   0.128583 0.285508 0.214887 0.060415
C70   C     C_R   0.143354 0.185846 0.237245 -0.002652
C71   C     C_R   0.120336 0.294404 0.164503 0.063724
C72   C     C_R   0.208495 0.147960 0.386866 0.015732
C73   C     C_R   0.567247 0.241169 0.364705 0.398950
C74   C     C_R   0.572339 0.259542 0.314954 0.038016
C75   C     C_R   0.579523 0.288661 0.213996 -0.002395
C76   C     C_R   0.497885 0.378028 0.243735 -0.075324
C77   C     C_R   0.493702 0.363725 0.293540 0.398928
C78   C     C_3   0.742168 0.692814 0.774669 0.109588
C79   C     C_R   0.588969 0.304860 0.164247 0.035404
C80   C     C_R   0.676795 0.214334 0.135998 0.021400
C81   C     C_R   0.733263 0.050267 0.355740 -0.152095
C82   C     C_R   0.737131 0.065139 0.306266 0.010758
C83   C     C_R   0.655591 0.169505 0.285466 -0.101190
C84   C     C_R   0.817968 0.975002 0.276965 0.377412
C85   C     C_R   0.816295 0.987069 0.227033 -0.046977
C86   C     C_R   0.737272 0.090861 0.205886 -0.022779
C87   C     C_R   0.657293 0.183135 0.235068 -0.053512
C88   C     C_R   0.741768 0.105134 0.156306 0.345916
C89   C     C_1   0.698916 0.602780 0.899278 0.011025
C90   C     C_R   0.644761 0.134501 0.384512 -0.030651
C91   C     C_R   0.049430 0.235990 0.949828 0.542959
C92   C     C_R   0.711883 0.562049 0.947945 0.550850
C93   C     C_R   0.722368 0.225688 0.950769 0.544972
C94   C     C_R   0.048456 0.245572 0.088799 0.564934
C95   C     C_R   0.707479 0.575609 0.086334 0.547307
C96   C     C_R   0.717815 0.234493 0.089559 0.568911
Cr1   Cr    Cr6+3 0.417550 0.169090 0.500530 1.112287
Cr2   Cr    Cr6+3 0.669180 0.913420 0.499920 1.045456
Cr3   Cr    Cr6+3 0.413260 0.917540 0.499520 1.063473
Cr4   Cr    Cr6+3 0.909170 0.177380 0.020380 1.099209
Cr5   Cr    Cr6+3 0.912710 0.429210 0.018220 1.036675
Cr6   Cr    Cr6+3 0.657170 0.432570 0.019030 1.031959
H1    H     H_    0.349092 0.094770 0.800853 0.146066
H2    H     H_    0.244591 0.282722 0.736314 0.162206
H3    H     H_    0.030174 0.362229 0.783991 0.131646
H4    H     H_    0.603182 0.367658 0.721258 0.140107
H5    H     H_    0.511540 0.130526 0.741221 0.124017
H6    H     H_    0.844853 0.034925 0.727796 0.148130
H7    H     H_    0.802100 0.238730 0.778593 0.160021
H8    H     H_    0.851358 0.622358 0.139434 0.125187
H9    H     H_    0.867934 0.547477 0.719396 0.134767
H10   H     H_    0.800216 0.713288 0.380355 0.140319
H11   H     H_    0.928726 0.650125 0.216537 0.128970
H12   H     H_    0.915535 0.671305 0.305387 0.177308
H13   H     H_    0.512099 0.664191 0.137461 0.134273
H14   H     H_    0.411659 0.681020 0.211731 0.131378
H15   H     H_    0.406531 0.685259 0.300400 0.216432
H16   H     H_    0.484724 0.703504 0.376169 0.170422
H17   H     H_    0.242503 0.974992 0.375629 0.193283
H18   H     H_    0.173837 0.922368 0.212146 0.140807
H19   H     H_    0.104325 0.456024 0.227461 0.154058
H20   H     H_    0.112137 0.445016 0.313820 0.132456
H21   H     H_    0.437047 0.460123 0.228763 0.174163
H22   H     H_    0.482734 0.767396 0.793525 0.176648
H23   H     H_    0.879328 0.915852 0.205183 0.192829
H24   H     H_    0.793884 0.968403 0.371060 0.212172
H25   H     H_    0.551248 0.588144 0.722015 0.143440
H26   H     H_    0.756493 0.452682 0.774105 0.145709
O1    O     O_R   0.301710 0.195650 0.554160 -0.505927
O2    O     O_R   0.658900 0.818120 0.449760 -0.501941
O3    O     O_R   0.503220 0.801620 0.445520 -0.511537
O4    O     O_R   0.319370 0.022040 0.450020 -0.516651
O5    O     O_3   0.499990 0.000010 0.499990 -0.271788
O6    O     O_R   0.818720 0.150820 0.967160 -0.491976
O7    O     O_R   0.006410 0.181720 0.970200 -0.492885
O8    O     O_R   0.027890 0.334070 0.964920 -0.501882
O9    O     O_R   0.809600 0.521790 0.967960 -0.490056
O10   O     O_R   0.635520 0.542770 0.964420 -0.497166
O11   O     O_R   0.665950 0.325030 0.970100 -0.493630
O12   O     O_R   0.522390 0.158990 0.550460 -0.492291
O13   O     O_R   0.816620 0.158530 0.074540 -0.424809
O14   O     O_R   0.004460 0.188870 0.069750 -0.456626
O15   O     O_R   0.025800 0.341780 0.072300 -0.537177
O16   O     O_R   0.807650 0.528950 0.067500 -0.500132
O17   O     O_R   0.633420 0.550490 0.071810 -0.529035
O18   O     O_R   0.664000 0.332180 0.069640 -0.527776
O19   O     O_3   0.826350 0.346390 0.019210 -0.267402
O20   O     O_R   0.694390 0.003530 0.554040 -0.501357
O21   O     O_R   0.657700 0.819660 0.549320 -0.498302
O22   O     O_R   0.501930 0.803280 0.552920 -0.488795
O23   O     O_R   0.318170 0.023580 0.549580 -0.486183
O24   O     O_R   0.303010 0.193990 0.446760 -0.453888
O25   O     O_R   0.523600 0.157450 0.450900 -0.428772
O26   O     O_R   0.695690 0.001860 0.446640 -0.530988
N1    N     N_3   0.814385 0.734571 0.795160 -0.524121
H27   H     H_    0.847062 0.758855 0.766181 0.254506
H28   H     H_    0.884252 0.665099 0.811365 0.231244
F1    F     F_    0.451970 0.347003 0.795195 -0.616225
F2    F     F_    0.717657 0.982733 0.802549 -0.626984
N2    N     N_3   0.126236 0.021035 0.129185 -0.592442
H29   H     H_    0.206496 0.946848 0.131309 0.223170
H30   H     H_    0.063392 0.004575 0.142556 0.263532
N3    N     N_3   0.582302 0.886876 0.736844 -0.568970
H31   H     H_    0.562588 0.931119 0.770102 0.274983
H32   H     H_    0.646351 0.897097 0.720371 0.242477
F3    F     F_    0.210698 0.882485 0.303035 -0.635347
N4    N     N_3   0.126989 0.387228 0.142711 -0.639640
H33   H     H_    0.045094 0.452849 0.133730 0.253729
H34   H     H_    0.181612 0.357279 0.112470 0.261321
N5    N     N_3   0.139785 0.354269 0.397334 -0.583303
H35   H     H_    0.194285 0.384873 0.387309 0.280315
H36   H     H_    0.054572 0.418621 0.392696 0.222703
N6    N     N_3   0.511713 0.414314 0.143954 -0.645753
H37   H     H_    0.556644 0.456717 0.136277 0.265842
H38   H     H_    0.475214 0.402491 0.112434 0.255654
F4    F     F_    0.484318 0.324148 0.393338 -0.555663
F5    F     F_    0.412739 0.452548 0.320473 -0.575152
F6    F     F_    0.816230 0.013627 0.128418 -0.630805
F7    F     F_    0.898146 0.874798 0.296534 -0.644523
N7    N     N_3   0.073988 0.025341 0.786024 -0.563788
H39   H     H_    0.056832 0.994027 0.754056 0.261344
H40   H     H_    0.995202 0.077815 0.803189 0.228103
F8    F     F_    0.960167 0.235228 0.714274 -0.651743
F9    F     F_    0.309744 0.941564 0.732774 -0.613423

loop_
_geom_bond_atom_site_label_1
_geom_bond_atom_site_label_2
_ccdc_geom_bond_type
C21   F9    S    
C66   C68   A    
Cr2   O26   S    
C59   H18   S    
C81   H24   S    
N1    H28   S    
Cr5   O15   S    
C41   C42   A    
C79   N6    S    
C85   H23   S    
N3    H31   S    
C95   O17   A    
Cr1   O5    S    
C7    H22   S    
C43   C44   A    
C92   O10   A    
C81   C82   A    
C7    C8    S    
N4    H34   S    
C20   H1    S    
C55   H17   S    
N6    H37   S    
Cr2   O5    S    
C11   C19   S    
N5    H36   S    
Cr3   O4    S    
C13   C17   S    
C94   O15   A    
C29   H7    S    
N3    H32   S    
C73   C90   A    
Cr4   O13   S    
Cr6   O17   S    
Cr6   O10   S    
C5    C6    S    
Cr5   O16   S    
C86   C88   A    
C78   N1    S    
Cr5   O8    S    
N5    H35   S    
Cr4   O19   S    
C65   C70   A    
C17   C20   S    
C23   O1    A    
C18   C19   S    
C73   C74   A    
Cr2   O2    S    
C69   C71   A    
C96   O13   A    
C44   C53   A    
C42   H12   S    
C40   C43   A    
C49   H15   S    
C91   O8    A    
C31   C32   S    
N7    H40   S    
C16   C17   S    
C56   C72   S    
C74   C77   A    
C1    C28   S    
C66   H20   S    
C43   H8    S    
Cr1   O25   S    
C56   O24   A    
C74   C83   A    
Cr1   O12   S    
C18   C20   S    
C55   C72   A    
Cr4   O7    S    
C57   C60   A    
C25   C32   S    
C15   C23   S    
C2    C12   S    
C45   O2    A    
C71   N4    S    
C8    C78   S    
C46   C54   A    
C61   C62   A    
C67   C78   S    
C4    C7    S    
C92   O9    A    
Cr4   O6    S    
C25   H4    S    
C39   C42   A    
N6    H38   S    
C25   C29   S    
Cr3   O22   S    
C3    C67   S    
C51   C52   A    
C94   O14   A    
C32   C35   S    
C12   O22   A    
C11   F8    S    
C76   C77   A    
C47   C49   A    
C93   O6    A    
C61   N2    S    
C9    C89   T    
N4    H33   S    
C5    C7    S    
Cr5   O9    S    
C3    H26   S    
C68   C69   A    
C63   N5    S    
C6    C8    S    
C25   C26   S    
C40   C52   A    
Cr3   O23   S    
C60   F3    S    
C79   C80   A    
C51   C53   A    
C64   C66   A    
C84   F7    S    
C75   C76   A    
C34   C90   S    
C4    C78   S    
C29   C30   S    
C93   O11   A    
Cr6   O19   S    
C11   C16   S    
C47   C48   A    
C38   C54   A    
C48   C52   A    
C83   C87   A    
C5    H25   S    
C31   C33   S    
C50   C51   A    
C13   C21   S    
C16   C18   S    
C18   H2    S    
C32   C37   S    
C84   C85   A    
C89   C92   S    
C88   F6    S    
C85   C86   A    
C56   O4    A    
C1    O12   A    
C16   H3    S    
C81   C90   A    
C67   H9    S    
C15   C24   T    
C45   C54   S    
C45   O3    A    
C34   O26   A    
C82   C84   A    
C62   C94   S    
C49   C50   A    
C27   C93   S    
C46   H16   S    
C80   C96   S    
C38   H10   S    
C3    C4    S    
C2    C10   T    
C31   H6    S    
N7    H39   S    
C34   O25   A    
C75   C87   A    
C23   O23   A    
C46   C47   A    
C40   C41   A    
C30   C33   S    
C19   C21   S    
C20   C21   S    
C86   C87   A    
C76   H21   S    
C12   O21   A    
C95   O16   A    
C58   C70   A    
C57   C65   A    
C3    C5    S    
C8    N3    S    
C68   H19   S    
C6    C10   S    
C26   C30   S    
C30   C36   S    
C27   C36   T    
C13   N7    S    
C96   O18   A    
C17   C22   S    
Cr3   O3    S    
C64   C65   A    
C14   C22   T    
C73   F4    S    
C55   C57   A    
C19   C24   S    
C58   C59   A    
Cr1   O1    S    
C80   C88   A    
C44   C95   S    
C6    C67   S    
N2    H29   S    
C11   C13   S    
Cr5   O19   S    
C38   C39   A    
Cr2   O20   S    
C28   C37   T    
C58   C61   A    
C41   H11   S    
C33   C35   S    
Cr1   O24   S    
C62   C71   A    
C26   F1    S    
C50   H14   S    
Cr6   O11   S    
C69   C70   A    
C77   F5    S    
C14   C91   S    
C35   H5    S    
C63   C64   A    
C53   H13   S    
C26   C35   S    
C59   C60   A    
C91   O7    A    
C63   C72   A    
Cr3   O5    S    
C29   C31   S    
C82   C83   A    
N1    H27   S    
C1    O20   A    
Cr4   O14   S    
C4    C9    S    
C75   C79   A    
Cr6   O18   S    
C33   F2    S    
N2    H30   S    
C39   C48   A    
Cr2   O21   S    
