data_mof_unit_23838.cif
_audit_creation_date              2012-12-10T18:53:53-0500
_audit_creation_method            fapswitch 2.2
_symmetry_space_group_name_H-M    P1
_symmetry_Int_Tables_number       1
_space_group_crystal_system       triclinic
_cell_length_a                    19.400497
_cell_length_b                    18.155005
_cell_length_c                    10.835621
_cell_angle_alpha                 90.000039
_cell_angle_beta                  89.618959
_cell_angle_gamma                 90.000105
_cell_volume                      3816.39598931

loop_
_atom_site_label
_atom_site_type_symbol
_atom_type_description
_atom_site_fract_x
_atom_site_fract_y
_atom_site_fract_z
_atom_type_partial_charge
C1    C     C_R   0.367804 0.500061 0.498913 0.810638
C2    C     C_R   0.632196 0.500062 0.501087 0.810638
C3    C     C_R   0.815532 0.548834 0.429646 -0.202085
C4    C     C_R   0.184468 0.548834 0.570354 -0.202086
C5    C     C_R   0.743881 0.549114 0.429993 -0.262268
C6    C     C_R   0.256119 0.549114 0.570007 -0.262268
C7    C     C_R   0.707287 0.500555 0.506431 -0.128367
C8    C     C_R   0.292713 0.500555 0.493570 -0.128367
C9    C     C_R   0.964233 0.565310 0.502695 -0.259305
C10   C     C_R   0.035767 0.565309 0.497304 -0.259305
C11   C     C_R   0.072415 0.498801 0.497105 -0.028162
C12   C     C_R   0.927585 0.498801 0.502896 -0.028163
C13   C     C_R   0.036260 0.431461 0.503402 0.350993
C14   C     C_R   0.963740 0.431461 0.496599 0.350993
C15   C     C_R   0.449285 0.720997 0.561307 0.061819
C16   C     C_R   0.550716 0.720998 0.438694 0.061829
C17   C     C_R   0.447981 0.798305 0.561425 -0.256018
C18   C     C_R   0.552020 0.798306 0.438580 -0.255971
C19   C     C_R   0.500001 0.837875 0.500004 0.180781
C20   C     C_R   0.551719 0.959748 0.562415 0.391344
C21   C     C_R   0.448282 0.959747 0.437596 0.391366
C22   C     C_R   0.500170 0.499921 0.262515 0.788359
C23   C     C_R   0.499830 0.499921 0.737485 0.788360
C24   C     C_R   0.552382 0.037323 0.559612 -0.268460
C25   C     C_R   0.447618 0.037322 0.440394 -0.268473
C26   C     C_R   0.500000 0.077626 0.500003 -0.003670
C27   C     C_R   0.500001 0.920213 0.500006 -0.106315
C28   C     C_R   0.469958 0.201478 0.403190 -0.278304
C29   C     C_R   0.530042 0.201479 0.596813 -0.278307
C30   C     C_R   0.469932 0.278850 0.405602 0.097934
C31   C     C_R   0.530068 0.278851 0.594399 0.097937
C32   C     C_R   0.500000 0.160949 0.500002 0.165642
C33   C     C_R   0.500104 0.563665 0.062030 0.135866
C34   C     C_R   0.499895 0.563665 0.937970 0.135875
C35   C     C_R   0.500165 0.499018 0.130023 -0.103801
C36   C     C_R   0.499835 0.499018 0.869977 -0.103802
C37   C     C_R   0.500087 0.431800 0.064615 -0.245063
C38   C     C_R   0.499913 0.431800 0.935385 -0.245064
C39   C     C_3   0.499918 0.645547 0.928921 -0.482616
C40   C     C_3   0.500080 0.645546 0.071080 -0.482611
C41   C     C_R   0.742965 0.453666 0.587972 0.429316
C42   C     C_R   0.257034 0.453665 0.412029 0.429316
C43   C     C_R   0.814930 0.453589 0.586602 -0.173682
C44   C     C_R   0.185069 0.453588 0.413399 -0.173683
C45   C     C_R   0.851614 0.500536 0.506873 0.079057
C46   C     C_R   0.148386 0.500535 0.493127 0.079058
Cu1   Cu    Cu3+1 0.500000 0.573360 0.500000 0.927027
Cu2   Cu    Cu3+1 0.500000 0.426640 0.500000 0.960049
H1    H     H_    0.500102 0.379442 0.112506 0.163524
H2    H     H_    0.499898 0.379442 0.887494 0.163525
H3    H     H_    0.409577 0.690898 0.610396 0.119497
H4    H     H_    0.590422 0.690899 0.389604 0.119492
H5    H     H_    0.407209 0.827047 0.610284 0.142299
H6    H     H_    0.592792 0.827048 0.389722 0.142293
H7    H     H_    0.594503 0.065532 0.604305 0.160828
H8    H     H_    0.405497 0.065529 0.395700 0.160822
H9    H     H_    0.447247 0.174033 0.324767 0.125885
H10   H     H_    0.552752 0.174035 0.675236 0.125886
H11   H     H_    0.445920 0.308798 0.331116 0.126277
H12   H     H_    0.554079 0.308800 0.668885 0.126278
H13   H     H_    0.548356 0.667061 0.887059 0.208419
H14   H     H_    0.451643 0.667060 0.112942 0.208434
H15   H     H_    0.451450 0.667295 0.888654 0.197793
H16   H     H_    0.548548 0.667295 0.111348 0.197797
H17   H     H_    0.842074 0.417097 0.648665 0.171307
H18   H     H_    0.157925 0.417096 0.351337 0.171307
H19   H     H_    0.842813 0.585138 0.366834 0.146665
H20   H     H_    0.157187 0.585139 0.633165 0.146665
H21   H     H_    0.716919 0.585855 0.367997 0.156416
H22   H     H_    0.283081 0.585855 0.632003 0.156416
H23   H     H_    0.937379 0.617580 0.506405 0.166597
H24   H     H_    0.062621 0.617580 0.493594 0.166598
N1    N     N_R   0.500000 0.683620 0.500000 -0.168414
N2    N     N_R   0.500000 0.316380 0.500000 -0.175018
O1    O     O_R   0.400190 0.561980 0.499980 -0.598846
O2    O     O_R   0.599810 0.561980 0.500020 -0.598841
O3    O     O_R   0.400190 0.438070 0.500040 -0.545416
O4    O     O_R   0.599810 0.438070 0.499960 -0.545416
O5    O     O_R   0.500000 0.561960 0.319660 -0.581829
O6    O     O_R   0.500000 0.561960 0.680340 -0.581826
O7    O     O_R   0.500000 0.438060 0.319720 -0.603328
O8    O     O_R   0.500000 0.438060 0.680280 -0.603329
O9    O     O_3   0.603314 0.922516 0.623742 -0.603680
C47   C     C_3   0.581131 0.909149 0.746220 0.060933
H25   H     H_    0.527429 0.887080 0.749980 0.136541
H26   H     H_    0.583406 0.961181 0.800471 0.138828
C48   C     C_3   0.628736 0.852182 0.804888 -0.300573
H27   H     H_    0.628530 0.801103 0.748237 0.225583
H28   H     H_    0.682218 0.874083 0.807031 0.222130
C49   C     C_3   0.605601 0.833292 0.936040 -0.965062
H29   H     H_    0.605970 0.883337 0.995014 0.257913
H30   H     H_    0.641213 0.791950 0.976080 0.256915
H31   H     H_    0.552840 0.809640 0.935259 0.261617
O10   O     O_3   0.396690 0.922511 0.376268 -0.603683
C50   C     C_3   0.418870 0.909149 0.253787 0.060945
H32   H     H_    0.472600 0.887157 0.249999 0.136486
H33   H     H_    0.416519 0.961168 0.199512 0.138865
C51   C     C_3   0.371327 0.852100 0.195179 -0.300587
H34   H     H_    0.371621 0.801029 0.251845 0.225576
H35   H     H_    0.317813 0.873916 0.193077 0.222147
C52   C     C_3   0.394450 0.833232 0.064012 -0.965065
H36   H     H_    0.393983 0.883268 0.005018 0.257920
H37   H     H_    0.358891 0.791819 0.024024 0.256907
H38   H     H_    0.447249 0.809676 0.064747 0.261633
O11   O     O_3   0.708564 0.404199 0.663714 -0.611737
C53   C     C_3   0.680833 0.441022 0.768087 0.071954
H39   H     H_    0.634012 0.410327 0.797422 0.170522
H40   H     H_    0.663884 0.498581 0.748665 0.107771
C54   C     C_3   0.732244 0.440529 0.874776 -0.376540
H41   H     H_    0.749418 0.383122 0.892634 0.230219
H42   H     H_    0.778095 0.474091 0.849496 0.208409
C55   C     C_3   0.699912 0.471966 0.992385 -0.903554
H43   H     H_    0.681864 0.529255 0.976555 0.255671
H44   H     H_    0.738735 0.472475 0.067236 0.254700
H45   H     H_    0.655585 0.437500 0.022431 0.267475
O12   O     O_3   0.291436 0.404198 0.336288 -0.611736
C56   C     C_3   0.319166 0.441020 0.231914 0.071954
H46   H     H_    0.365988 0.410325 0.202580 0.170522
H47   H     H_    0.336115 0.498579 0.251335 0.107769
C57   C     C_3   0.267755 0.440526 0.125225 -0.376538
H48   H     H_    0.250582 0.383119 0.107367 0.230218
H49   H     H_    0.221904 0.474088 0.150505 0.208408
C58   C     C_3   0.300087 0.471963 0.007615 -0.903556
H50   H     H_    0.318135 0.529253 0.023445 0.255668
H51   H     H_    0.261264 0.472471 0.932765 0.254701
H52   H     H_    0.344415 0.437497 0.977570 0.267475
O13   O     O_3   0.071896 0.365452 0.510065 -0.625674
C59   C     C_3   0.068320 0.337072 0.631734 0.094295
H53   H     H_    0.075377 0.276463 0.625484 0.171242
H54   H     H_    0.017229 0.346038 0.677194 0.146395
C60   C     C_3   0.126107 0.368976 0.711613 -0.365755
H55   H     H_    0.176528 0.361331 0.663968 0.245065
H56   H     H_    0.117411 0.428859 0.725647 0.215270
C61   C     C_3   0.128614 0.331735 0.837729 -0.925603
H57   H     H_    0.078957 0.339559 0.887671 0.253763
H58   H     H_    0.170539 0.356497 0.893343 0.261489
H59   H     H_    0.138971 0.271888 0.827141 0.260114
O14   O     O_3   0.928103 0.365452 0.489937 -0.625674
C62   C     C_3   0.931679 0.337072 0.368268 0.094294
H60   H     H_    0.924621 0.276462 0.374519 0.171242
H61   H     H_    0.982770 0.346037 0.322808 0.146396
C63   C     C_3   0.873892 0.368976 0.288389 -0.365755
H62   H     H_    0.823472 0.361331 0.336034 0.245065
H63   H     H_    0.882589 0.428859 0.274354 0.215270
C64   C     C_3   0.871385 0.331734 0.162273 -0.925602
H64   H     H_    0.921042 0.339558 0.112331 0.253763
H65   H     H_    0.829460 0.356497 0.106659 0.261489
H66   H     H_    0.861027 0.271887 0.172862 0.260114

loop_
_geom_bond_atom_site_label_1
_geom_bond_atom_site_label_2
_ccdc_geom_bond_type
C31   H12   S    
C48   H27   S    
C26   C32   S    
C52   H36   S    
C23   O8    A    
C1    C8    S    
C1    O3    A    
C44   H18   S    
C2    C7    S    
C25   H8    S    
Cu1   O5    S    
C60   C61   S    
C59   H53   S    
C61   H59   S    
C55   H44   S    
C64   H64   S    
C50   C51   S    
C58   H50   S    
C4    C46   A    
C28   H9    S    
Cu2   O7    S    
C24   H7    S    
C22   C35   S    
C41   O11   S    
O9    C47   S    
C35   C37   A    
C24   C26   A    
C22   O5    A    
C29   C32   A    
C56   H47   S    
C30   N2    A    
C62   C63   S    
C58   H51   S    
C21   O10   S    
C11   C13   A    
C40   H14   S    
O12   C56   S    
C6    H22   S    
C18   C19   A    
Cu2   O4    S    
C20   C24   A    
C5    H21   S    
C17   C19   A    
C48   C49   S    
C14   O14   S    
C57   H49   S    
C47   C48   S    
C15   H3    S    
C23   O6    A    
C19   C27   S    
C9    C10   A    
C57   C58   S    
C3    C5    A    
C21   C27   A    
C52   H37   S    
C13   C14   A    
C41   C43   A    
C63   C64   S    
C42   C44   A    
Cu1   O6    S    
C55   H43   S    
C64   H65   S    
C44   C46   A    
C39   H13   S    
C33   C40   S    
C34   C39   S    
C1    O1    A    
C22   O7    A    
Cu2   N2    S    
C28   C32   A    
C47   H25   S    
Cu1   N1    S    
C4    C6    A    
C10   C11   A    
C56   C57   S    
C39   C40   S    
C5    C7    A    
C58   H52   S    
C61   H58   S    
C60   H56   S    
C25   C26   A    
C3    C45   A    
C16   N1    A    
Cu2   O3    S    
C37   C38   A    
C2    O4    A    
C37   H1    S    
C49   H30   S    
Cu1   Cu2   S    
C43   H17   S    
C30   H11   S    
C33   C34   A    
C43   C45   A    
C42   O12   S    
C15   N1    A    
C12   C14   A    
C51   H34   S    
C52   H38   S    
C51   H35   S    
C48   H28   S    
C63   H63   S    
C54   C55   S    
O13   C59   S    
C59   C60   S    
C17   H5    S    
C64   H66   S    
C2    O2    A    
C57   H48   S    
C49   H31   S    
C4    H20   S    
C15   C17   A    
C21   C25   A    
C9    H23   S    
C3    H19   S    
C16   H4    S    
C8    C42   A    
C12   C45   S    
C31   N2    A    
C59   H54   S    
Cu1   O2    S    
C6    C8    A    
C62   H60   S    
C50   H33   S    
C61   H57   S    
C38   H2    S    
C20   C27   A    
C51   C52   S    
C39   H15   S    
O11   C53   S    
C40   H16   S    
C54   H42   S    
Cu1   O1    S    
C28   C30   A    
C29   C31   A    
C56   H46   S    
C62   H61   S    
C49   H29   S    
C53   H40   S    
C36   C38   A    
C33   C35   A    
Cu2   O8    S    
C34   C36   A    
C7    C41   A    
O10   C50   S    
C9    C12   A    
O14   C62   S    
C18   H6    S    
C13   O13   S    
C29   H10   S    
C16   C18   A    
C23   C36   S    
C53   H39   S    
C20   O9    S    
C50   H32   S    
C63   H62   S    
C47   H26   S    
C11   C46   S    
C54   H41   S    
C55   H45   S    
C60   H55   S    
C53   C54   S    
C10   H24   S    
