data_mof_unit_6887.cif
_audit_creation_date              2012-12-11T16:35:13-0500
_audit_creation_method            fapswitch 2.2
_symmetry_space_group_name_H-M    P1
_symmetry_Int_Tables_number       1
_space_group_crystal_system       triclinic
_cell_length_a                    6.932664
_cell_length_b                    17.632046
_cell_length_c                    19.490984
_cell_angle_alpha                 109.033378
_cell_angle_beta                  90.450914
_cell_angle_gamma                 90.613838
_cell_volume                      2251.97303907

loop_
_atom_site_label
_atom_site_type_symbol
_atom_type_description
_atom_site_fract_x
_atom_site_fract_y
_atom_site_fract_z
_atom_type_partial_charge
O1    O     O_R   0.505700 0.440210 0.561730 -0.542877
O2    O     O_R   0.169350 0.406300 0.412660 -0.537069
O3    O     O_R   0.005650 0.559790 0.438270 -0.542229
C1    C     C_R   0.337812 0.383140 0.384889 0.695892
O4    O     O_R   0.175560 0.430650 0.559600 -0.542749
O5    O     O_R   0.011900 0.584320 0.586250 -0.536165
C2    C     C_R   0.344634 0.415571 0.581062 0.690445
O6    O     O_R   0.499450 0.415680 0.413750 -0.534639
O7    O     O_3   0.341370 0.550390 0.508570 -0.368173
V1    V     V_3+5 0.063940 0.490650 0.498410 1.423399
O8    O     O_R   0.682570 0.593700 0.587340 -0.537169
C3    C     C_R   0.852625 0.616386 0.615124 0.696927
O9    O     O_R   0.676370 0.569350 0.440400 -0.543491
C4    C     C_R   0.845111 0.584299 0.418583 0.695747
V2    V     V_3+5 0.564750 0.509350 0.501590 1.424294
O10   O     O_3   0.837190 0.449610 0.491430 -0.367203
C5    C     C_R   0.044165 0.709637 0.308083 -0.040248
H1    H     H_    0.182243 0.734312 0.299571 0.135726
C6    C     C_R   0.033324 0.664919 0.355654 -0.169895
H2    H     H_    0.164220 0.655904 0.382519 0.124446
C7    C     C_R   0.855718 0.632846 0.368761 -0.059220
C8    C     C_R   0.689465 0.646448 0.332671 -0.177737
H3    H     H_    0.550657 0.622226 0.340935 0.118761
C9    C     C_R   0.700927 0.690489 0.284490 -0.037803
H4    H     H_    0.571241 0.699454 0.256888 0.147726
C10   C     C_R   0.878328 0.722580 0.271806 0.210195
C11   C     C_R   0.792357 0.843660 0.237025 0.405544
C12   C     C_R   0.803448 0.888650 0.189781 -0.232885
H5    H     H_    0.727943 0.945049 0.203187 0.172565
C13   C     C_R   0.916072 0.863377 0.127145 -0.215258
C14   C     C_R   0.015069 0.790138 0.110795 0.374987
C15   C     C_R   0.001003 0.743495 0.157383 0.313567
C16   C     C_R   0.890240 0.770309 0.221277 -0.191828
C17   C     C_R   0.053818 0.896716 0.749292 -0.144330
C18   C     C_R   0.116518 0.905685 0.684615 -0.079883
C19   C     C_R   0.097087 0.842445 0.619872 -0.094901
C20   C     C_R   0.015058 0.769774 0.619372 -0.136716
C21   C     C_R   0.951796 0.758595 0.684376 0.067160
C22   C     C_R   0.971263 0.823433 0.750660 0.061523
C23   C     C_R   0.866878 0.684884 0.683890 -0.174559
C24   C     C_R   0.801334 0.676013 0.749706 0.072964
C25   C     C_R   0.820762 0.740792 0.815958 0.051680
C26   C     C_R   0.905175 0.814634 0.816375 -0.164365
C27   C     C_R   0.719793 0.602717 0.751163 -0.166631
C28   C     C_R   0.658057 0.593484 0.815857 -0.156953
C29   C     C_R   0.677055 0.656644 0.881455 -0.006888
C30   C     C_R   0.758625 0.729626 0.881114 -0.132625
H6    H     H_    0.070000 0.948008 0.797964 0.103622
H7    H     H_    0.179425 0.962199 0.684721 0.161579
H8    H     H_    0.144761 0.849844 0.569646 0.146572
H9    H     H_    0.000467 0.722939 0.567375 0.107238
H10   H     H_    0.703821 0.551310 0.702456 0.116627
H11   H     H_    0.596295 0.536286 0.814440 0.157580
H12   H     H_    0.775107 0.777354 0.932441 0.152164
H13   H     H_    0.569050 0.486219 0.196835 0.169315
C31   C     C_R   0.241238 0.218384 0.373283 -0.168073
C32   C     C_R   0.207122 0.139718 0.371363 -0.129983
C33   C     C_R   0.244902 0.075275 0.308726 0.000228
C34   C     C_R   0.315192 0.090957 0.247400 -0.205536
C35   C     C_R   0.348692 0.170372 0.247503 0.057716
C36   C     C_R   0.312298 0.235395 0.312070 0.072761
C37   C     C_R   0.422058 0.185081 0.184977 -0.163973
C38   C     C_R   0.463392 0.265224 0.188098 0.052879
C39   C     C_R   0.427037 0.330130 0.252801 0.078826
C40   C     C_R   0.351509 0.315472 0.314962 -0.174113
C41   C     C_R   0.538738 0.282370 0.127354 -0.202666
C42   C     C_R   0.579424 0.361457 0.129966 0.007220
C43   C     C_R   0.540672 0.424552 0.193465 -0.131560
C44   C     C_R   0.465039 0.409361 0.253645 -0.162479
H14   H     H_    0.212212 0.265573 0.423623 0.118811
H15   H     H_    0.153322 0.129365 0.419621 0.171728
H16   H     H_    0.346563 0.040346 0.199868 0.145628
H17   H     H_    0.566908 0.234386 0.077479 0.143218
H18   H     H_    0.435638 0.460822 0.300722 0.110597
C45   C     C_R   0.529322 0.274126 0.677040 -0.124039
H19   H     H_    0.656696 0.238756 0.675931 0.173596
C46   C     C_R   0.519898 0.321068 0.631391 -0.166925
H20   H     H_    0.640782 0.321083 0.596522 0.135616
C47   C     C_R   0.354904 0.366187 0.629741 -0.062749
C48   C     C_R   0.201487 0.364797 0.676020 -0.160701
H21   H     H_    0.074026 0.400133 0.677006 0.120152
C49   C     C_R   0.213021 0.319424 0.722969 -0.049765
H22   H     H_    0.095222 0.321856 0.759732 0.143089
C50   C     C_R   0.375269 0.272089 0.722980 0.119310
C51   C     C_R   0.231365 0.172674 0.778911 0.395314
C52   C     C_R   0.245202 0.129582 0.827705 -0.205656
H23   H     H_    0.123421 0.092790 0.832552 0.147724
C53   C     C_R   0.415201 0.131525 0.868116 -0.116862
C54   C     C_R   0.572368 0.177833 0.858661 -0.096341
H24   H     H_    0.706483 0.179604 0.888011 0.161887
C55   C     C_R   0.557087 0.223661 0.812179 -0.136499
H25   H     H_    0.678958 0.260798 0.808026 0.153696
C56   C     C_R   0.386657 0.222286 0.771919 0.005159
O11   O     O_R   0.273230 0.084330 0.086440 -0.538550
O12   O     O_R   0.596660 0.069390 0.940470 -0.544246
O13   O     O_R   0.760270 0.915710 0.913690 -0.541748
C57   C     C_R   0.427419 0.083973 0.918532 0.702127
O14   O     O_R   0.603330 0.093680 0.087390 -0.542032
O15   O     O_R   0.766990 0.940160 0.061660 -0.538922
C58   C     C_R   0.434976 0.117269 0.115010 0.685211
O16   O     O_R   0.266510 0.059870 0.938470 -0.547422
O17   O     O_3   0.431050 0.949630 0.991510 -0.350644
V3    V     V_3+5 0.708490 0.009340 0.001580 1.462843
O18   O     O_R   0.096270 0.930570 0.059390 -0.513561
C59   C     C_R   0.927325 0.914301 0.079810 0.795661
O19   O     O_R   0.089600 0.906290 0.912460 -0.531908
C60   C     C_R   0.919425 0.883328 0.884982 0.698689
V4    V     V_3+5 0.207670 0.990600 0.998190 1.509531
O20   O     O_3   0.935250 0.050360 0.008480 -0.378045
C61   C     C_2   0.214756 0.991328 0.307407 0.842364
O21   O     O_2   0.144604 0.977572 0.359605 -0.516880
O22   O     O_R   0.268307 0.927505 0.246575 -0.660645
H26   H     H_    0.245898 0.873383 0.253092 0.312754
C62   C     C_2   0.662895 0.378095 0.066335 0.812727
O23   O     O_2   0.687412 0.447296 0.067383 -0.507114
O24   O     O_R   0.715210 0.314688 0.005036 -0.682956
H27   H     H_    0.771177 0.333786 0.965519 0.302106
Cl1   Cl    Cl    0.022137 0.157199 0.723854 -0.715392
Cl2   Cl    Cl    0.663012 0.883655 0.318000 -0.605778
Cl3   Cl    Cl    0.148690 0.754201 0.029985 -0.576340
Cl4   Cl    Cl    0.118699 0.650183 0.134189 -0.546451
C63   C     C_2   0.613391 0.646527 0.950601 0.909046
O25   O     O_2   0.544134 0.582526 0.950897 -0.513073
O26   O     O_R   0.632326 0.710245 0.015796 -0.645489
H28   H     H_    0.585075 0.695853 0.059154 0.343145

loop_
_geom_bond_atom_site_label_1
_geom_bond_atom_site_label_2
_ccdc_geom_bond_type
O15   V3    S    
C24   C25   A    
C18   C19   A    
C1    O6    A    
H13   C43   S    
C28   C29   A    
C11   C16   A    
O11   V4    S    
C20   C21   A    
C5    C10   A    
C4    C7    S    
C19   C20   A    
C6    C7    A    
C42   C62   S    
C9    C10   A    
O5    C3    A    
C13   C14   A    
C20   H9    S    
C52   C53   A    
C45   C50   A    
O19   C60   A    
V2    O10   S    
V4    O20   S    
C35   C37   A    
C17   C18   A    
C61   O21   D    
O18   C59   A    
O8    V2    S    
C6    H2    S    
C43   C44   A    
C18   H7    S    
O17   V4    S    
O1    V2    S    
C54   C55   A    
O7    V1    S    
C53   C57   S    
C46   H20   S    
C34   H16   S    
C50   C56   S    
C27   H10   S    
O16   V4    S    
C41   C42   A    
C38   C41   A    
C28   H11   S    
C34   C35   A    
C33   C61   S    
O9    C4    A    
O17   V3    S    
C51   C56   A    
O22   H26   S    
O12   V3    S    
C62   O23   D    
C46   C47   A    
C21   C22   A    
O15   C59   A    
C38   C39   A    
C42   C43   A    
C9    H4    S    
C48   C49   A    
C55   H25   S    
O4    C2    A    
C52   H23   S    
C22   C26   A    
C33   C34   A    
C51   C52   A    
C41   H17   S    
C17   C22   A    
C35   C36   A    
C3    C23   S    
O2    C1    A    
C45   H19   S    
C37   C38   A    
C55   C56   A    
C10   C16   S    
C14   C15   A    
O11   C58   A    
C5    H1    S    
C44   H18   S    
C26   C60   S    
C39   C44   A    
C32   H15   S    
C45   C46   A    
O3    C4    A    
C30   H12   S    
C37   C58   S    
C23   C24   A    
O13   C60   A    
O6    V2    S    
C49   C50   A    
O9    V2    S    
C13   C59   S    
C24   C27   A    
C8    C9    A    
C17   H6    S    
C31   C32   A    
C63   O26   S    
O2    V1    S    
O18   V4    S    
C19   H8    S    
C27   C28   A    
C2    C47   S    
C29   C30   A    
C12   H5    S    
O1    C2    A    
C15   Cl4   S    
C8    H3    S    
C48   H21   S    
O5    V1    S    
C62   O24   S    
O8    C3    A    
O12   C57   A    
C11   Cl2   S    
C31   H14   S    
V3    O20   S    
C39   C40   A    
C12   C13   A    
O7    V2    S    
O4    V1    S    
O3    V1    S    
V1    O10   S    
C15   C16   A    
C21   C23   A    
C32   C33   A    
C1    C40   S    
O19   V4    S    
C5    C6    A    
O24   H27   S    
C25   C30   A    
C51   Cl1   S    
O14   C58   A    
C61   O22   S    
C14   Cl3   S    
C47   C48   A    
C36   C40   A    
C53   C54   A    
C49   H22   S    
C25   C26   A    
O13   V3    S    
C11   C12   A    
C63   O25   D    
C31   C36   A    
C29   C63   S    
C54   H24   S    
C7    C8    A    
C57   O16   A    
O14   V3    S    
O26   H28   S    
