data_mof_unit_32475.cif
_audit_creation_date              2012-12-11T15:13:52-0500
_audit_creation_method            fapswitch 2.2
_symmetry_space_group_name_H-M    P1
_symmetry_Int_Tables_number       1
_space_group_crystal_system       triclinic
_cell_length_a                    6.967998
_cell_length_b                    13.686531
_cell_length_c                    20.020453
_cell_angle_alpha                 104.141581
_cell_angle_beta                  90.034173
_cell_angle_gamma                 90.569568
_cell_volume                      1851.34292047

loop_
_atom_site_label
_atom_site_type_symbol
_atom_type_description
_atom_site_fract_x
_atom_site_fract_y
_atom_site_fract_z
_atom_type_partial_charge
O1    O     O_R   0.506780 0.600060 0.449950 -0.539827
O2    O     O_R   0.179840 0.597110 0.589410 -0.527949
O3    O     O_R   0.004570 0.399940 0.550050 -0.549925
C1    C     C_R   0.348098 0.617825 0.617023 0.773356
O4    O     O_R   0.177380 0.612160 0.452890 -0.538506
O5    O     O_R   0.002100 0.415100 0.412560 -0.545655
C2    C     C_R   0.346342 0.636528 0.435092 0.717748
O6    O     O_R   0.509250 0.584900 0.587440 -0.539992
O7    O     O_3   0.337570 0.435330 0.486930 -0.376852
V1    V     V_3+5 0.064650 0.512000 0.502430 1.509672
O8    O     O_R   0.672090 0.402890 0.410590 -0.539097
C3    C     C_R   0.840063 0.383855 0.382215 0.718110
O9    O     O_R   0.674540 0.387840 0.547110 -0.534359
C4    C     C_R   0.842592 0.363215 0.565035 0.706594
V2    V     V_3+5 0.564040 0.488000 0.497570 1.509972
O10   O     O_3   0.840990 0.564670 0.513070 -0.364202
C5    C     C_R   0.787242 0.114936 0.609502 -0.136628
H1    H     H_    0.770778 0.167129 0.517310 0.154260
H2    H     H_    0.794555 0.988528 0.690171 0.183011
H3    H     H_    0.760123 0.037283 0.582263 0.147784
C6    C     C_R   0.846788 0.287469 0.605379 -0.143624
C7    C     C_R   0.858914 0.317730 0.935174 -0.266560
C8    C     C_R   0.818739 0.393538 0.902030 0.296526
C9    C     C_R   0.788441 0.369528 0.830420 0.324744
C10   C     C_R   0.827081 0.270401 0.790466 -0.016908
C11   C     C_R   0.843963 0.192286 0.825740 -0.013397
C12   C     C_R   0.834666 0.244212 0.716849 0.084766
C13   C     C_R   0.808913 0.141801 0.681200 0.043973
C14   C     C_R   0.809734 0.066776 0.717264 -0.098851
C15   C     C_R   0.836745 0.091008 0.788055 -0.079581
C16   C     C_R   0.879991 0.314607 0.677561 0.357319
C17   C     C_R   0.796840 0.188282 0.572377 -0.185851
C18   C     C_R   0.860653 0.217085 0.898253 -0.115346
H4    H     H_    0.875413 0.336703 0.990712 0.158084
H5    H     H_    0.844668 0.029504 0.813182 0.152281
C19   C     C_3   0.842999 0.160091 0.253645 0.344731
C20   C     C_3   0.001913 0.235363 0.287333 -0.131610
H6    H     H_    0.119075 0.224315 0.321762 0.187599
C21   C     C_3   0.848227 0.316299 0.310596 -0.094708
C22   C     C_3   0.688722 0.241333 0.277586 -0.129276
C23   C     C_3   0.713367 0.274793 0.209423 -0.147734
C24   C     C_3   0.872884 0.350820 0.243370 -0.083162
C25   C     C_3   0.026181 0.268446 0.219144 -0.170302
C26   C     C_3   0.866416 0.193025 0.186154 -0.095265
H7    H     H_    0.548301 0.235621 0.301993 0.181999
H8    H     H_    0.594194 0.289952 0.176675 0.165923
H9    H     H_    0.886859 0.430241 0.239858 0.172969
H10   H     H_    0.165588 0.279185 0.194924 0.151856
C27   C     C_3   0.533280 0.742014 0.723899 -0.137245
C28   C     C_3   0.412430 0.837899 0.746711 0.306216
H11   H     H_    0.678227 0.737990 0.700558 0.203523
C29   C     C_3   0.355186 0.809240 0.813251 -0.146048
C30   C     C_3   0.472407 0.711566 0.791107 -0.096216
C31   C     C_3   0.292922 0.655754 0.753854 -0.162551
C32   C     C_3   0.176918 0.754046 0.776573 0.252742
C33   C     C_3   0.234117 0.784045 0.709794 0.193285
C34   C     C_3   0.353239 0.687129 0.687614 -0.187205
H12   H     H_    0.562182 0.680878 0.826679 0.240832
H13   H     H_    0.242699 0.579525 0.756366 0.204822
C35   C     C_R   0.404829 0.885338 0.392993 -0.082772
H14   H     H_    0.416486 0.833499 0.485506 0.131642
H15   H     H_    0.427449 0.962365 0.421761 0.174887
C36   C     C_R   0.357965 0.712824 0.396122 -0.045071
C37   C     C_R   0.356526 0.682212 0.064312 0.363975
C38   C     C_R   0.379875 0.605808 0.098839 -0.166365
C39   C     C_R   0.398432 0.627747 0.170424 0.239523
C40   C     C_R   0.372644 0.728357 0.210851 0.028429
C41   C     C_R   0.361085 0.806679 0.175236 -0.094219
C42   C     C_R   0.367771 0.755695 0.284689 0.071253
C43   C     C_R   0.384013 0.858869 0.320694 0.077001
C44   C     C_R   0.373019 0.933766 0.284344 0.329655
C45   C     C_R   0.357863 0.907953 0.213010 -0.110618
C46   C     C_R   0.335694 0.685320 0.324567 -0.146216
C47   C     C_R   0.397683 0.812164 0.430066 -0.166276
C48   C     C_R   0.356712 0.782759 0.102191 -0.095450
H16   H     H_    0.285446 0.609935 0.301641 0.155012
H17   H     H_    0.395653 0.528658 0.069299 0.169506
H18   H     H_    0.346228 0.968733 0.187368 0.138166
O11   O     O_R   0.203580 0.914920 0.912610 -0.524830
O12   O     O_R   0.535710 0.887810 0.047120 -0.532093
O13   O     O_R   0.710730 0.084950 0.087430 -0.546844
C49   C     C_R   0.366437 0.861950 0.064173 0.774933
O14   O     O_R   0.533010 0.902850 0.910600 -0.526559
O15   O     O_R   0.708010 0.100090 0.949930 -0.543412
C50   C     C_R   0.363996 0.880532 0.883407 0.815566
O16   O     O_R   0.206300 0.899780 0.050100 -0.535632
O17   O     O_3   0.375170 0.064580 0.013100 -0.395778
V3    V     V_3+5 0.648200 0.988020 0.997570 1.570155
O18   O     O_R   0.038030 0.112330 0.952840 -0.545939
C51   C     C_R   0.869592 0.139045 0.936788 0.703351
O19   O     O_R   0.040730 0.097300 0.089360 -0.549466
C52   C     C_R   0.872696 0.120687 0.116215 0.717360
V4    V     V_3+5 0.148780 0.012220 0.002360 1.529654
O20   O     O_3   0.871930 0.935430 0.986900 -0.343368
Br1   Br    Br    0.838487 0.021119 0.259896 -0.533997
O21   O     O_3   0.471604 0.934719 0.744375 -0.637440
H19   H     H_    0.466676 0.935419 0.695026 0.308790
Br2   Br    Br    0.931227 0.761277 0.820759 -0.493161
Br3   Br    Br    0.068517 0.834944 0.648696 -0.608123
Br4   Br    Br    0.362141 0.073263 0.330875 -0.614974
O22   O     O_3   0.344000 0.660913 0.993273 -0.613897
H20   H     H_    0.342983 0.586797 0.974528 0.338029
Br5   Br    Br    0.505516 0.518838 0.203195 -0.652155
O23   O     O_3   0.969278 0.404478 0.710166 -0.620801
H21   H     H_    0.001806 0.444474 0.676768 0.296572
Br6   Br    Br    0.634842 0.461685 0.794196 -0.496320
Br7   Br    Br    0.794261 0.528583 0.957608 -0.461946

loop_
_geom_bond_atom_site_label_1
_geom_bond_atom_site_label_2
_ccdc_geom_bond_type
C32   C33   S    
V4    O20   S    
C23   C24   S    
C1    O6    A    
C30   C31   S    
C41   C48   A    
C6    C16   A    
C20   H6    S    
C15   H5    S    
C4    C6    S    
C19   C20   S    
O11   V4    S    
O5    C3    A    
V2    O10   S    
C5    H3    S    
C27   C34   S    
C33   C34   S    
C35   H15   S    
C45   H18   S    
O13   C52   A    
O8    V2    S    
C27   H11   S    
C1    C34   S    
C28   C29   S    
C23   H8    S    
C42   C46   A    
C43   C44   A    
O1    V2    S    
C25   H10   S    
C26   C52   S    
C29   C32   S    
C41   C45   A    
O14   V3    S    
O9    C4    A    
C37   O22   S    
O15   C51   A    
O23   H21   S    
C21   C24   S    
C31   H13   S    
C22   H7    S    
C7    H4    S    
C6    C17   A    
V3    O20   S    
C38   H17   S    
C12   C16   A    
C40   C41   A    
O22   H20   S    
C19   C22   S    
C9    C10   A    
O12   C49   A    
C21   C22   S    
O4    C2    A    
C36   C46   A    
C10   C11   A    
C49   O16   A    
C28   C33   S    
C40   C42   A    
C20   C25   S    
O2    C1    A    
C25   C26   S    
C14   C15   A    
O16   V4    S    
O19   V4    S    
C11   C18   A    
C35   C43   A    
C8    C9    A    
C8    Br7   S    
O21   H19   S    
C2    C36   S    
O3    C4    A    
C22   C23   S    
O14   C50   A    
C29   C50   S    
C11   C15   A    
O6    V2    S    
O9    V2    S    
C23   C26   S    
C19   C26   S    
C9    Br6   S    
C24   C25   S    
O2    V1    S    
O11   C50   A    
C29   C30   S    
O7    V1    S    
C7    C18   A    
C31   C32   S    
C13   C14   A    
O1    C2    A    
C5    C13   A    
C39   Br5   S    
O15   V3    S    
O5    V1    S    
C30   H12   S    
C48   C49   S    
C36   C47   A    
H14   C47   S    
C10   C12   A    
C44   Br4   S    
C37   C38   A    
C3    C21   S    
O7    V2    S    
O4    V1    S    
O12   V3    S    
O3    V1    S    
V1    O10   S    
C18   C51   S    
C16   O23   S    
C19   Br1   S    
C28   O21   S    
C27   C30   S    
O17   V4    S    
C32   Br2   S    
C35   C47   A    
C46   H16   S    
C37   C48   A    
C39   C40   A    
C24   H9    S    
C38   C39   A    
O18   V4    S    
C42   C43   A    
O13   V3    S    
C44   C45   A    
H1    C17   S    
O17   V3    S    
C20   C21   S    
C27   C28   S    
C12   C13   A    
C5    C17   A    
C7    C8    A    
C33   Br3   S    
O18   C51   A    
O19   C52   A    
O8    C3    A    
C31   C34   S    
H2    C14   S    
