data_mof_unit_16006.cif
_audit_creation_date              2012-12-11T14:52:41-0500
_audit_creation_method            fapswitch 2.2
_symmetry_space_group_name_H-M    P1
_symmetry_Int_Tables_number       1
_space_group_crystal_system       triclinic
_cell_length_a                    20.634848
_cell_length_b                    7.257098
_cell_length_c                    20.22965
_cell_angle_alpha                 90.007042
_cell_angle_beta                  101.66057
_cell_angle_gamma                 90.002624
_cell_volume                      2966.8523588

loop_
_atom_site_label
_atom_site_type_symbol
_atom_type_description
_atom_site_fract_x
_atom_site_fract_y
_atom_site_fract_z
_atom_type_partial_charge
O1    O     O_R   0.673670 0.377510 0.185950 -0.534681
O2    O     O_R   0.326330 0.622490 0.814050 -0.534664
O3    O     O_R   0.826330 0.877510 0.314050 -0.534619
O4    O     O_R   0.173670 0.122490 0.685950 -0.535003
O5    O     O_R   0.806260 0.705340 0.185590 -0.541289
O6    O     O_R   0.193740 0.294660 0.814410 -0.540636
O7    O     O_R   0.693740 0.205340 0.314410 -0.541361
O8    O     O_R   0.306260 0.794660 0.685590 -0.539943
C1    C     C_R   0.825648 0.538738 0.170838 0.751712
C2    C     C_R   0.174366 0.461265 0.829170 0.759277
C3    C     C_R   0.674365 0.038744 0.329177 0.751195
C4    C     C_R   0.325653 0.961258 0.670850 0.759475
O9    O     O_R   0.672940 0.707120 0.178050 -0.515219
O10   O     O_R   0.327060 0.292880 0.821950 -0.513176
O11   O     O_R   0.827060 0.207120 0.321950 -0.515379
O12   O     O_R   0.172940 0.792880 0.678050 -0.512943
O13   O     O_R   0.692060 0.879040 0.306460 -0.509917
O14   O     O_R   0.307940 0.120960 0.693540 -0.516989
O15   O     O_R   0.807940 0.379040 0.193540 -0.509857
O16   O     O_R   0.192060 0.620960 0.806460 -0.517070
C5    C     C_R   0.648270 0.539633 0.161682 0.759398
C6    C     C_R   0.351735 0.460369 0.838304 0.761369
C7    C     C_R   0.851746 0.039659 0.338297 0.759450
C8    C     C_R   0.148264 0.960355 0.661690 0.758285
O17   O     O_3   0.756430 0.544390 0.292140 -0.376755
O18   O     O_3   0.243570 0.455610 0.707860 -0.379271
O19   O     O_3   0.743570 0.044390 0.207860 -0.376616
O20   O     O_3   0.256430 0.955610 0.792140 -0.379087
V1    V     V_3+5 0.748810 0.818610 0.242180 1.657494
V2    V     V_3+5 0.251190 0.181390 0.757820 1.624163
V3    V     V_3+5 0.751190 0.318610 0.257820 1.657217
V4    V     V_3+5 0.248810 0.681390 0.742180 1.626196
C9    C     C_R   0.085755 0.962846 0.609689 -0.157338
C10   C     C_R   0.914282 0.037219 0.390268 -0.177314
C11   C     C_R   0.414265 0.462885 0.890269 -0.176155
C12   C     C_R   0.585749 0.537140 0.109694 -0.176293
C13   C     C_R   0.024217 0.160392 0.438044 -0.183031
C14   C     C_R   0.975847 0.839629 0.561875 -0.213298
C15   C     C_R   0.475778 0.660074 0.061982 -0.180186
C16   C     C_R   0.524249 0.340006 0.937953 -0.183171
C17   C     C_R   0.969043 0.150581 0.384452 0.452533
C18   C     C_R   0.030965 0.849657 0.615514 0.400977
C19   C     C_R   0.530950 0.650261 0.115569 0.451989
C20   C     C_R   0.469078 0.349870 0.884360 0.453845
C21   C     C_R   0.917769 0.931167 0.449130 -0.222853
C22   C     C_R   0.082316 0.068747 0.550793 -0.215703
C23   C     C_R   0.582311 0.431348 0.050763 -0.218439
C24   C     C_R   0.417701 0.568640 0.949203 -0.220619
C25   C     C_R   0.973341 0.941767 0.502631 0.094114
C26   C     C_R   0.026746 0.058164 0.497279 0.076280
C27   C     C_R   0.526734 0.441937 0.997261 0.074510
C28   C     C_R   0.473286 0.558079 0.002692 0.075728
H1    H     H_    0.123930 0.155187 0.545806 0.144890
H2    H     H_    0.876171 0.844664 0.454116 0.150423
H3    H     H_    0.376063 0.654912 0.954245 0.146864
H4    H     H_    0.623943 0.345042 0.045732 0.151088
H5    H     H_    0.065475 0.248640 0.433615 0.188970
H6    H     H_    0.934584 0.751404 0.566310 0.178250
H7    H     H_    0.434488 0.748135 0.066460 0.188239
H8    H     H_    0.565546 0.251992 0.933458 0.188900
C29   C     C_3   0.524647 0.173649 0.501963 -0.180165
C30   C     C_3   0.475257 0.828300 0.498020 -0.199021
C31   C     C_3   0.975478 0.673556 0.998189 -0.186038
C32   C     C_3   0.024902 0.328261 0.002143 -0.201636
C33   C     C_3   0.531334 0.041252 0.563591 -0.236347
C34   C     C_3   0.468554 0.960662 0.436409 -0.181172
C35   C     C_3   0.968804 0.541107 0.936568 -0.223307
C36   C     C_3   0.031587 0.460675 0.063753 -0.179489
H9    H     H_    0.557455 0.072162 0.615965 0.191656
H10   H     H_    0.442433 0.929672 0.384042 0.200933
H11   H     H_    0.942672 0.571969 0.884199 0.208120
H12   H     H_    0.057706 0.429750 0.116122 0.200931
H13   H     H_    0.543899 0.316473 0.502969 0.234048
H14   H     H_    0.456166 0.685359 0.496864 0.237768
H15   H     H_    0.956211 0.816358 0.997182 0.234830
H16   H     H_    0.044007 0.185341 0.003304 0.238139
C37   C     C_1   0.371492 0.969417 0.625273 -0.097050
C38   C     C_1   0.628541 0.030703 0.374793 -0.055048
C39   C     C_1   0.128583 0.469429 0.874807 -0.085656
C40   C     C_1   0.871517 0.530676 0.125273 -0.054506
C41   C     C_3   0.451067 0.118945 0.480778 0.455516
C42   C     C_3   0.548794 0.882986 0.519228 0.434225
C43   C     C_3   0.049063 0.618943 0.019379 0.453576
C44   C     C_3   0.951359 0.382855 0.980931 0.430526
C45   C     C_3   0.457551 0.988648 0.541454 -0.055055
C46   C     C_3   0.542351 0.013162 0.458547 -0.043061
C47   C     C_3   0.042593 0.488597 0.958706 -0.057563
C48   C     C_3   0.957785 0.513086 0.041606 -0.043255
C49   C     C_1   0.410220 0.977119 0.587466 0.088928
C50   C     C_1   0.589787 0.023596 0.412594 0.145759
C51   C     C_1   0.089897 0.477105 0.912662 0.103354
C52   C     C_1   0.910313 0.523544 0.087518 0.146676
S1    S     S_3+6 0.028377 0.721159 0.689460 0.018240
O21   O     O_2   0.064813 0.542840 0.686993 -0.318230
O22   O     O_2   0.060470 0.826735 0.751416 -0.347892
O23   O     O_3   0.949675 0.673150 0.694097 -0.468997
H17   H     H_    0.929646 0.794101 0.700696 0.357648
S2    S     S_3+6 0.971459 0.279678 0.310620 0.013963
O24   O     O_2   0.939927 0.172378 0.248890 -0.336893
O25   O     O_2   0.934497 0.457199 0.313042 -0.348455
O26   O     O_3   0.050262 0.327956 0.306451 -0.471701
H18   H     H_    0.047154 0.400075 0.264345 0.384064
S3    S     S_3+6 0.471552 0.221302 0.810408 0.002553
O27   O     O_2   0.434726 0.043491 0.812707 -0.346719
O28   O     O_2   0.439913 0.328773 0.748771 -0.347538
O29   O     O_3   0.550380 0.173644 0.806159 -0.480067
H19   H     H_    0.547307 0.101914 0.763963 0.375154
S4    S     S_3+6 0.528495 0.779084 0.189464 0.013624
O30   O     O_2   0.560078 0.671707 0.251144 -0.336834
O31   O     O_2   0.565385 0.956767 0.187116 -0.348590
O32   O     O_3   0.449676 0.827018 0.193666 -0.471830
H20   H     H_    0.452761 0.899040 0.235798 0.384130
S5    S     S_3+6 0.614425 0.723038 0.545449 0.052508
O33   O     O_2   0.622975 0.607818 0.486101 -0.309886
O34   O     O_2   0.677561 0.825416 0.572256 -0.291136
O35   O     O_3   0.596278 0.585203 0.605982 -0.466950
H21   H     H_    0.585512 0.670225 0.640531 0.348152
S6    S     S_3+6 0.385245 0.278381 0.454623 0.061839
O36   O     O_2   0.400327 0.395665 0.398425 -0.273326
O37   O     O_2   0.321851 0.175177 0.429758 -0.291403
O38   O     O_3   0.377118 0.414350 0.519787 -0.497368
H22   H     H_    0.352513 0.339341 0.547388 0.340450
S7    S     S_3+6 0.885747 0.222801 0.954722 0.056844
O39   O     O_2   0.877177 0.107739 0.014092 -0.309675
O40   O     O_2   0.822610 0.325076 0.927858 -0.285948
O41   O     O_3   0.903934 0.084801 0.894243 -0.468840
H23   H     H_    0.914694 0.169725 0.859668 0.350270
S8    S     S_3+6 0.114872 0.778450 0.045536 0.061174
O42   O     O_2   0.099764 0.895822 0.101708 -0.273026
O43   O     O_2   0.178267 0.675312 0.070438 -0.292105
O44   O     O_3   0.123019 0.914311 0.980361 -0.497546
H24   H     H_    0.147667 0.839296 0.952800 0.339769

loop_
_geom_bond_atom_site_label_1
_geom_bond_atom_site_label_2
_ccdc_geom_bond_type
O17   V3    S    
C24   H3    S    
C43   C47   S    
O18   V4    S    
S1    O21   D    
C16   H8    S    
C47   C51   S    
C31   C48   S    
O19   V1    S    
C18   S1    S    
O13   V1    S    
O3    C7    A    
O32   H20   S    
C43   S8    S    
O15   V3    S    
S8    O42   D    
S6    O37   D    
S7    O39   D    
C5    C12   S    
C38   C50   T    
C44   S7    S    
O1    C5    A    
C6    C11   S    
C37   C49   T    
O41   H23   S    
C9    C18   A    
C32   C36   S    
O9    V1    S    
C34   C46   S    
C14   C18   A    
O4    C8    A    
S7    O40   D    
O29   H19   S    
O1    V3    S    
S4    O30   D    
C12   C23   A    
O2    V4    S    
O3    V1    S    
S6    O36   D    
C32   C44   S    
C14   H6    S    
C1    O15   A    
C48   C52   S    
C2    O16   A    
O2    C6    A    
O14   V2    S    
C32   C47   S    
C39   C51   T    
C36   H12   S    
S5    O35   S    
O11   C7    A    
C15   C28   A    
C30   C42   S    
C35   C44   S    
O12   C8    A    
O23   H17   S    
C9    C22   A    
C10   C17   A    
O10   V2    S    
C11   C24   A    
C20   S3    S    
O5    V1    S    
C30   C45   S    
C31   C35   S    
O7    V3    S    
C30   C34   S    
C27   C28   A    
O8    V4    S    
O26   H18   S    
C46   C50   S    
C14   C25   A    
C45   C49   S    
S7    O41   S    
C15   C19   A    
C29   H13   S    
C42   C46   S    
C41   S6    S    
O4    V2    S    
C31   C43   S    
C1    C40   S    
C40   C52   T    
O7    C3    A    
O5    C1    A    
C3    C38   S    
C21   C25   A    
O8    C4    A    
C7    C10   S    
C15   H7    S    
C4    C37   S    
C32   H16   S    
O9    C5    A    
S3    O28   D    
C10   C21   A    
O11   V3    S    
C11   C20   A    
O38   H22   S    
O6    V2    S    
C16   C20   A    
C21   H2    S    
S2    O24   D    
S1    O23   S    
S2    O25   D    
C36   C48   S    
O44   H24   S    
S2    O26   S    
S8    O44   S    
S5    O33   D    
O16   V4    S    
C3    O13   A    
C36   C43   S    
C44   C48   S    
C42   S5    S    
S8    O43   D    
O6    C2    A    
C23   C27   A    
C2    C39   S    
C33   C45   S    
O12   V4    S    
C16   C27   A    
C22   C26   A    
C35   C47   S    
C8    C9    S    
S4    O32   S    
O10   C6    A    
O20   V2    S    
C29   C41   S    
C34   C41   S    
C13   C26   A    
C33   C42   S    
C34   H10   S    
C31   H15   S    
C33   H9    S    
C22   H1    S    
S4    O31   D    
O35   H21   S    
S3    O29   S    
C35   H11   S    
C19   S4    S    
C13   C17   A    
C41   C45   S    
C29   C46   S    
C29   C33   S    
C24   C28   A    
S1    O22   D    
C25   C26   A    
C4    O14   A    
S3    O27   D    
C17   S2    S    
C30   H14   S    
C12   C19   A    
S6    O38   S    
C13   H5    S    
C23   H4    S    
S5    O34   D    
