data_mof_unit_56482.cif
_audit_creation_date              2012-12-10T19:55:55-0500
_audit_creation_method            fapswitch 2.2
_symmetry_space_group_name_H-M    P1
_symmetry_Int_Tables_number       1
_space_group_crystal_system       triclinic
_cell_length_a                    15.037144
_cell_length_b                    14.191593
_cell_length_c                    19.09817
_cell_angle_alpha                 89.930762
_cell_angle_beta                  90.907268
_cell_angle_gamma                 90.06842
_cell_volume                      4075.05236654

loop_
_atom_site_label
_atom_site_type_symbol
_atom_type_description
_atom_site_fract_x
_atom_site_fract_y
_atom_site_fract_z
_atom_type_partial_charge
C1    C     C_R   0.327736 0.499873 0.500119 0.934841
C2    C     C_R   0.458984 0.894698 0.445436 -0.395168
C3    C     C_R   0.433212 0.205515 0.465094 0.554619
C4    C     C_R   0.539632 0.795014 0.554361 0.540724
C5    C     C_R   0.566923 0.205320 0.534567 0.554372
C6    C     C_R   0.460425 0.794967 0.445526 0.541207
C7    C     C_R   0.499892 0.053581 0.499823 0.099985
C8    C     C_R   0.499868 0.946596 0.499868 0.094724
C9    C     C_R   0.501669 0.500399 0.365778 0.939345
C10   C     C_R   0.498792 0.500252 0.634300 0.935958
C11   C     C_R   0.575086 0.551375 0.257355 0.008909
C12   C     C_R   0.672313 0.500019 0.499685 0.932396
C13   C     C_R   0.571899 0.462504 0.747464 0.023147
C14   C     C_R   0.431580 0.552368 0.745007 0.014365
C15   C     C_R   0.432007 0.466562 0.250824 0.029460
C16   C     C_R   0.575831 0.556052 0.184109 0.440436
C17   C     C_R   0.577365 0.474339 0.820090 0.438303
C18   C     C_R   0.435060 0.558046 0.818241 0.433490
C19   C     C_R   0.428319 0.482612 0.178586 0.463531
C20   C     C_R   0.502153 0.522919 0.145641 -0.242339
C21   C     C_R   0.508376 0.520197 0.854729 -0.230053
C22   C     C_R   0.504309 0.503344 0.290090 -0.201057
C23   C     C_R   0.231362 0.499288 0.500056 -0.207237
C24   C     C_R   0.499433 0.502609 0.710161 -0.194159
C25   C     C_R   0.509778 0.522040 0.930122 0.365904
C26   C     C_R   0.505137 0.523388 0.070248 0.353880
C27   C     C_R   0.091640 0.567769 0.461116 0.471626
C28   C     C_R   0.906144 0.426786 0.462570 0.457145
C29   C     C_R   0.909089 0.569678 0.535423 0.471777
C30   C     C_R   0.093479 0.427633 0.537172 0.458158
C31   C     C_R   0.184103 0.568439 0.460630 -0.015634
C32   C     C_R   0.813563 0.428535 0.460896 0.014633
C33   C     C_R   0.816605 0.570501 0.536417 -0.016137
C34   C     C_R   0.768754 0.499852 0.498861 -0.208402
C35   C     C_R   0.186090 0.428972 0.538890 0.012793
C36   C     C_3   0.649779 0.596173 0.300118 -0.847917
C37   C     C_3   0.643680 0.408806 0.709911 -0.811221
C38   C     C_3   0.355445 0.597962 0.704394 -0.847144
C39   C     C_3   0.358190 0.412825 0.286144 -0.820702
C40   C     C_3   0.712280 0.527462 0.138894 0.073664
C41   C     C_3   0.791148 0.572733 0.102152 -0.311903
C42   C     C_3   0.869662 0.505003 0.097858 -0.981178
C43   C     C_3   0.715642 0.506007 0.863864 0.062211
C44   C     C_3   0.798915 0.460665 0.895890 -0.306752
C45   C     C_R   0.047769 0.497458 0.499042 -0.145311
C46   C     C_3   0.876082 0.530440 0.900393 -0.986504
C47   C     C_3   0.301758 0.540290 0.871799 0.072379
C48   C     C_3   0.227408 0.593219 0.908574 -0.312047
C49   C     C_3   0.150056 0.527979 0.925969 -0.995655
C50   C     C_3   0.302075 0.533439 0.120537 0.095839
C51   C     C_3   0.241910 0.564644 0.180441 -0.385954
C52   C     C_3   0.181033 0.645296 0.157642 -0.964248
C53   C     C_3   0.012659 0.614450 0.363238 0.046399
C54   C     C_3   0.982611 0.702021 0.322868 -0.291670
C55   C     C_3   0.937550 0.675483 0.253426 -0.995940
C56   C     C_R   0.952390 0.497739 0.499069 -0.144663
C57   C     C_3   0.984684 0.371204 0.369028 0.056227
C58   C     C_3   0.018726 0.280862 0.335668 -0.303950
C59   C     C_3   0.064917 0.301011 0.266616 -0.983063
C60   C     C_3   0.987998 0.620368 0.632220 0.046786
C61   C     C_3   0.019323 0.709507 0.669966 -0.291194
C62   C     C_3   0.058443 0.686542 0.742282 -0.986796
C63   C     C_3   0.014972 0.376354 0.632191 0.055429
C64   C     C_3   0.978778 0.288008 0.667335 -0.296176
C65   C     C_3   0.933660 0.311491 0.736218 -0.997124
C66   C     C_3   0.230933 0.642251 0.417058 -0.730044
C67   C     C_R   0.433053 0.105230 0.464979 -0.412540
C68   C     C_3   0.764092 0.355736 0.416805 -0.799176
C69   C     C_3   0.770433 0.645952 0.578664 -0.730467
C70   C     C_3   0.235220 0.356825 0.583784 -0.798082
C71   C     C_3   0.288423 0.215396 0.414616 0.054371
C72   C     C_3   0.286283 0.168424 0.342010 -0.372629
C73   C     C_3   0.219829 0.087110 0.338328 -0.949117
C74   C     C_3   0.564962 0.770701 0.673965 0.082509
C75   C     C_3   0.648746 0.807154 0.711534 -0.383968
C76   C     C_3   0.630632 0.829839 0.788061 -0.927683
C77   C     C_3   0.712570 0.215059 0.583416 0.053280
C78   C     C_R   0.540861 0.894765 0.554341 -0.396334
C79   C     C_3   0.716680 0.167561 0.655877 -0.374575
C80   C     C_3   0.783568 0.086740 0.658294 -0.948529
C81   C     C_3   0.436697 0.769951 0.325898 0.078950
C82   C     C_3   0.353632 0.805751 0.287023 -0.377904
C83   C     C_3   0.372706 0.825382 0.210148 -0.930608
C84   C     C_R   0.566874 0.105099 0.534598 -0.411539
H1    H     H_    0.380888 0.067033 0.438354 0.168905
H2    H     H_    0.698993 0.385943 0.744974 0.245683
H3    H     H_    0.730817 0.166667 0.540043 0.137632
H4    H     H_    0.735927 0.220584 0.696113 0.222452
H5    H     H_    0.650288 0.139577 0.670006 0.234215
H6    H     H_    0.762834 0.030029 0.621465 0.258186
H7    H     H_    0.786868 0.056829 0.712024 0.267415
H8    H     H_    0.850733 0.112001 0.644141 0.267785
H9    H     H_    0.460158 0.705912 0.298596 0.183983
H10   H     H_    0.491782 0.822419 0.322330 0.120036
H11   H     H_    0.300079 0.751941 0.290064 0.232301
H12   H     H_    0.329583 0.871375 0.312028 0.220286
H13   H     H_    0.321377 0.544705 0.670988 0.209609
H14   H     H_    0.425908 0.879299 0.205547 0.270524
H15   H     H_    0.311560 0.852249 0.183644 0.263571
H16   H     H_    0.393715 0.759636 0.183543 0.265881
H17   H     H_    0.304780 0.629737 0.738611 0.261885
H18   H     H_    0.380801 0.655654 0.670944 0.248168
H19   H     H_    0.386446 0.348572 0.310651 0.283314
H20   H     H_    0.326973 0.457157 0.326784 0.211173
H21   H     H_    0.305150 0.389273 0.249205 0.254664
H22   H     H_    0.685762 0.469468 0.105225 0.144352
H23   H     H_    0.735963 0.497194 0.189740 0.145584
H24   H     H_    0.770267 0.594385 0.048413 0.225919
H25   H     H_    0.573181 0.930850 0.597428 0.158780
H26   H     H_    0.812640 0.636727 0.131341 0.237113
H27   H     H_    0.893936 0.485952 0.151268 0.263207
H28   H     H_    0.924827 0.539334 0.069418 0.271298
H29   H     H_    0.849849 0.439889 0.069442 0.268378
H30   H     H_    0.693898 0.564475 0.898462 0.147501
H31   H     H_    0.732828 0.535456 0.811562 0.139412
H32   H     H_    0.783799 0.434449 0.949236 0.230632
H33   H     H_    0.818945 0.399669 0.863265 0.229366
H34   H     H_    0.894220 0.554718 0.847177 0.261369
H35   H     H_    0.934821 0.495556 0.924953 0.273876
H36   H     H_    0.619122 0.066881 0.561065 0.168891
H37   H     H_    0.857815 0.592257 0.932711 0.269838
H38   H     H_    0.328100 0.484929 0.907908 0.149564
H39   H     H_    0.273439 0.505850 0.823961 0.143190
H40   H     H_    0.254148 0.624936 0.957792 0.223572
H41   H     H_    0.202560 0.650945 0.874088 0.233408
H42   H     H_    0.119969 0.498552 0.877176 0.269295
H43   H     H_    0.098329 0.568297 0.953962 0.268848
H44   H     H_    0.173213 0.469301 0.960174 0.268040
H45   H     H_    0.259239 0.512455 0.075283 0.175492
H46   H     H_    0.342753 0.594134 0.102355 0.129466
H47   H     H_    0.426611 0.930673 0.402281 0.158621
H48   H     H_    0.200393 0.504326 0.197644 0.229752
H49   H     H_    0.283372 0.588896 0.225590 0.222203
H50   H     H_    0.220807 0.705468 0.137979 0.272570
H51   H     H_    0.142234 0.669694 0.203120 0.267082
H52   H     H_    0.134174 0.621355 0.115748 0.269026
H53   H     H_    0.954134 0.567536 0.368475 0.134380
H54   H     H_    0.064977 0.578354 0.332339 0.118310
H55   H     H_    0.934832 0.742564 0.354855 0.242265
H56   H     H_    0.041174 0.747553 0.312555 0.211094
H57   H     H_    0.983304 0.633679 0.220645 0.272470
H58   H     H_    0.681973 0.542602 0.334329 0.210145
H59   H     H_    0.918446 0.740413 0.224440 0.271536
H60   H     H_    0.876590 0.633376 0.262967 0.265445
H61   H     H_    0.041876 0.420082 0.374116 0.127401
H62   H     H_    0.932698 0.402628 0.333887 0.118804
H63   H     H_    0.066799 0.246716 0.372375 0.231826
H64   H     H_    0.962197 0.231744 0.326173 0.217994
H65   H     H_    0.018067 0.335370 0.228994 0.267293
H66   H     H_    0.088278 0.233848 0.243541 0.276355
H67   H     H_    0.123403 0.347668 0.275552 0.257710
H68   H     H_    0.045822 0.572296 0.628701 0.131615
H69   H     H_    0.702035 0.628066 0.267354 0.261997
H70   H     H_    0.934924 0.586717 0.663939 0.117337
H71   H     H_    0.070916 0.745176 0.638337 0.238407
H72   H     H_    0.962262 0.758450 0.675787 0.215260
H73   H     H_    0.007682 0.651991 0.775267 0.265651
H74   H     H_    0.080535 0.752556 0.768433 0.270009
H75   H     H_    0.116740 0.639045 0.737555 0.263252
H76   H     H_    0.958947 0.426443 0.626287 0.126991
H77   H     H_    0.067826 0.407582 0.666619 0.120746
H78   H     H_    0.929467 0.254185 0.631498 0.231413
H79   H     H_    0.034016 0.237588 0.677459 0.217973
H80   H     H_    0.623383 0.653874 0.332883 0.249012
H81   H     H_    0.981722 0.345359 0.773133 0.269861
H82   H     H_    0.908389 0.245756 0.760468 0.274375
H83   H     H_    0.876578 0.359755 0.726728 0.259573
H84   H     H_    0.262298 0.695407 0.452113 0.278120
H85   H     H_    0.281574 0.608487 0.383702 0.227466
H86   H     H_    0.185675 0.681113 0.381006 0.230958
H87   H     H_    0.713614 0.390544 0.382644 0.213839
H88   H     H_    0.807990 0.315661 0.381624 0.242859
H89   H     H_    0.731419 0.303365 0.450866 0.257312
H90   H     H_    0.737679 0.697171 0.542748 0.276455
H91   H     H_    0.613963 0.344360 0.686902 0.287376
H92   H     H_    0.721087 0.613145 0.613842 0.230476
H93   H     H_    0.816268 0.687150 0.612734 0.230505
H94   H     H_    0.285510 0.392264 0.617806 0.213338
H95   H     H_    0.191063 0.317079 0.619117 0.244137
H96   H     H_    0.268030 0.304103 0.550186 0.257171
H97   H     H_    0.236517 0.271074 0.414553 0.170530
H98   H     H_    0.269160 0.166681 0.457617 0.137125
H99   H     H_    0.267866 0.221650 0.301623 0.222073
H100  H     H_    0.353151 0.141017 0.328853 0.233875
H101  H     H_    0.239716 0.030356 0.375456 0.258021
H102  H     H_    0.672643 0.453016 0.668011 0.213865
H103  H     H_    0.218224 0.057447 0.284548 0.267705
H104  H     H_    0.152148 0.111793 0.351252 0.268459
H105  H     H_    0.542198 0.706873 0.702062 0.183994
H106  H     H_    0.509806 0.822889 0.677796 0.120563
H107  H     H_    0.701644 0.752639 0.709348 0.226067
H108  H     H_    0.673286 0.871570 0.684955 0.221659
H109  H     H_    0.578810 0.885255 0.791719 0.270701
H110  H     H_    0.692587 0.855967 0.813838 0.263983
H111  H     H_    0.608127 0.765602 0.816062 0.266193
H112  H     H_    0.764383 0.270939 0.582806 0.171591
N1    N     N_R   0.501511 0.440713 0.035190 -0.153009
N2    N     N_R   0.513278 0.604932 0.965081 -0.156051
N3    N     N_R   0.504131 0.440028 0.965909 -0.151608
N4    N     N_R   0.511644 0.605555 0.034547 -0.151634
N5    N     N_R   0.500000 0.252470 0.500000 -0.154461
N6    N     N_R   0.500000 0.747530 0.500000 -0.158280
O1    O     O_R   0.369060 0.579480 0.500010 -0.606282
O2    O     O_3   0.648131 0.436927 0.858107 -0.624134
O3    O     O_3   0.369399 0.605070 0.854340 -0.626014
O4    O     O_3   0.354284 0.454000 0.139771 -0.630695
O5    O     O_3   0.044423 0.641509 0.430318 -0.590932
O6    O     O_3   0.950828 0.349547 0.435734 -0.593901
O7    O     O_3   0.956972 0.644394 0.564257 -0.590978
O8    O     O_3   0.048154 0.351834 0.565858 -0.594592
O9    O     O_3   0.371639 0.259781 0.427280 -0.622006
O10   O     O_3   0.585951 0.743572 0.604758 -0.628274
O11   O     O_3   0.629012 0.259229 0.572120 -0.623836
O12   O     O_R   0.630940 0.420520 0.499990 -0.580385
O13   O     O_3   0.414337 0.743524 0.395043 -0.628849
O14   O     O_R   0.630940 0.579480 0.499990 -0.606708
O15   O     O_R   0.369060 0.420520 0.500010 -0.580680
O16   O     O_R   0.499990 0.579500 0.398140 -0.595588
O17   O     O_R   0.500010 0.420500 0.601860 -0.597151
O18   O     O_R   0.500010 0.579500 0.601860 -0.594120
O19   O     O_R   0.499990 0.420500 0.398140 -0.596454
O20   O     O_3   0.646533 0.596867 0.149635 -0.624155
Zn1   Zn    Zn3+2 0.500000 0.606140 0.500000 0.987617
Zn2   Zn    Zn3+2 0.500000 0.393860 0.500000 1.003658

loop_
_geom_bond_atom_site_label_1
_geom_bond_atom_site_label_2
_ccdc_geom_bond_type
C9    O16   A    
C31   C66   S    
C55   H57   S    
C41   H24   S    
C57   H61   S    
C18   C21   A    
C52   H50   S    
C41   C42   S    
C71   H97   S    
C66   H85   S    
C16   O20   S    
C19   C20   A    
C12   O12   A    
C43   C44   S    
C81   C82   S    
C28   C56   A    
C30   C45   A    
C10   O18   A    
C39   H20   S    
C53   C54   S    
C15   C19   A    
C49   H42   S    
C57   O6    S    
C51   H49   S    
C30   C35   A    
C18   O3    S    
C53   H53   S    
C44   H32   S    
C11   C36   S    
C76   H111  S    
C77   H112  S    
C1    O15   A    
C6    N6    A    
O19   Zn2   S    
C38   H13   S    
C43   H30   S    
C5    N5    A    
C68   H87   S    
C58   H64   S    
C70   H95   S    
C14   C38   S    
C29   C33   A    
C46   H34   S    
C39   H21   S    
C60   H68   S    
C14   C24   A    
C66   H84   S    
N1    N3    A    
C26   N1    A    
C14   C18   A    
C36   H58   S    
C25   N2    A    
C50   H46   S    
C69   H93   S    
C48   H41   S    
C74   H106  S    
C4    N6    A    
C15   C22   A    
C54   H56   S    
C6    O13   S    
C47   C48   S    
C45   C56   S    
C83   H14   S    
C10   O17   A    
C19   O4    S    
C62   H74   S    
C46   H37   S    
C55   H60   S    
C69   H92   S    
C26   N4    A    
C60   O7    S    
C13   C37   S    
C33   C69   S    
C32   C68   S    
C43   H31   S    
C27   C45   A    
O15   Zn2   S    
C77   C79   S    
C7    C84   A    
O17   Zn2   S    
C83   H15   S    
C57   H62   S    
C8    C78   A    
C71   H98   S    
C2    C6    A    
C63   H76   S    
C64   H79   S    
C61   H71   S    
C79   H4    S    
C73   H103  S    
C44   C46   S    
C36   H69   S    
C33   C34   A    
C59   H65   S    
C3    O9    S    
C49   H43   S    
C2    C8    A    
C67   H1    S    
C82   H12   S    
C74   C75   S    
C47   O3    S    
C27   C31   A    
C53   H54   S    
C37   H2    S    
O16   Zn1   S    
C55   H59   S    
C72   H100  S    
C64   H78   S    
C5    C84   A    
C58   H63   S    
C70   H94   S    
C47   H38   S    
C42   H28   S    
C10   C24   S    
C58   C59   S    
C63   C64   S    
C65   H82   S    
C82   C83   S    
C17   C21   A    
C51   C52   S    
C13   C24   A    
C74   O10   S    
C60   C61   S    
C23   C31   A    
C80   H8    S    
C17   O2    S    
C75   H107  S    
C75   C76   S    
C4    C78   A    
C25   N3    A    
C50   H45   S    
C37   H91   S    
C74   H105  S    
C81   H9    S    
C11   C16   A    
C42   H29   S    
C47   H39   S    
C54   H55   S    
C28   C32   A    
C84   H36   S    
C5    O11   S    
C77   O11   S    
C2    H47   S    
C62   H73   S    
O1    Zn1   S    
C50   C51   S    
C16   C20   A    
C39   H19   S    
C15   C39   S    
O12   Zn2   S    
C40   H23   S    
C50   O4    S    
C40   C41   S    
C1    C23   S    
C23   C35   A    
C83   H16   S    
C35   C70   S    
C52   H52   S    
C69   H90   S    
C12   O14   A    
C63   O8    S    
C12   C34   S    
C1    O1    A    
C61   H72   S    
C73   H104  S    
C40   H22   S    
C59   H66   S    
C63   H77   S    
C49   H44   S    
C21   C25   S    
C54   C55   S    
C48   C49   S    
C82   H11   S    
N6    Zn1   S    
C66   H86   S    
C42   H27   S    
C3    C67   A    
C72   H99   S    
C72   C73   S    
C30   O8    S    
C73   H101  S    
C51   H48   S    
C37   H102  S    
C29   O7    S    
C29   C56   A    
C59   H67   S    
C38   H17   S    
C65   H83   S    
C11   C22   A    
C71   O9    S    
C4    O10   S    
C13   C17   A    
C41   H26   S    
C68   H89   S    
C64   C65   S    
C80   H7    S    
C75   H108  S    
O14   Zn1   S    
C71   C72   S    
C38   H18   S    
C81   H10   S    
C68   H88   S    
C70   H96   S    
C57   C58   S    
C81   O13   S    
C20   C26   S    
C44   H33   S    
C3    N5    A    
C53   O5    S    
C46   H35   S    
C78   H25   S    
C27   O5    S    
C80   H6    S    
C61   C62   S    
C9    C22   S    
C60   H70   S    
C79   H5    S    
C7    C8    S    
C76   H109  S    
C7    C67   A    
C79   C80   S    
C9    O19   A    
C76   H110  S    
C65   H81   S    
C77   H3    S    
C28   O6    S    
C48   H40   S    
C40   O20   S    
C43   O2    S    
C36   H80   S    
C52   H51   S    
C62   H75   S    
N2    N4    A    
N5    Zn2   S    
O18   Zn1   S    
C32   C34   A    
