data_mof_unit_10871.cif
_audit_creation_date              2012-10-26T19:41:23-0400
_audit_creation_method            fapswitch 2.2
_symmetry_space_group_name_H-M    P1
_symmetry_Int_Tables_number       1
_space_group_crystal_system       triclinic
_cell_length_a                    17.363325
_cell_length_b                    10.72952
_cell_length_c                    9.764797
_cell_angle_alpha                 109.531608
_cell_angle_beta                  95.65469
_cell_angle_gamma                 91.346845
_cell_volume                      1703.0660986

loop_
_atom_site_label
_atom_site_type_symbol
_atom_type_description
_atom_site_fract_x
_atom_site_fract_y
_atom_site_fract_z
_atom_type_partial_charge
C1    C     C_R   0.492769 0.252623 0.443555 0.593550
C2    C     C_R   0.647839 0.498513 0.482085 0.578826
C3    C     C_R   0.267496 0.493361 0.524000 -0.015621
C4    C     C_R   0.730184 0.488027 0.472222 -0.003920
C5    C     C_R   0.215234 0.458358 0.394689 0.266108
C6    C     C_R   0.783516 0.594789 0.552005 0.279072
C7    C     C_R   0.136012 0.473447 0.405176 0.263267
C8    C     C_R   0.862652 0.583810 0.530232 0.291376
C9    C     C_R   0.107345 0.496560 0.541387 -0.015081
C10   C     C_R   0.887725 0.457080 0.455261 -0.003396
C11   C     C_R   0.159242 0.523742 0.668190 -0.194643
C12   C     C_R   0.502178 0.747882 0.556846 0.566133
C13   C     C_R   0.834178 0.350660 0.382319 -0.190491
C14   C     C_R   0.238699 0.524787 0.660035 -0.200437
C15   C     C_R   0.755589 0.367423 0.386549 -0.194772
C16   C     C_2   0.024100 0.501158 0.556242 -0.100873
C17   C     C_2   0.970094 0.433811 0.447236 -0.082922
C18   C     C_3   0.217947 0.286640 0.176812 0.032678
C19   C     C_3   0.285866 0.198142 0.176142 -0.268662
C20   C     C_3   0.263299 0.054770 0.080262 -0.511349
C21   C     C_3   0.751440 0.715431 0.786950 -0.013275
C22   C     C_3   0.782748 0.599925 0.834884 -0.293799
C23   C     C_2   0.484255 0.110350 0.419470 0.249383
C24   C     C_3   0.778391 0.628089 0.997806 -0.469338
C25   C     C_3   0.921876 0.784507 0.692408 0.022987
C26   C     C_3   0.999542 0.863552 0.717042 -0.276401
C27   C     C_3   0.014029 0.964204 0.871644 -0.494117
C28   C     C_3   0.077381 0.588970 0.271105 0.020742
C29   C     C_3   0.022791 0.575782 0.133670 -0.247518
C30   C     C_3   0.010019 0.710277 0.116631 -0.496849
C31   C     C_3   0.323039 0.867579 0.340033 -0.025059
C32   C     C_3   0.281153 0.756149 0.211381 -0.369897
C33   C     C_3   0.365566 0.129782 0.699779 -0.015536
C34   C     C_2   0.492720 0.891063 0.582093 0.244236
C35   C     C_3   0.302363 0.220402 0.763191 -0.389722
C36   C     C_3   0.610568 0.965173 0.723620 -0.002490
C37   C     C_3   0.655642 0.093741 0.816750 -0.370268
C38   C     C_3   0.502937 0.983683 0.187907 -0.014691
C39   C     C_3   0.561527 0.903268 0.094566 -0.369427
C40   C     C_2   0.439128 0.068596 0.502752 0.268840
C41   C     C_2   0.439610 0.926391 0.492173 0.273720
C42   C     C_2   0.506540 0.511244 0.080677 -0.008450
C43   C     C_2   0.493590 0.489117 0.919752 -0.022004
C44   C     C_R   0.351538 0.498724 0.517417 0.575605
Cu1   Cu    Cu3+1 0.513640 0.521550 0.643210 0.929674
Cu2   Cu    Cu3+1 0.486360 0.478450 0.356790 0.975147
H1    H     H_    0.714555 0.284642 0.327628 0.138255
H2    H     H_    0.424115 0.376925 0.074429 0.191610
H3    H     H_    0.199015 0.280800 0.062694 0.149589
H4    H     H_    0.167682 0.246624 0.215705 0.139499
H5    H     H_    0.335417 0.235065 0.133894 0.175126
H6    H     H_    0.304660 0.201776 0.289656 0.177048
H7    H     H_    0.217841 0.012375 0.127194 0.144509
H8    H     H_    0.314910 0.994834 0.074063 0.135948
H9    H     H_    0.241021 0.048794 0.967569 0.142946
H10   H     H_    0.689557 0.723010 0.805921 0.162946
H11   H     H_    0.781559 0.809481 0.861954 0.120494
H12   H     H_    0.277552 0.550162 0.760455 0.140373
H13   H     H_    0.747974 0.506295 0.773184 0.177764
H14   H     H_    0.843966 0.584505 0.814056 0.130371
H15   H     H_    0.814778 0.718913 0.063599 0.150903
H16   H     H_    0.800176 0.543611 0.028829 0.155348
H17   H     H_    0.717557 0.641408 0.023251 0.138865
H18   H     H_    0.922542 0.734039 0.774952 0.107769
H19   H     H_    0.875515 0.855801 0.707510 0.188497
H20   H     H_    0.047434 0.794985 0.699258 0.162950
H21   H     H_    0.999896 0.916658 0.636901 0.168558
H22   H     H_    0.967730 0.035795 0.891203 0.147024
H23   H     H_    0.986007 0.356509 0.351809 0.162557
H24   H     H_    0.070719 0.019702 0.885626 0.144017
H25   H     H_    0.015481 0.913099 0.953650 0.144186
H26   H     H_    0.133966 0.636073 0.264018 0.135862
H27   H     H_    0.051355 0.653509 0.368236 0.161781
H28   H     H_    0.047808 0.510863 0.035913 0.164661
H29   H     H_    0.965955 0.529189 0.139940 0.177248
H30   H     H_    0.983649 0.776151 0.211900 0.160314
H31   H     H_    0.970186 0.696786 0.015926 0.133970
H32   H     H_    0.065937 0.757677 0.107389 0.136161
H33   H     H_    0.326788 0.956698 0.306848 0.137090
H34   H     H_    0.006694 0.561818 0.660387 0.123351
H35   H     H_    0.288431 0.887262 0.434284 0.130447
H36   H     H_    0.276225 0.664677 0.239904 0.209138
H37   H     H_    0.222188 0.784634 0.183227 0.074537
H38   H     H_    0.313810 0.736179 0.114719 0.152995
H39   H     H_    0.417451 0.153294 0.782561 0.172611
H40   H     H_    0.342912 0.026157 0.676665 0.118915
H41   H     H_    0.248315 0.193491 0.686073 0.153953
H42   H     H_    0.290488 0.210324 0.868461 0.087817
H43   H     H_    0.320684 0.325174 0.782652 0.159179
H44   H     H_    0.636402 0.926342 0.618306 0.162784
H45   H     H_    0.138194 0.546036 0.774176 0.120551
H46   H     H_    0.616880 0.894081 0.783627 0.145477
H47   H     H_    0.632323 0.134121 0.923877 0.155174
H48   H     H_    0.717745 0.075087 0.836032 0.094225
H49   H     H_    0.650749 0.167725 0.759879 0.173551
H50   H     H_    0.489635 0.068174 0.149265 0.143335
H51   H     H_    0.449172 0.919418 0.170967 0.155156
H52   H     H_    0.578188 0.820350 0.133168 0.149215
H53   H     H_    0.535787 0.862576 0.978632 0.128018
H54   H     H_    0.614204 0.967087 0.102224 0.144479
H55   H     H_    0.853341 0.254634 0.320835 0.119307
H56   H     H_    0.448832 0.416540 0.852381 0.159197
H57   H     H_    0.551326 0.584142 0.148247 0.150075
H58   H     H_    0.577224 0.620941 0.924066 0.184384
N1    N     N_2   0.465840 0.446060 0.141630 -0.344068
N2    N     N_2   0.534160 0.553940 0.858370 -0.360854
O1    O     O_R   0.507280 0.332200 0.576490 -0.471352
O2    O     O_3   0.757495 0.712181 0.640471 -0.600651
O3    O     O_3   0.911924 0.693944 0.547808 -0.571822
O4    O     O_3   0.087465 0.461551 0.279735 -0.590786
O5    O     O_3   0.397224 0.828203 0.375219 -0.569503
O6    O     O_3   0.383846 0.152404 0.572128 -0.612057
O7    O     O_3   0.531702 0.990325 0.702095 -0.623232
O8    O     O_3   0.534537 0.026717 0.336048 -0.593596
O9    O     O_R   0.492720 0.667800 0.423510 -0.448680
O10   O     O_R   0.484240 0.295800 0.334620 -0.527873
O11   O     O_R   0.515760 0.704200 0.665380 -0.515715
O12   O     O_R   0.399260 0.520290 0.634950 -0.509346
O13   O     O_R   0.600740 0.479710 0.365050 -0.505192
O14   O     O_R   0.376220 0.483890 0.393080 -0.438133
O15   O     O_R   0.623780 0.516110 0.606920 -0.503346
O16   O     O_3   0.241869 0.420683 0.258157 -0.556239

loop_
_geom_bond_atom_site_label_1
_geom_bond_atom_site_label_2
_ccdc_geom_bond_type
Cu1   O12   S    
C17   H23   S    
C24   H15   S    
C19   C20   S    
C15   H1    S    
C42   H57   S    
H58   N2    S    
C40   O6    S    
Cu1   Cu2   S    
C34   O7    S    
C26   C27   S    
Cu2   O9    S    
C26   H21   S    
C36   C37   S    
C9    C16   S    
C20   H9    S    
C22   H14   S    
C38   C39   S    
C38   O8    S    
C11   C14   A    
C6    O2    S    
C36   O7    S    
C10   C17   S    
C36   H44   S    
C23   C40   D    
Cu2   N1    S    
C37   H49   S    
C18   C19   S    
C33   H39   S    
C27   H22   S    
C30   H31   S    
C35   H41   S    
C19   H6    S    
C31   C32   S    
C16   C17   D    
Cu2   O13   S    
C24   H16   S    
C1    O10   A    
C25   O3    S    
C12   O9    A    
C36   H46   S    
C21   C22   S    
C28   H26   S    
C34   C41   D    
C38   H51   S    
C32   H38   S    
C28   H27   S    
C14   H12   S    
C3    C44   S    
Cu2   O14   S    
C26   H20   S    
C25   H19   S    
C4    C6    A    
C22   H13   S    
C5    C7    A    
C39   H52   S    
C6    C8    A    
C29   H28   S    
C28   O4    S    
C25   C26   S    
C5    O16   S    
C16   H34   S    
C25   H18   S    
C2    C4    S    
C33   H40   S    
C21   H11   S    
C29   C30   S    
C11   H45   S    
C30   H30   S    
C35   H42   S    
C39   H53   S    
H2    N1    S    
C44   O12   A    
C37   H47   S    
C33   O6    S    
C9    C11   A    
C27   H24   S    
C18   O16   S    
C35   H43   S    
C20   H8    S    
C40   C41   S    
C1    O1    A    
C1    C23   S    
C24   H17   S    
C13   C15   A    
C22   C24   S    
C42   C43   S    
C12   C34   S    
C27   H25   S    
Cu1   N2    S    
C18   H4    S    
C2    O15   A    
Cu1   O11   S    
C7    C9    A    
C32   H37   S    
C28   C29   S    
C31   O5    S    
C20   H7    S    
C3    C5    A    
C10   C13   A    
C21   H10   S    
C2    O13   A    
C31   H33   S    
C29   H29   S    
C3    C14   A    
C32   H36   S    
C31   H35   S    
C7    O4    S    
Cu2   O10   S    
Cu1   O15   S    
C4    C15   A    
C43   H56   S    
C8    O3    S    
C23   O8    S    
C39   H54   S    
C33   C35   S    
C37   H48   S    
C42   N1    D    
C21   O2    S    
C12   O11   A    
C30   H32   S    
C19   H5    S    
C8    C10   A    
C41   O5    S    
C38   H50   S    
C44   O14   A    
C13   H55   S    
C43   N2    D    
Cu1   O1    S    
C18   H3    S    
