data_mof_unit_61163.cif
_audit_creation_date              2013-03-05T16:58:08-0500
_audit_creation_method            fapswitch 2.2
_symmetry_space_group_name_H-M    P1
_symmetry_Int_Tables_number       1
_space_group_crystal_system       triclinic
_cell_length_a                    17.285377
_cell_length_b                    16.887984
_cell_length_c                    23.334359
_cell_angle_alpha                 90.269708
_cell_angle_beta                  91.495745
_cell_angle_gamma                 89.649051
_cell_volume                      6809.13422804

loop_
_atom_site_label
_atom_site_type_symbol
_atom_site_description
_atom_site_fract_x
_atom_site_fract_y
_atom_site_fract_z
_atom_type_partial_charge
O1    O     O_R   0.389110 0.566570 0.500000 -0.573608
O2    O     O_R   0.610890 0.433430 0.500000 -0.569875
O3    O     O_R   0.610890 0.566570 0.500000 -0.577734
O4    O     O_R   0.389110 0.433430 0.500000 -0.569387
C1    C     C_R   0.352307 0.500499 0.502597 0.979133
C2    C     C_R   0.648117 0.499588 0.498756 1.001189
O5    O     O_R   0.499970 0.566560 0.416150 -0.584371
O6    O     O_R   0.500030 0.433440 0.583850 -0.582669
O7    O     O_R   0.500030 0.566560 0.583850 -0.581505
O8    O     O_R   0.499970 0.433440 0.416150 -0.578455
C3    C     C_R   0.499820 0.499362 0.389134 0.992928
C4    C     C_R   0.499429 0.499620 0.610843 0.973526
Zn1   Zn    Zn3+2 0.500000 0.588860 0.500000 1.140005
Zn2   Zn    Zn3+2 0.500000 0.411140 0.500000 1.150410
C5    C     C_R   0.558971 0.421832 0.878529 0.631239
C6    C     C_R   0.436915 0.422320 0.120571 0.632104
N1    N     N_R   0.492115 0.446963 0.851653 -0.329016
N2    N     N_R   0.503041 0.448984 0.147429 -0.330268
C7    C     C_R   0.426236 0.458898 0.881725 0.593117
C8    C     C_R   0.568245 0.462621 0.117194 0.588583
C9    C     C_R   0.424606 0.438276 0.939960 -0.073552
C10   C     C_R   0.570544 0.441225 0.059008 -0.072809
C11   C     C_R   0.496493 0.430764 0.969480 0.012700
C12   C     C_R   0.498946 0.431438 0.029550 0.013108
C13   C     C_R   0.565850 0.425123 0.938787 -0.087871
C14   C     C_R   0.429818 0.424883 0.060295 -0.088409
C15   C     C_R   0.354728 0.429404 0.969783 -0.103048
C16   C     C_R   0.640701 0.433300 0.029233 -0.102058
C17   C     C_R   0.357436 0.421017 0.030039 -0.110062
C18   C     C_R   0.638293 0.423314 0.969070 -0.108451
O9    O     O_2   0.617881 0.395297 0.846750 -0.475111
O10   O     O_2   0.379038 0.394540 0.152338 -0.472429
O11   O     O_2   0.363831 0.492730 0.855684 -0.490825
O12   O     O_2   0.629375 0.498524 0.143108 -0.489454
C19   C     C_R   0.558397 0.426422 0.244746 -0.130957
C20   C     C_R   0.439060 0.425027 0.753487 -0.128260
C21   C     C_R   0.561630 0.446399 0.303141 0.250002
C22   C     C_R   0.436617 0.445836 0.695425 0.266685
C23   C     C_R   0.503253 0.494664 0.326530 -0.221285
C24   C     C_R   0.494330 0.495134 0.673311 -0.215602
C25   C     C_R   0.443929 0.527168 0.290821 -0.215123
C26   C     C_R   0.551681 0.528449 0.710182 -0.210937
C27   C     C_R   0.448371 0.517310 0.231012 0.304956
C28   C     C_R   0.545835 0.518098 0.769765 0.300771
C29   C     C_R   0.503451 0.464341 0.208237 0.074552
C30   C     C_R   0.492054 0.463498 0.791137 0.072029
C31   C     C_R   0.851706 0.573867 0.525253 -0.121092
C32   C     C_R   0.150421 0.429868 0.534090 -0.107626
C33   C     C_R   0.163531 0.565890 0.569268 -0.118276
C34   C     C_R   0.849482 0.430665 0.541024 -0.118715
C35   C     C_R   0.775353 0.570919 0.502525 0.244596
C36   C     C_R   0.224078 0.433451 0.510651 0.238602
C37   C     C_R   0.239221 0.568078 0.548577 0.267253
C38   C     C_R   0.774098 0.427223 0.517147 0.244347
C39   C     C_R   0.734031 0.498668 0.503590 -0.225384
C40   C     C_R   0.269723 0.502008 0.518231 -0.245546
C41   C     C_R   0.886837 0.504167 0.546775 -0.092679
C42   C     C_R   0.119265 0.497088 0.560793 -0.071390
C43   C     C_1   0.968061 0.504114 0.560592 0.111869
C44   C     C_1   0.036989 0.501505 0.565061 0.105685
C45   C     C_R   0.459529 0.833172 0.457090 -0.181107
C46   C     C_R   0.529909 0.166778 0.547495 -0.183866
C47   C     C_R   0.540999 0.833024 0.542936 -0.179533
C48   C     C_R   0.471546 0.166431 0.452229 -0.183685
C49   C     C_R   0.462568 0.748751 0.456925 0.370214
C50   C     C_R   0.528787 0.251247 0.546889 0.361963
C51   C     C_R   0.536970 0.748716 0.543347 0.368924
C52   C     C_R   0.472241 0.250861 0.452949 0.361728
N3    N     N_R   0.500000 0.707230 0.500000 -0.196002
N4    N     N_R   0.500000 0.292770 0.500000 -0.190741
C53   C     C_R   0.500587 0.876022 0.499904 -0.100353
C54   C     C_R   0.500697 0.123706 0.499891 -0.102476
C55   C     C_1   0.500751 0.963622 0.499909 0.188607
C56   C     C_1   0.500768 0.036101 0.499910 0.182899
C57   C     C_2   0.278990 0.423692 0.938233 1.046684
O13   O     O_2   0.270638 0.375587 0.899249 -0.547131
O14   O     O_R   0.217378 0.472805 0.953472 -0.736807
H1    H     H_    0.168987 0.463031 0.929043 0.380405
C58   C     C_2   0.716626 0.430083 0.060740 1.045076
O15   O     O_2   0.726837 0.382767 0.099762 -0.550518
O16   O     O_R   0.776359 0.480547 0.045333 -0.735180
H2    H     H_    0.825134 0.472413 0.069721 0.380322
N5    N     N_R   0.425231 0.706755 0.411242 0.223617
O17   O     O_R   0.458454 0.703751 0.361890 -0.315202
O18   O     O_R   0.351862 0.691390 0.414167 -0.330552
N6    N     N_R   0.556077 0.292662 0.597098 0.241470
O19   O     O_R   0.525949 0.278362 0.646487 -0.328843
O20   O     O_R   0.618294 0.335200 0.595511 -0.290831
N7    N     N_R   0.571032 0.706880 0.590348 0.225412
O21   O     O_R   0.534533 0.705398 0.638388 -0.303098
O22   O     O_R   0.644426 0.689996 0.590137 -0.345900
N8    N     N_R   0.445860 0.291945 0.402643 0.236620
O23   O     O_R   0.478532 0.278528 0.353910 -0.328426
O24   O     O_R   0.381540 0.331905 0.403147 -0.258345
C59   C     C_2   0.283637 0.412452 0.060350 1.065049
O25   O     O_2   0.260039 0.466505 0.090361 -0.473342
O26   O     O_R   0.240233 0.343458 0.052911 -0.746057
H3    H     H_    0.190635 0.344840 0.075153 0.379497
C60   C     C_2   0.712362 0.414997 0.938907 1.063187
O27   O     O_2   0.735337 0.469143 0.909352 -0.472469
O28   O     O_R   0.756742 0.346143 0.946031 -0.746268
H4    H     H_    0.806442 0.347678 0.923948 0.378878
C61   C     C_2   0.612095 0.365561 0.221919 1.078355
O29   O     O_2   0.587133 0.312980 0.190449 -0.565903
O30   O     O_R   0.691181 0.368857 0.235882 -0.673453
H5    H     H_    0.721536 0.324138 0.217784 0.389843
C62   C     C_2   0.387206 0.362098 0.774500 1.079452
O31   O     O_2   0.413091 0.310678 0.806508 -0.568763
O32   O     O_R   0.308819 0.361905 0.758100 -0.672667
H6    H     H_    0.279755 0.316200 0.775316 0.386486
N9    N     N_R   0.622647 0.415344 0.339637 0.239082
O33   O     O_R   0.668410 0.463496 0.367686 -0.332773
O34   O     O_R   0.632472 0.339283 0.345047 -0.263256
N10   N     N_R   0.376540 0.415310 0.658057 0.224982
O35   O     O_R   0.320499 0.461789 0.640956 -0.360582
O36   O     O_R   0.373377 0.340136 0.645887 -0.293130
C63   C     C_2   0.374512 0.565695 0.315389 1.098493
O37   O     O_2   0.343492 0.536212 0.356629 -0.586749
O38   O     O_R   0.343284 0.634461 0.290580 -0.655961
H7    H     H_    0.294348 0.653021 0.309681 0.392502
C64   C     C_2   0.620847 0.567964 0.687117 1.099013
O39   O     O_2   0.654515 0.538379 0.646747 -0.607291
O40   O     O_R   0.648996 0.637617 0.712531 -0.654188
H8    H     H_    0.698488 0.656534 0.694830 0.392578
N11   N     N_R   0.395413 0.558421 0.192935 0.243242
O41   O     O_R   0.421791 0.602102 0.152113 -0.298851
O42   O     O_R   0.321412 0.545352 0.194853 -0.248919
N12   N     N_R   0.596287 0.560188 0.809039 0.242325
O43   O     O_R   0.567234 0.602568 0.850014 -0.300221
O44   O     O_R   0.670818 0.549220 0.807993 -0.251711
C65   C     C_2   0.896934 0.648453 0.523455 1.010199
O45   O     O_2   0.900009 0.685996 0.478887 -0.518273
O46   O     O_R   0.937155 0.674744 0.572623 -0.746252
H9    H     H_    0.966297 0.725665 0.565996 0.367179
C66   C     C_2   0.106391 0.354712 0.531817 0.989346
O47   O     O_2   0.094134 0.320735 0.486126 -0.516471
O48   O     O_R   0.080362 0.322331 0.582749 -0.715653
H10   H     H_    0.055035 0.268893 0.576660 0.366650
C67   C     C_2   0.130885 0.635458 0.600137 1.012863
O49   O     O_2   0.090133 0.625348 0.641524 -0.527101
O50   O     O_R   0.146258 0.712340 0.581839 -0.716618
H11   H     H_    0.120579 0.754254 0.606248 0.371288
C68   C     C_2   0.891393 0.356529 0.556555 1.012254
O51   O     O_2   0.917004 0.347504 0.605437 -0.533428
O52   O     O_R   0.901135 0.297281 0.515258 -0.705688
H12   H     H_    0.928526 0.248672 0.531281 0.367599
N13   N     N_R   0.741193 0.639815 0.475626 0.247410
O53   O     O_R   0.743858 0.708679 0.500817 -0.293954
O54   O     O_R   0.710523 0.634359 0.424235 -0.288661
N14   N     N_R   0.251478 0.367419 0.478208 0.244856
O55   O     O_R   0.230983 0.361605 0.424325 -0.234165
O56   O     O_R   0.279240 0.305518 0.504833 -0.298572
N15   N     N_R   0.286747 0.635094 0.562539 0.236186
O57   O     O_R   0.289824 0.694419 0.527350 -0.278094
O58   O     O_R   0.321061 0.640032 0.612694 -0.306518
N16   N     N_R   0.740290 0.351361 0.503708 0.248229
O59   O     O_R   0.744166 0.293538 0.540358 -0.285611
O60   O     O_R   0.716507 0.336351 0.451494 -0.251552
C69   C     C_2   0.411608 0.876417 0.413391 1.023853
O61   O     O_2   0.415909 0.859719 0.362550 -0.507440
O62   O     O_R   0.361451 0.936727 0.430692 -0.765756
H13   H     H_    0.331970 0.961877 0.397275 0.374150
C70   C     C_2   0.563015 0.123791 0.598002 1.035258
O63   O     O_2   0.625849 0.143123 0.618744 -0.510606
O64   O     O_R   0.522076 0.061531 0.621988 -0.766609
H14   H     H_    0.550328 0.037359 0.656337 0.375329
C71   C     C_2   0.588943 0.875924 0.586802 1.025480
O65   O     O_2   0.584635 0.859624 0.637593 -0.508587
O66   O     O_R   0.639287 0.935327 0.569697 -0.764445
H15   H     H_    0.668901 0.960198 0.603188 0.372408
C72   C     C_2   0.439334 0.123209 0.401390 1.033657
O67   O     O_2   0.377100 0.143382 0.379805 -0.507223
O68   O     O_R   0.480440 0.059773 0.378033 -0.764809
H16   H     H_    0.452777 0.035514 0.343424 0.376584

loop_
_geom_bond_atom_site_label_1
_geom_bond_atom_site_label_2
_geom_bond_distance
_ccdc_geom_bond_type
O5    Zn1   1.990746 S    
C72   O67   1.223031 D    
C33   C37   1.407097 A    
C37   N15   1.433824 S    
O64   H14   1.013787 S    
C15   C17   1.413354 A    
C59   O25   1.222446 D    
Zn2   N4    1.999031 S    
O66   H15   1.013833 S    
C1    C40   1.482613 S    
N9    O33   1.300473 A    
C2    C39   1.486376 S    
O3    C2    1.298567 A    
N12   O43   1.301081 A    
C27   N11   1.437010 S    
O62   H13   1.013838 S    
O40   H8    1.013692 S    
C71   O66   1.398422 S    
O68   H16   1.013795 S    
O5    C3    1.295562 A    
C72   O68   1.398207 S    
C34   C38   1.405148 A    
N5    O17   1.300826 A    
O1    C1    1.290242 A    
C48   C52   1.425996 A    
C10   C12   1.410139 A    
N16   O59   1.301343 A    
N13   O54   1.301519 A    
C12   C14   1.414878 A    
C19   C61   1.486832 S    
C63   O38   1.399105 S    
C38   N16   1.441183 S    
C22   N10   1.435113 S    
N6    O20   1.298389 A    
C41   C43   1.432292 S    
C45   C69   1.488210 S    
C42   C44   1.429716 S    
C68   O51   1.222587 D    
O26   H3    1.013777 S    
C51   N7    1.420265 S    
C66   O48   1.396765 S    
C55   C56   1.224018 T    
C16   C58   1.488282 S    
O7    Zn1   1.994226 S    
C32   C66   1.483956 S    
N13   O53   1.301129 A    
C52   N8    1.429384 S    
C61   O30   1.398391 S    
C68   O52   1.398374 S    
C69   O61   1.222174 D    
C11   C12   1.401205 A    
C69   O62   1.398410 S    
C20   C30   1.411728 A    
N7    O22   1.298709 A    
C35   C39   1.418270 A    
O3    Zn1   1.951125 S    
C8    O12   1.349384 S    
C45   C53   1.409910 A    
C24   C26   1.413258 A    
N11   O41   1.301081 A    
C9    C15   1.418713 A    
C43   C44   1.193853 T    
C10   C16   1.418567 A    
C20   C62   1.487532 S    
C25   C27   1.408756 A    
O2    C2    1.293558 A    
C26   C28   1.408416 A    
C15   C57   1.488538 S    
C47   C71   1.488456 S    
C28   C30   1.414977 A    
O52   H12   1.013281 S    
C9    C11   1.410253 A    
C6    C14   1.409505 A    
C47   C51   1.426017 A    
C21   N9    1.436395 S    
C46   C50   1.426663 A    
O28   H4    1.013779 S    
C66   O47   1.222620 D    
N1    C30   1.440693 S    
C23   C25   1.414193 A    
C7    O11   1.349341 S    
N10   O35   1.298904 A    
C71   O65   1.222255 D    
C58   O16   1.398092 S    
N6    O19   1.301223 A    
C31   C35   1.410541 A    
C46   C70   1.487019 S    
O14   H1    1.013793 S    
C18   C60   1.482631 S    
O16   H2    1.013793 S    
C33   C42   1.405528 A    
C31   C65   1.487902 S    
C51   N3    1.373826 A    
C49   N5    1.420714 S    
C4    C24   1.464948 S    
C32   C42   1.403678 A    
C57   O13   1.223090 D    
C62   O32   1.398334 S    
C31   C41   1.409750 A    
C57   O14   1.398122 S    
C60   O27   1.222352 D    
C35   N13   1.440673 S    
O6    C4    1.280447 A    
N8    O24   1.297335 A    
C46   C54   1.409110 A    
N9    O34   1.300964 A    
C6    N2    1.366846 A    
O38   H7    1.013681 S    
C3    C23   1.465344 S    
C27   C29   1.414414 A    
C64   O39   1.223237 D    
C54   C56   1.479467 S    
N5    O18   1.299642 A    
C47   C53   1.409813 A    
C33   C67   1.490879 S    
O8    Zn2   1.994226 S    
O46   H9    1.013810 S    
N14   O56   1.301344 A    
O1    Zn1   1.955650 S    
C62   O31   1.223110 D    
C65   O45   1.223039 D    
C19   C29   1.411850 A    
N2    C29   1.441073 S    
C34   C68   1.484290 S    
C19   C21   1.401988 A    
C53   C55   1.479420 S    
O48   H10   1.013246 S    
C37   C40   1.424510 A    
C13   C18   1.421912 A    
C5    N1    1.366581 A    
C38   C39   1.420383 A    
C28   N12   1.437137 S    
O6    Zn2   1.990746 S    
C60   O28   1.397300 S    
C34   C41   1.406940 A    
C8    C10   1.404860 A    
O4    C1    1.297623 A    
C65   O46   1.397911 S    
N12   O44   1.301264 A    
C50   N6    1.432410 S    
N10   O36   1.300779 A    
C67   O49   1.223330 D    
C59   O26   1.397375 S    
C5    O9    1.348440 S    
C6    O10   1.348380 S    
O30   H5    1.013759 S    
N15   O58   1.300728 A    
C48   C72   1.487443 S    
N16   O60   1.299970 A    
N7    O21   1.301012 A    
C21   C23   1.412416 A    
O50   H11   1.013911 S    
C20   C22   1.400777 A    
C22   C24   1.412673 A    
C67   O50   1.397886 S    
C50   N4    1.382377 A    
Zn1   N3    1.999031 S    
C49   N3    1.373960 A    
C16   C18   1.412744 A    
N8    O23   1.301117 A    
N1    C7    1.366508 A    
N2    C8    1.366494 A    
C48   C54   1.408996 A    
O4    Zn2   1.951125 S    
O2    Zn2   1.955650 S    
O7    C4    1.296921 A    
C64   O40   1.399109 S    
C70   O63   1.223047 D    
C5    C13   1.408878 A    
O8    C3    1.281910 A    
C17   C59   1.482828 S    
C58   O15   1.222913 D    
C45   C49   1.426334 A    
C32   C36   1.400499 A    
C11   C13   1.414951 A    
C14   C17   1.422146 A    
C36   N14   1.430125 S    
O32   H6    1.013786 S    
C61   O29   1.223091 D    
N11   O42   1.301321 A    
C52   N4    1.380531 A    
N14   O55   1.300788 A    
C70   O64   1.398176 S    
C25   C63   1.488153 S    
N15   O57   1.300581 A    
C63   O37   1.223176 D    
C36   C40   1.412893 A    
C26   C64   1.486983 S    
C7    C9    1.405433 A    
