data_mof_unit_50675.cif
_audit_creation_date              2012-10-26T20:47:14-0400
_audit_creation_method            fapswitch 2.2
_symmetry_space_group_name_H-M    P1
_symmetry_Int_Tables_number       1
_space_group_crystal_system       triclinic
_cell_length_a                    13.926022
_cell_length_b                    13.916381
_cell_length_c                    15.080801
_cell_angle_alpha                 91.628945
_cell_angle_beta                  91.47352
_cell_angle_gamma                 85.662213
_cell_volume                      2912.29262656

loop_
_atom_site_label
_atom_site_type_symbol
_atom_type_description
_atom_site_fract_x
_atom_site_fract_y
_atom_site_fract_z
_atom_type_partial_charge
C1    C     C_R   0.499299 0.498204 0.330015 0.557394
C2    C     C_R   0.791009 0.466226 0.427465 0.008267
C3    C     C_R   0.212378 0.422949 0.463971 0.124555
C4    C     C_R   0.791298 0.537124 0.571857 0.127538
C5    C     C_R   0.111218 0.419173 0.469687 0.227979
C6    C     C_R   0.893549 0.526730 0.576702 0.231722
C7    C     C_R   0.054120 0.501310 0.498494 0.022063
C8    C     C_R   0.945275 0.499972 0.499335 0.018106
C9    C     C_R   0.515114 0.317416 0.500721 0.524672
C10   C     C_R   0.484975 0.682659 0.500440 0.549705
C11   C     C_1   0.476595 0.785131 0.503127 0.011947
C12   C     C_R   0.501391 0.498161 0.670125 0.544448
C13   C     C_1   0.523977 0.215149 0.502907 -0.006563
C14   C     C_2   0.461100 0.975026 0.510496 0.025712
C15   C     C_2   0.541040 0.025601 0.507189 0.026229
C16   C     C_1   0.532004 0.128912 0.504904 -0.046334
C17   C     C_1   0.469322 0.871542 0.506268 -0.029642
C18   C     C_R   0.552114 0.553005 0.096466 -0.175305
C19   C     C_R   0.427981 0.526538 0.906612 -0.101763
C20   C     C_R   0.548924 0.557890 0.188216 -0.183956
C21   C     C_R   0.426573 0.530612 0.815017 -0.168609
C22   C     C_R   0.499523 0.491409 0.233403 0.015082
C23   C     C_R   0.456010 0.412880 0.092922 0.036010
C24   C     C_R   0.504991 0.490761 0.766810 -0.006005
C25   C     C_R   0.456981 0.415604 0.186381 0.223480
C26   C     C_R   0.585325 0.443170 0.811300 0.311003
C27   C     C_2   0.641883 0.981270 0.503408 0.198713
C28   C     C_2   0.360599 0.019692 0.517091 0.225507
C29   C     C_3   0.485253 0.277770 0.266884 0.000216
C30   C     C_3   0.512834 0.196259 0.199813 -0.272728
C31   C     C_3   0.578913 0.117264 0.242727 -0.473147
C32   C     C_3   0.636725 0.312334 0.722768 0.031356
C33   C     C_3   0.667453 0.226552 0.780948 -0.265511
C34   C     C_R   0.588795 0.443040 0.904968 0.068174
C35   C     C_3   0.649217 0.131297 0.733042 -0.474733
C36   C     C_2   0.403868 0.336706 0.044710 0.221492
C37   C     C_2   0.674684 0.399569 0.954422 0.224657
C38   C     C_3   0.022476 0.721554 0.483224 0.005037
C39   C     C_3   0.951288 0.804528 0.512714 -0.232861
C40   C     C_3   0.915497 0.865753 0.434481 -0.476366
C41   C     C_3   0.911846 0.521521 0.280606 0.000149
C42   C     C_3   0.862559 0.475623 0.199783 -0.254996
C43   C     C_3   0.833003 0.550339 0.130128 -0.469802
C44   C     C_2   0.265414 0.346374 0.411262 0.340618
C45   C     C_R   0.505360 0.482041 0.048520 -0.027501
C46   C     C_2   0.740044 0.596435 0.641602 0.344208
C47   C     C_3   0.048816 0.281077 0.512042 0.040736
C48   C     C_3   0.023637 0.181414 0.478125 -0.227521
C49   C     C_3   0.998988 0.118545 0.554424 -0.496814
C50   C     C_3   0.986704 0.472844 0.697086 0.022962
C51   C     C_3   0.914667 0.410292 0.739221 -0.238602
C52   C     C_3   0.966627 0.323131 0.783423 -0.470158
C53   C     C_R   0.508122 0.483490 0.951680 0.005609
C54   C     C_R   0.102419 0.582674 0.528683 0.209695
C55   C     C_R   0.891679 0.472534 0.422868 0.217276
C56   C     C_R   0.204267 0.578065 0.533025 0.018006
Cu1   Cu    Cu3+1 0.596430 0.500000 0.499990 0.922138
Cu2   Cu    Cu3+1 0.403570 0.500000 0.500010 0.941402
H1    H     H_    0.590211 0.605551 0.062368 0.133653
H2    H     H_    0.551240 0.311163 0.292186 0.120468
H3    H     H_    0.446669 0.164489 0.173471 0.182756
H4    H     H_    0.550796 0.225376 0.143722 0.160724
H5    H     H_    0.645748 0.147313 0.269518 0.145144
H6    H     H_    0.598882 0.059924 0.192412 0.156686
H7    H     H_    0.541675 0.084653 0.297433 0.159426
H8    H     H_    0.676233 0.303365 0.659658 0.162241
H9    H     H_    0.558599 0.311284 0.704780 0.120188
H10   H     H_    0.745417 0.227080 0.798247 0.192813
H11   H     H_    0.626192 0.232317 0.843197 0.189328
H12   H     H_    0.366524 0.557745 0.942886 0.132040
H13   H     H_    0.571383 0.128504 0.715932 0.174549
H14   H     H_    0.671789 0.070448 0.776819 0.165193
H15   H     H_    0.691294 0.122866 0.671337 0.141179
H16   H     H_    0.352569 0.297448 0.079400 0.156284
H17   H     H_    0.670023 0.382809 0.023914 0.095116
H18   H     H_    0.986181 0.678006 0.430858 0.118653
H19   H     H_    0.086458 0.751661 0.454685 0.124283
H20   H     H_    0.888569 0.774843 0.543598 0.207331
H21   H     H_    0.986802 0.850780 0.563030 0.173130
H22   H     H_    0.976868 0.897080 0.403055 0.138319
H23   H     H_    0.584515 0.614209 0.224169 0.130321
H24   H     H_    0.864426 0.925526 0.458164 0.166790
H25   H     H_    0.877557 0.821338 0.384384 0.157440
H26   H     H_    0.979091 0.551185 0.259052 0.148850
H27   H     H_    0.864726 0.584309 0.306365 0.104109
H28   H     H_    0.912662 0.418439 0.169859 0.190724
H29   H     H_    0.797270 0.441829 0.220502 0.155301
H30   H     H_    0.780524 0.606631 0.157948 0.143097
H31   H     H_    0.798543 0.514746 0.072108 0.180020
H32   H     H_    0.897143 0.584725 0.107423 0.156899
H33   H     H_    0.321835 0.364508 0.369019 0.173281
H34   H     H_    0.364291 0.566042 0.781748 0.138454
H35   H     H_    0.676587 0.642222 0.624925 0.142457
H36   H     H_    0.985929 0.314835 0.548289 0.103978
H37   H     H_    0.112334 0.271987 0.558574 0.150590
H38   H     H_    0.960840 0.189105 0.431161 0.173072
H39   H     H_    0.085797 0.145563 0.442177 0.213721
H40   H     H_    0.061154 0.109069 0.601825 0.166335
H41   H     H_    0.981749 0.046531 0.527892 0.145947
H42   H     H_    0.935441 0.151931 0.589993 0.142291
H43   H     H_    0.034204 0.500227 0.750873 0.167576
H44   H     H_    0.035078 0.428407 0.652412 0.090988
H45   H     H_    0.239413 0.639294 0.560356 0.154385
H46   H     H_    0.873013 0.453849 0.789954 0.265190
H47   H     H_    0.863626 0.383919 0.687894 0.167518
H48   H     H_    0.006801 0.276886 0.733456 0.132386
H49   H     H_    0.913274 0.279887 0.814238 0.183213
H50   H     H_    0.017654 0.346836 0.835989 0.163119
H51   H     H_    0.752359 0.438107 0.370726 0.146660
H52   H     H_    0.700243 0.027390 0.494529 0.087080
H53   H     H_    0.300771 0.974199 0.509132 0.096661
H54   H     H_    0.453454 0.245582 0.324756 0.174725
N1    N     N_R   0.258690 0.500000 0.500020 -0.315620
N2    N     N_R   0.741310 0.500000 0.499980 -0.316818
O1    O     O_R   0.581430 0.500010 0.371450 -0.523614
O2    O     O_2   0.342721 0.105522 0.533253 -0.468169
O3    O     O_3   0.414092 0.344980 0.230899 -0.608738
O4    O     O_3   0.662103 0.399968 0.764186 -0.514524
O5    O     O_2   0.418378 0.315089 0.966945 -0.530697
O6    O     O_2   0.752325 0.383571 0.919055 -0.505875
O7    O     O_3   0.051190 0.666062 0.557625 -0.531268
O8    O     O_3   0.937833 0.450121 0.343913 -0.528692
O9    O     O_2   0.246485 0.262285 0.413845 -0.466074
O10   O     O_2   0.768629 0.596603 0.718777 -0.473841
O11   O     O_3   0.068237 0.337491 0.439034 -0.493091
O12   O     O_R   0.418570 0.499990 0.628550 -0.499314
O13   O     O_3   0.940783 0.554216 0.654578 -0.488193
O14   O     O_R   0.418560 0.500010 0.371460 -0.496606
O15   O     O_R   0.581440 0.499990 0.628540 -0.483889
O16   O     O_R   0.592950 0.362150 0.500010 -0.519333
O17   O     O_R   0.407050 0.637850 0.499990 -0.515563
O18   O     O_R   0.430080 0.362150 0.500020 -0.488015
O19   O     O_R   0.569920 0.637850 0.499980 -0.501142
O20   O     O_2   0.661906 0.894974 0.511291 -0.518553

loop_
_geom_bond_atom_site_label_1
_geom_bond_atom_site_label_2
_ccdc_geom_bond_type
C2    H51   S    
Cu2   O14   S    
C23   C45   A    
C34   C37   S    
C41   C42   S    
C29   H54   S    
C14   C17   S    
C10   O19   A    
Cu1   O19   S    
C7    C8    S    
Cu1   O1    S    
C38   H18   S    
C9    O16   A    
C48   H39   S    
C46   H35   S    
C43   H31   S    
C43   H30   S    
Cu1   O15   S    
C19   C21   A    
C24   C26   A    
C6    O13   S    
C2    C55   A    
C30   C31   S    
C4    C46   S    
C12   O12   A    
C15   C16   S    
C36   O5    D    
C9    C13   S    
C10   O17   A    
C28   O2    D    
C49   H40   S    
C26   C34   A    
C35   H15   S    
C52   H49   S    
Cu2   O18   S    
C22   C25   A    
Cu2   N1    S    
C56   N1    A    
C40   H22   S    
C42   H28   S    
C33   H11   S    
C19   C53   A    
C37   H17   S    
C55   O8    S    
C45   C53   S    
C1    C22   S    
C20   H23   S    
C40   H25   S    
C46   O10   D    
C8    C55   A    
C47   O11   S    
C28   H53   S    
C54   C56   A    
C3    C44   S    
C43   H32   S    
C12   O15   A    
C51   C52   S    
C52   H48   S    
C39   H20   S    
C31   H5    S    
Cu1   O16   S    
C27   H52   S    
C4    C6    A    
C3    N1    A    
C39   C40   S    
C5    C7    A    
C6    C8    A    
C51   H46   S    
C41   H26   S    
C29   O3    S    
C39   H21   S    
C41   O8    S    
C29   C30   S    
C40   H24   S    
C49   H41   S    
C15   C27   S    
C47   C48   S    
C29   H2    S    
Cu2   O17   S    
C51   H47   S    
C50   C51   S    
C44   H33   S    
C36   H16   S    
C50   H43   S    
C32   H9    S    
C1    O14   A    
C48   C49   S    
C54   O7    S    
C20   C22   A    
C35   H14   S    
Cu2   O12   S    
C30   H4    S    
C13   C16   T    
C42   C43   S    
C21   C24   A    
C18   C45   A    
C32   H8    S    
C9    O18   A    
C4    N2    A    
C31   H7    S    
C11   C17   T    
C48   H38   S    
C27   O20   D    
C31   H6    S    
C26   O4    S    
C56   H45   S    
C32   O4    S    
C3    C5    A    
C25   O3    S    
C50   H44   S    
Cu1   N2    S    
C42   H29   S    
C38   H19   S    
C41   H27   S    
C12   C24   S    
C44   O9    D    
C32   C33   S    
C49   H42   S    
C2    N2    A    
Cu1   Cu2   S    
C38   C39   S    
C37   O6    D    
C33   C35   S    
C47   H36   S    
C18   C20   A    
C23   C25   A    
C38   O7    S    
C10   C11   S    
C35   H13   S    
C18   H1    S    
C52   H50   S    
C34   C53   A    
C23   C36   S    
C30   H3    S    
C5    O11   S    
C47   H37   S    
C14   C15   D    
C19   H12   S    
C50   O13   S    
C1    O1    A    
C7    C54   A    
C14   C28   S    
C33   H10   S    
C21   H34   S    
