data_mof_unit_47948.cif
_audit_creation_date              2012-10-26T19:57:20-0400
_audit_creation_method            fapswitch 2.2
_symmetry_space_group_name_H-M    P1
_symmetry_Int_Tables_number       1
_space_group_crystal_system       triclinic
_cell_length_a                    12.990371
_cell_length_b                    10.931322
_cell_length_c                    9.716828
_cell_angle_alpha                 90.365673
_cell_angle_beta                  96.658913
_cell_angle_gamma                 90.812114
_cell_volume                      1370.3177954

loop_
_atom_site_label
_atom_site_type_symbol
_atom_type_description
_atom_site_fract_x
_atom_site_fract_y
_atom_site_fract_z
_atom_type_partial_charge
C1    C     C_R   0.497090 0.265511 0.499230 0.539278
C2    C     C_2   0.486608 0.133825 0.498848 -0.078745
C3    C     C_2   0.461170 0.412082 0.915049 -0.009093
C4    C     C_R   0.300551 0.501156 0.473671 0.533821
C5    C     C_2   0.445005 0.423105 0.065685 0.098514
C6    C     C_R   0.502733 0.734615 0.500862 0.580733
C7    C     C_R   0.699463 0.500301 0.526296 0.558360
C8    C     C_R   0.812450 0.499466 0.541137 0.006240
C9    C     C_R   0.187687 0.507122 0.458013 -0.018729
C10   C     C_R   0.025197 0.558539 0.319679 -0.002996
C11   C     C_R   0.133585 0.547549 0.334049 -0.122613
C12   C     C_R   0.027734 0.486396 0.559865 0.037000
C13   C     C_R   0.134653 0.477160 0.570259 -0.134906
C14   C     C_3   0.361658 0.337562 0.108156 -0.206471
C15   C     C_3   0.254464 0.373000 0.037542 -0.318574
C16   C     C_3   0.168551 0.294897 0.088826 -0.458241
C17   C     C_3   0.965623 0.605168 0.185733 -0.260619
C18   C     C_3   0.030432 0.639958 0.068744 -0.314449
C19   C     C_3   0.962019 0.690102 0.944074 -0.437478
C20   C     C_R   0.971893 0.526396 0.434499 0.046663
C21   C     C_R   0.863871 0.532556 0.427735 -0.129266
C22   C     C_R   0.868842 0.462251 0.664716 -0.135470
C23   C     C_R   0.976089 0.455774 0.674081 -0.139945
C24   C     C_2   0.494299 0.932658 0.389405 -0.133559
C25   C     C_2   0.514323 0.866457 0.505174 0.353432
C26   C     C_2   0.503397 0.066240 0.388698 -0.139524
Cu1   Cu    Cu3+1 0.500020 0.500020 0.638640 0.964582
Cu2   Cu    Cu3+1 0.499980 0.499980 0.361360 0.915587
F1    F     F_    0.553028 0.918206 0.628523 -0.649045
H1    H     H_    0.818325 0.562485 0.334188 0.118107
H2    H     H_    0.472070 0.887708 0.290143 0.100679
H3    H     H_    0.520845 0.109393 0.293508 0.139902
H4    H     H_    0.180158 0.196719 0.065851 0.155941
H5    H     H_    0.167923 0.307428 0.202243 0.163096
H6    H     H_    0.092264 0.322666 0.035648 0.143010
H7    H     H_    0.240621 0.470803 0.059354 0.164355
H8    H     H_    0.251067 0.360881 0.923439 0.149481
H9    H     H_    0.378972 0.242541 0.077458 0.103280
H10   H     H_    0.358426 0.335338 0.219815 0.218191
H11   H     H_    0.900152 0.622709 0.906859 0.161060
H12   H     H_    0.461691 0.093043 0.591039 0.179938
H13   H     H_    0.925716 0.776680 0.972486 0.163344
H14   H     H_    0.009789 0.708810 0.858679 0.156468
H15   H     H_    0.089029 0.711485 0.105657 0.163704
H16   H     H_    0.070190 0.557807 0.034658 0.155263
H17   H     H_    0.908835 0.532963 0.144791 0.142190
H18   H     H_    0.922210 0.687542 0.211686 0.148423
H19   H     H_    0.431716 0.330560 0.858566 0.144614
H20   H     H_    0.518036 0.579764 0.898255 0.214161
H21   H     H_    0.557867 0.547587 0.115996 0.200639
H22   H     H_    0.829983 0.436053 0.753058 0.131284
H23   H     H_    0.018643 0.425870 0.770304 0.104033
H24   H     H_    0.177447 0.572387 0.250491 0.127799
H25   H     H_    0.176724 0.446105 0.666384 0.118910
N1    N     N_2   0.498860 0.498660 0.846770 -0.359895
N2    N     N_2   0.498840 0.498630 0.152900 -0.341801
O1    O     O_R   0.500020 0.321960 0.617050 -0.496441
O2    O     O_R   0.499980 0.321920 0.382890 -0.514577
O3    O     O_R   0.349010 0.500000 0.598060 -0.500934
O4    O     O_R   0.348980 0.499950 0.363910 -0.519379
O5    O     O_R   0.500020 0.678080 0.617110 -0.452564
O6    O     O_R   0.499980 0.678040 0.382950 -0.534890
O7    O     O_R   0.651020 0.500050 0.636090 -0.489099
O8    O     O_R   0.650990 0.500000 0.401940 -0.502779

loop_
_geom_bond_atom_site_label_1
_geom_bond_atom_site_label_2
_ccdc_geom_bond_type
C8    C22   A    
C26   H3    S    
Cu2   O2    S    
C16   H4    S    
C14   H9    S    
Cu1   O5    S    
C21   H1    S    
C15   H7    S    
C5    N2    D    
C11   H24   S    
C19   H13   S    
C6    O6    A    
C4    O4    A    
Cu1   O1    S    
C8    C21   A    
C23   H23   S    
C24   H2    S    
C7    C8    S    
C2    C26   D    
Cu1   O3    S    
C1    O2    A    
C24   C25   D    
C25   F1    S    
C12   C13   A    
C9    C11   A    
C12   C23   A    
C7    O7    A    
C5    C14   S    
Cu1   O7    S    
C12   C20   A    
Cu2   O8    S    
C4    O3    A    
C24   C26   S    
C17   C18   S    
C18   H15   S    
Cu2   O4    S    
C16   H6    S    
Cu2   N2    S    
C14   C15   S    
C14   H10   S    
Cu1   N1    S    
C7    O8    A    
C6    C25   S    
C19   H11   S    
C2    H12   S    
C15   C16   S    
C19   H14   S    
C18   H16   S    
C3    H19   S    
C17   H17   S    
C6    O5    A    
C20   C21   A    
C13   H25   S    
C10   C11   A    
Cu1   Cu2   S    
C1    C2    S    
C1    O1    A    
C22   C23   A    
C18   C19   S    
C9    C13   A    
H21   N2    S    
C10   C17   S    
C16   H5    S    
C4    C9    S    
H20   N1    S    
C3    N1    D    
C15   H8    S    
C17   H18   S    
C10   C20   A    
C22   H22   S    
C3    C5    S    
Cu2   O6    S    
