data_mof_unit_25375.cif
_audit_creation_date              2012-12-10T17:59:44-0500
_audit_creation_method            fapswitch 2.2
_symmetry_space_group_name_H-M    P1
_symmetry_Int_Tables_number       1
_space_group_crystal_system       triclinic
_cell_length_a                    10.80342
_cell_length_b                    9.527524
_cell_length_c                    15.878196
_cell_angle_alpha                 90.05146
_cell_angle_beta                  90.038694
_cell_angle_gamma                 90.012905
_cell_volume                      1634.33915312

loop_
_atom_site_label
_atom_site_type_symbol
_atom_type_description
_atom_site_fract_x
_atom_site_fract_y
_atom_site_fract_z
_atom_type_partial_charge
C1    C     C_R   0.262513 0.499964 0.500145 0.898134
C2    C     C_3   0.632147 0.513598 0.951571 -0.360090
C3    C     C_3   0.631710 0.513494 0.049180 -0.371857
C4    C     C_1   0.498757 0.500111 0.825117 -0.086336
C5    C     C_1   0.497326 0.499736 0.174927 -0.093312
C6    C     C_1   0.497629 0.499738 0.250487 -0.116913
C7    C     C_R   0.065382 0.429265 0.564698 0.182354
C8    C     C_R   0.065480 0.570655 0.435745 0.168330
C9    C     C_R   0.935934 0.427981 0.564499 -0.055555
C10   C     C_R   0.936116 0.572720 0.436133 -0.060916
C11   C     C_R   0.871864 0.500224 0.500153 -0.257258
C12   C     C_R   0.128937 0.499893 0.500198 -0.160710
C13   C     C_R   0.424024 0.074289 0.447146 0.013237
C14   C     C_R   0.424074 0.925546 0.447121 0.010148
C15   C     C_R   0.498697 0.499918 0.340173 0.887623
C16   C     C_R   0.576094 0.925726 0.552874 0.004427
C17   C     C_R   0.576076 0.074494 0.552884 0.013843
C18   C     C_R   0.737583 0.500046 0.499852 0.890178
C19   C     C_R   0.499573 0.500055 0.659859 0.889655
C20   C     C_3   0.420390 0.624625 0.048775 -0.361374
C21   C     C_3   0.441124 0.361511 0.048561 -0.373233
C22   C     C_3   0.441570 0.361617 0.950949 -0.364051
C23   C     C_3   0.420813 0.624727 0.951160 -0.375301
C24   C     C_1   0.499128 0.500135 0.749550 -0.091003
C25   C     C_3   0.497589 0.499832 0.082775 0.298446
C26   C     C_3   0.498329 0.500022 0.917283 0.292877
Cu1   Cu    Cu3+1 0.500020 0.640660 0.500000 1.002563
Cu2   Cu    Cu3+1 0.500020 0.359340 0.500000 1.012079
H1    H     H_    0.324015 0.617285 0.927504 0.180544
H2    H     H_    0.345154 0.349429 0.927271 0.184629
H3    H     H_    0.637111 0.869820 0.595200 0.133915
H4    H     H_    0.637011 0.130589 0.595236 0.137546
H5    H     H_    0.323393 0.617161 0.071955 0.185395
H6    H     H_    0.344493 0.349296 0.071716 0.177871
H7    H     H_    0.495133 0.270049 0.072025 0.170658
H8    H     H_    0.459262 0.725482 0.072379 0.170137
H9    H     H_    0.495803 0.270216 0.927590 0.170064
H10   H     H_    0.459860 0.725649 0.927940 0.169296
H11   H     H_    0.674394 0.612337 0.072811 0.172531
H12   H     H_    0.689182 0.424797 0.072659 0.179786
H13   H     H_    0.675027 0.612504 0.928360 0.174671
H14   H     H_    0.689821 0.424947 0.928212 0.180126
H15   H     H_    0.363049 0.130201 0.404795 0.135412
H16   H     H_    0.363237 0.869539 0.404700 0.166437
N1    N     N_R   0.500030 0.852070 0.500020 -0.173221
N2    N     N_R   0.500030 0.147930 0.500020 -0.169697
O1    O     O_R   0.319660 0.618740 0.500000 -0.562196
O2    O     O_R   0.319660 0.381260 0.500000 -0.562038
O3    O     O_R   0.500020 0.618840 0.379440 -0.570305
O4    O     O_R   0.500020 0.381160 0.379440 -0.585159
O5    O     O_R   0.680370 0.618830 0.500010 -0.580684
O6    O     O_R   0.680370 0.381170 0.500010 -0.573729
O7    O     O_R   0.500010 0.618730 0.620560 -0.592198
O8    O     O_R   0.500010 0.381270 0.620560 -0.561745
Br1   Br    Br    0.155843 0.346474 0.657648 -0.476074
Br2   Br    Br    0.155642 0.652513 0.342396 -0.515302
C27   C     C_2   0.868325 0.355518 0.633318 0.902266
O9    O     O_2   0.790471 0.418889 0.674264 -0.637893
O10   O     O_R   0.893558 0.214676 0.650965 -0.715492
H17   H     H_    0.841360 0.176970 0.698926 0.323881
C28   C     C_2   0.868601 0.645350 0.367439 0.927499
O11   O     O_2   0.887761 0.769758 0.353757 -0.542907
O12   O     O_R   0.783491 0.571112 0.318352 -0.782705
H18   H     H_    0.744781 0.631559 0.272899 0.322694

loop_
_geom_bond_atom_site_label_1
_geom_bond_atom_site_label_2
_ccdc_geom_bond_type
C16   N1    A    
C18   O5    A    
C4    C26   S    
Cu1   O7    S    
C1    O2    A    
C21   H7    S    
C23   H10   S    
C9    C11   A    
C19   O7    A    
C20   C23   S    
C7    Br1   S    
C8    C12   A    
Cu2   N2    S    
C8    Br2   S    
C28   O12   S    
C19   C24   S    
C15   O4    A    
C3    H11   S    
O10   H17   S    
C11   C18   S    
C21   C22   S    
C16   H3    S    
Cu2   O6    S    
Cu1   N1    S    
C27   O9    D    
C5    C6    T    
C1    C12   S    
C2    H14   S    
C5    C25   S    
C20   H5    S    
C23   H1    S    
C19   O8    A    
C14   H16   S    
Cu1   O5    S    
C3    H12   S    
C2    C3    S    
C14   N1    A    
C9    C27   S    
C15   O3    A    
C22   C26   S    
C28   O11   D    
C4    C24   T    
C7    C12   A    
C27   O10   S    
C10   C28   S    
C10   C11   A    
C2    H13   S    
C18   O6    A    
O12   H18   S    
C20   H8    S    
C13   H15   S    
C3    C25   S    
C17   N2    A    
C2    C26   S    
C20   C25   S    
C23   C26   S    
Cu1   O1    S    
Cu1   Cu2   S    
C7    C9    A    
C17   H4    S    
C21   C25   S    
C13   N2    A    
C1    O1    A    
Cu2   O8    S    
C21   H6    S    
C22   H2    S    
C6    C15   S    
C13   C14   A    
C22   H9    S    
Cu2   O4    S    
C8    C10   A    
Cu2   O2    S    
Cu1   O3    S    
C16   C17   A    
