data_mof_unit_66150.cif
_audit_creation_date              2012-12-10T21:26:42-0500
_audit_creation_method            fapswitch 2.2
_symmetry_space_group_name_H-M    P1
_symmetry_Int_Tables_number       1
_space_group_crystal_system       triclinic
_cell_length_a                    10.722088
_cell_length_b                    16.154673
_cell_length_c                    16.836284
_cell_angle_alpha                 86.77268
_cell_angle_beta                  90.53301
_cell_angle_gamma                 92.511299
_cell_volume                      2908.75379305

loop_
_atom_site_label
_atom_site_type_symbol
_atom_type_description
_atom_site_fract_x
_atom_site_fract_y
_atom_site_fract_z
_atom_type_partial_charge
C1    C     C_R   0.494406 0.488281 0.652714 0.896301
C2    C     C_R   0.411296 0.538960 0.777288 0.065460
C3    C     C_R   0.401180 0.531244 0.859564 -0.207744
C4    C     C_R   0.455650 0.464855 0.902696 0.304053
C5    C     C_R   0.509632 0.402329 0.862846 -0.185439
C6    C     C_R   0.519925 0.409405 0.780707 -0.255371
C7    C     C_R   0.557206 0.469494 0.134565 -0.212955
C8    C     C_R   0.568059 0.464132 0.216681 -0.039046
C9    C     C_R   0.484036 0.530250 0.096284 0.260071
C10   C     C_R   0.505894 0.520711 0.261196 -0.090872
C11   C     C_R   0.441050 0.585165 0.222826 -0.272765
C12   C     C_R   0.737578 0.500353 0.498077 0.945168
C13   C     C_R   0.430329 0.590294 0.140371 0.001662
C14   C     C_R   0.424985 0.761761 0.471946 -0.007056
C15   C     C_R   0.429998 0.848852 0.471272 -0.273628
C16   C     C_R   0.529808 0.890511 0.509611 0.329515
C17   C     C_R   0.620877 0.842521 0.547947 -0.288375
C18   C     C_R   0.611851 0.755690 0.547602 0.003754
C19   C     C_R   0.552714 0.149145 0.541750 -0.123894
C20   C     C_R   0.559338 0.237018 0.540451 0.055733
C21   C     C_R   0.470774 0.108479 0.487768 0.273004
C22   C     C_R   0.404256 0.245195 0.439555 -0.008882
C23   C     C_R   0.503311 0.511738 0.347261 0.875952
C24   C     C_R   0.396204 0.158365 0.437459 -0.302558
C25   C     C_R   0.262729 0.499493 0.504951 0.925914
C26   C     C_2   0.070858 0.566681 0.511960 -0.204616
C27   C     C_2   0.133991 0.497308 0.525872 -0.038740
C28   C     C_2   0.937266 0.566293 0.517762 -0.178059
C29   C     C_2   0.869445 0.502236 0.491487 -0.333674
C30   C     C_R   0.475705 0.479235 0.738012 -0.033111
H1    H     H_    0.116794 0.624293 0.488933 0.160655
H2    H     H_    0.353996 0.578301 0.889767 0.157016
H3    H     H_    0.698919 0.872423 0.577947 0.158462
H4    H     H_    0.682901 0.719270 0.576943 0.129264
H5    H     H_    0.345459 0.282461 0.400642 0.143835
H6    H     H_    0.357539 0.882784 0.440430 0.157069
H7    H     H_    0.331223 0.129790 0.396504 0.159878
H8    H     H_    0.349441 0.729916 0.441441 0.128366
H9    H     H_    0.895123 0.620356 0.539975 0.175201
H10   H     H_    0.910994 0.450819 0.464349 0.158431
H11   H     H_    0.604751 0.425708 0.100283 0.160174
H12   H     H_    0.549691 0.350358 0.895890 0.152166
H13   H     H_    0.566405 0.361875 0.750949 0.181007
H14   H     H_    0.394865 0.629477 0.257279 0.164081
N1    N     N_2   0.466384 0.462352 0.986045 -0.192674
N2    N     N_2   0.465115 0.532340 0.013391 -0.187933
N3    N     N_R   0.515110 0.716920 0.509720 -0.087235
N4    N     N_2   0.544167 0.979062 0.511035 -0.164829
N5    N     N_2   0.455135 0.019648 0.483619 -0.179865
N6    N     N_R   0.484890 0.283060 0.490290 -0.111924
O1    O     O_R   0.494590 0.422540 0.612660 -0.624302
O2    O     O_R   0.504290 0.561850 0.618900 -0.595758
O3    O     O_R   0.676080 0.430360 0.496880 -0.612773
O4    O     O_R   0.685780 0.569670 0.503120 -0.626234
O5    O     O_R   0.495710 0.438150 0.381100 -0.615182
O6    O     O_R   0.505410 0.577460 0.387340 -0.618936
O7    O     O_R   0.314220 0.430330 0.496880 -0.612279
O8    O     O_R   0.323920 0.569640 0.503120 -0.640178
Zn1   Zn    Zn3+2 0.493520 0.406980 0.495830 0.968977
Zn2   Zn    Zn3+2 0.506480 0.593020 0.504170 0.952639
C31   C     C_1   0.359105 0.655113 0.101940 0.170559
N7    N     N_1   0.301994 0.707069 0.071092 -0.200503
N8    N     N_3   0.355348 0.606893 0.733960 -0.428880
H15   H     H_    0.393728 0.662173 0.755030 0.194257
H16   H     H_    0.259815 0.603977 0.746321 0.185004
C32   C     C_1   0.645923 0.278844 0.592580 0.241823
N9    N     N_1   0.716301 0.311511 0.634369 -0.231023
C33   C     C_1   0.625743 0.103194 0.600792 0.193630
N10   N     N_1   0.684094 0.066791 0.648025 -0.197491
N11   N     N_3   0.084560 0.424184 0.570124 -0.446783
H17   H     H_    0.055524 0.379550 0.530548 0.192611
H18   H     H_    0.010954 0.437613 0.606900 0.220299
C34   C     C_1   0.644806 0.401026 0.253415 0.187159
N12   N     N_1   0.706221 0.350550 0.282850 -0.197582

loop_
_geom_bond_atom_site_label_1
_geom_bond_atom_site_label_2
_ccdc_geom_bond_type
C4    N1    S    
C5    H12   S    
N8    H16   S    
C23   O5    A    
N11   H17   S    
O5    Zn1   S    
C10   C23   S    
C14   H8    S    
C1    O1    A    
C34   N12   T    
C26   C28   S    
C19   C20   A    
C2    C30   A    
C22   N6    A    
C18   N3    A    
C16   N4    S    
C21   N5    S    
C32   N9    T    
O3    Zn1   S    
C9    N2    S    
O4    Zn2   S    
N1    N2    D    
C8    C34   S    
C4    C5    A    
C25   O8    A    
C22   H5    S    
C18   H4    S    
C23   O6    A    
C26   C27   D    
C5    C6    A    
C27   N11   S    
C17   H3    S    
C20   N6    A    
N4    N5    D    
N6    Zn1   S    
C29   H10   S    
C20   C32   S    
C1    C30   S    
C19   C21   A    
C17   C18   A    
C2    C3    A    
C6    H13   S    
C7    H11   S    
C3    H2    S    
C12   C29   S    
C1    O2    A    
C22   C24   A    
O7    Zn1   S    
C11   C13   A    
O1    Zn1   S    
C31   N7    T    
O6    Zn2   S    
O8    Zn2   S    
C15   C16   A    
C25   O7    A    
C11   H14   S    
C15   H6    S    
C19   C33   S    
C13   C31   S    
C2    N8    S    
C8    C10   A    
C7    C8    A    
C10   C11   A    
C21   C24   A    
C24   H7    S    
C7    C9    A    
C9    C13   A    
C14   C15   A    
C28   C29   D    
N11   H18   S    
O2    Zn2   S    
C28   H9    S    
C6    C30   A    
N3    Zn2   S    
C33   N10   T    
C14   N3    A    
C26   H1    S    
C12   O4    A    
C3    C4    A    
C12   O3    A    
C16   C17   A    
N8    H15   S    
C25   C27   S    
