data_mof_unit_35229.cif
_audit_creation_date              2012-12-11T14:29:41-0500
_audit_creation_method            fapswitch 2.2
_symmetry_space_group_name_H-M    P1
_symmetry_Int_Tables_number       1
_space_group_crystal_system       triclinic
_cell_length_a                    6.965795
_cell_length_b                    15.023261
_cell_length_c                    16.143618
_cell_angle_alpha                 91.014865
_cell_angle_beta                  89.896697
_cell_angle_gamma                 90.38492
_cell_volume                      1689.10724943

loop_
_atom_site_label
_atom_site_type_symbol
_atom_type_description
_atom_site_fract_x
_atom_site_fract_y
_atom_site_fract_z
_atom_type_partial_charge
O1    O     O_R   0.494400 0.416610 0.413880 -0.541477
O2    O     O_R   0.823920 0.406790 0.585520 -0.546883
O3    O     O_R   0.994250 0.583390 0.586120 -0.538390
C1    C     C_R   0.654081 0.386692 0.613728 0.743154
O4    O     O_R   0.824110 0.405730 0.414490 -0.540553
O5    O     O_R   0.994440 0.582310 0.413870 -0.542407
C2    C     C_R   0.654552 0.383444 0.386685 0.744641
O6    O     O_R   0.494210 0.417690 0.586130 -0.548549
O7    O     O_3   0.660810 0.557940 0.500000 -0.368263
V1    V     V_3+5 0.935650 0.489250 0.500000 1.384831
O8    O     O_R   0.324160 0.593210 0.414480 -0.541803
C3    C     C_R   0.156398 0.613172 0.385101 0.678867
O9    O     O_R   0.323970 0.594270 0.585510 -0.542004
C4    C     C_R   0.155606 0.615142 0.614740 0.678358
V2    V     V_3+5 0.435660 0.510750 0.500000 1.391627
O10   O     O_3   0.160630 0.442060 0.500000 -0.383135
H1    H     H_    0.103581 0.889284 0.485366 0.117530
C5    C     C_R   0.152390 0.565376 0.797149 0.060505
C6    C     C_R   0.157271 0.547516 0.882292 -0.099030
C7    C     C_R   0.153209 0.615440 0.940732 -0.162640
C8    C     C_R   0.141862 0.702867 0.916399 -0.125991
C9    C     C_R   0.135855 0.726137 0.831603 0.064197
C10   C     C_R   0.144829 0.656859 0.769746 0.019731
C11   C     C_R   0.118676 0.817493 0.809848 -0.158155
C12   C     C_R   0.112046 0.842554 0.723432 0.000213
C13   C     C_R   0.135622 0.773251 0.662474 0.068872
C14   C     C_R   0.147067 0.682076 0.684214 -0.157616
C15   C     C_R   0.080866 0.932948 0.693999 0.020742
C16   C     C_R   0.049622 0.946368 0.607258 0.160730
C17   C     C_R   0.103313 0.879326 0.551482 -0.173981
C18   C     C_R   0.147334 0.795744 0.578182 -0.177805
H2    H     H_    0.164104 0.480468 0.905144 0.114302
H3    H     H_    0.157279 0.600124 0.006015 0.130745
H4    H     H_    0.137274 0.751893 0.966149 0.111358
H5    H     H_    0.180995 0.747553 0.529875 0.112328
C19   C     C_2   0.995066 0.714445 0.286376 -0.121945
C20   C     C_2   0.156217 0.672546 0.311749 0.044662
H6    H     H_    0.861998 0.702598 0.319700 0.101116
C21   C     C_2   0.979649 0.773346 0.212455 -0.116078
C22   C     C_2   0.125030 0.823379 0.182771 -0.284904
H7    H     H_    0.838755 0.778633 0.184352 0.134222
H8    H     H_    0.263075 0.823849 0.213411 0.173583
C23   C     C_2   0.626379 0.174763 0.746344 -0.196682
C24   C     C_2   0.625614 0.188053 0.829721 0.082735
H9    H     H_    0.613156 0.106304 0.724060 0.089993
C25   C     C_2   0.660524 0.240696 0.679504 -0.189006
C26   C     C_2   0.638518 0.329175 0.685989 -0.288884
H10   H     H_    0.698712 0.212969 0.619216 0.128294
H11   H     H_    0.584109 0.360499 0.741517 0.133963
C27   C     C_2   0.778185 0.207026 0.216076 -0.130085
C28   C     C_2   0.614522 0.181230 0.177740 -0.307400
H12   H     H_    0.913062 0.177383 0.196587 0.137413
H13   H     H_    0.478067 0.210036 0.195314 0.127558
C29   C     C_2   0.790288 0.275439 0.284070 -0.136292
C30   C     C_2   0.637588 0.314844 0.320219 -0.310391
H14   H     H_    0.933599 0.293421 0.305140 0.136700
H15   H     H_    0.493030 0.297269 0.301308 0.129979
O11   O     O_R   0.770210 0.079270 0.910680 -0.550999
O12   O     O_R   0.440150 0.091160 0.082270 -0.544713
O13   O     O_R   0.269970 0.914530 0.082860 -0.539337
C31   C     C_R   0.609047 0.112972 0.110580 0.756916
O14   O     O_R   0.440480 0.090100 0.911240 -0.554605
O15   O     O_R   0.270310 0.913460 0.910610 -0.539819
C32   C     C_R   0.610253 0.111441 0.884175 0.753890
O16   O     O_R   0.769870 0.080340 0.082930 -0.537231
O17   O     O_3   0.603660 0.938980 0.996790 -0.369338
V3    V     V_3+5 0.328750 0.007610 0.996740 1.392280
O18   O     O_R   0.940600 0.902510 0.911180 -0.541236
C33   C     C_R   0.108658 0.883622 0.880267 0.672046
O19   O     O_R   0.940270 0.903570 0.082200 -0.539237
C34   C     C_R   0.108952 0.883657 0.111329 0.720273
V4    V     V_3+5 0.828770 0.986010 0.996670 1.409348
O20   O     O_3   0.103730 0.054750 0.996710 -0.385359
N1    N     N_3   0.330299 0.679281 0.264423 -0.668112
H16   H     H_    0.437760 0.705528 0.303033 0.223955
H17   H     H_    0.370983 0.615115 0.245789 0.228007
N2    N     N_3   0.647373 0.273138 0.870288 -0.690244
H18   H     H_    0.520251 0.308542 0.864962 0.220444
H19   H     H_    0.762231 0.308299 0.845356 0.233692
C35   C     C_3   0.153202 0.487281 0.736561 -0.376110
C36   C     C_3   0.157013 0.392346 0.767374 -0.370121
C37   C     C_3   0.156914 0.327663 0.692372 -0.699452
H20   H     H_    0.177097 0.361226 0.632730 0.261321
H21   H     H_    0.273220 0.278765 0.696933 0.228150
H22   H     H_    0.019157 0.291868 0.687879 0.229758
H23   H     H_    0.287366 0.382629 0.804839 0.185155
H24   H     H_    0.029599 0.379918 0.806654 0.191380
H25   H     H_    0.018714 0.490775 0.700686 0.205098
H26   H     H_    0.285067 0.493567 0.698918 0.197050
C38   C     C_3   0.082582 0.010813 0.755973 -0.380992
C39   C     C_3   0.107743 0.108158 0.731820 -0.388988
C40   C     C_3   0.120956 0.167180 0.810478 -0.677434
H27   H     H_    0.103000 0.129464 0.867699 0.266916
H28   H     H_    0.259569 0.202318 0.814308 0.219956
H29   H     H_    0.007434 0.217672 0.811362 0.221659
H30   H     H_    0.239138 0.116011 0.693430 0.199240
H31   H     H_    0.983244 0.132374 0.697648 0.207086
H32   H     H_    0.949899 0.006086 0.793389 0.193671
H33   H     H_    0.214910 0.001760 0.792229 0.197110
C41   C     C_3   0.947885 0.027819 0.573597 -0.377517
C42   C     C_3   0.853877 0.016159 0.487564 -0.323812
C43   C     C_3   0.725231 0.094894 0.467623 -0.773691
H34   H     H_    0.603198 0.098630 0.511913 0.221045
H35   H     H_    0.808660 0.158166 0.470715 0.227339
H36   H     H_    0.666508 0.086297 0.404047 0.226079
H37   H     H_    0.966526 0.012050 0.438846 0.190967
H38   H     H_    0.765383 0.954273 0.485457 0.203587
H39   H     H_    0.828441 0.043618 0.616861 0.182495
H40   H     H_    0.051710 0.083960 0.569729 0.169834

loop_
_geom_bond_atom_site_label_1
_geom_bond_atom_site_label_2
_ccdc_geom_bond_type
C42   H38   S    
C20   N1    S    
C42   C43   S    
C22   C34   S    
C6    C7    A    
C28   C31   S    
C2    C30   S    
C1    O6    A    
C36   C37   S    
C26   H11   S    
N2    H18   S    
C24   C32   S    
C12   C15   A    
C13   C14   A    
C27   C29   S    
N1    H17   S    
O14   V3    S    
C37   H22   S    
C15   C16   A    
O5    C3    A    
C17   C18   A    
V2    O10   S    
C3    C20   S    
C43   H36   S    
C5    C6    A    
C35   H26   S    
C40   H27   S    
O14   C32   A    
O12   V3    S    
C39   H30   S    
C29   C30   D    
O8    V2    S    
O17   V4    S    
O15   C33   A    
O13   V3    S    
O18   C33   A    
C27   H12   S    
O19   C34   A    
V3    O20   S    
C10   C14   A    
C4    C14   S    
O7    V1    S    
C36   H23   S    
C22   H8    S    
O17   V3    S    
C41   H40   S    
O9    C4    A    
H1    C17   S    
C6    H2    S    
C11   C33   S    
O15   V3    S    
N2    H19   S    
O11   C32   A    
C29   H14   S    
C41   H39   S    
O12   C31   A    
N1    H16   S    
C5    C10   A    
C11   C12   A    
C21   H7    S    
C21   C22   D    
O4    C2    A    
V4    O20   S    
C8    H4    S    
O13   C34   A    
C12   C13   A    
C40   H29   S    
C28   H13   S    
O2    C1    A    
C23   C24   D    
C16   C17   A    
O18   V4    S    
C40   H28   S    
C27   C28   D    
C39   H31   S    
C43   H35   S    
C23   H9    S    
C36   H24   S    
O3    C4    A    
O1    V2    S    
C7    H3    S    
O6    V2    S    
C37   H21   S    
C30   H15   S    
C18   H5    S    
O2    V1    S    
C38   H33   S    
C39   C40   S    
C42   H37   S    
C25   C26   D    
C19   C20   D    
C16   C41   S    
O1    C2    A    
C19   C21   S    
C35   C36   S    
O5    V1    S    
O19   V4    S    
O8    C3    A    
O16   V4    S    
C24   N2    S    
O9    V2    S    
O7    V2    S    
O4    V1    S    
C35   H25   S    
O3    V1    S    
V1    O10   S    
O11   V4    S    
C38   C39   S    
C19   H6    S    
C41   C42   S    
C9    C11   A    
C43   H34   S    
C23   C25   S    
C25   H10   S    
C31   O16   A    
C13   C18   A    
C7    C8    A    
C5    C35   S    
C37   H20   S    
C9    C10   A    
C15   C38   S    
C8    C9    A    
C38   H32   S    
C1    C26   S    
