data_mof_unit_25987.cif
_audit_creation_date              2012-12-11T14:52:26-0500
_audit_creation_method            fapswitch 2.2
_symmetry_space_group_name_H-M    P1
_symmetry_Int_Tables_number       1
_space_group_crystal_system       triclinic
_cell_length_a                    19.143529
_cell_length_b                    11.28834
_cell_length_c                    18.586009
_cell_angle_alpha                 89.850302
_cell_angle_beta                  91.813879
_cell_angle_gamma                 89.894951
_cell_volume                      4014.37810349

loop_
_atom_site_label
_atom_site_type_symbol
_atom_type_description
_atom_site_fract_x
_atom_site_fract_y
_atom_site_fract_z
_atom_type_partial_charge
C1    C     C_R   0.277540 0.029475 0.858708 0.572262
C2    C     C_R   0.722552 0.030033 0.141247 0.577271
C3    C     C_R   0.777228 0.530346 0.858571 0.571269
C4    C     C_R   0.222595 0.530050 0.141315 0.569294
C5    C     C_3   0.527658 0.728323 0.971820 0.267583
C6    C     C_3   0.472353 0.728939 0.028861 0.268416
C7    C     C_3   0.028332 0.228705 0.971622 0.267299
C8    C     C_3   0.973580 0.228098 0.029063 0.268709
C9    C     C_R   0.295005 0.493052 0.952945 0.284526
C10   C     C_R   0.708446 0.490176 0.048655 0.271696
C11   C     C_R   0.795710 0.994216 0.953108 0.285053
C12   C     C_R   0.203571 0.994675 0.046660 0.290663
C13   C     C_R   0.292788 0.501468 0.029363 0.319763
C14   C     C_R   0.708819 0.499062 0.972018 0.316692
C15   C     C_R   0.793191 0.003555 0.029420 0.318592
C16   C     C_R   0.206939 0.001107 0.970304 0.319990
C17   C     C_R   0.232890 0.545909 0.062955 0.008944
C18   C     C_R   0.767209 0.546510 0.937047 0.021686
C19   C     C_R   0.732560 0.045410 0.062712 0.021239
C20   C     C_R   0.266698 0.045910 0.936885 0.013554
C21   C     C_R   0.175180 0.577904 0.019159 -0.208675
C22   C     C_R   0.824679 0.582106 0.979870 -0.197308
C23   C     C_R   0.674449 0.074466 0.018577 -0.202994
C24   C     C_R   0.323796 0.079031 0.980822 -0.202049
C25   C     C_R   0.179650 0.578670 0.944634 -0.212914
C26   C     C_R   0.820871 0.583911 0.054409 -0.206708
C27   C     C_R   0.679372 0.075672 0.944032 -0.212827
C28   C     C_R   0.319213 0.079017 0.055376 -0.220464
C29   C     C_R   0.242962 0.555742 0.912160 -0.007629
C30   C     C_R   0.758299 0.558690 0.087507 0.012056
C31   C     C_R   0.743160 0.054771 0.911957 -0.007972
C32   C     C_R   0.256069 0.055847 0.088023 -0.021558
C33   C     C_R   0.491762 0.729553 0.530636 0.233963
C34   C     C_R   0.478344 0.732344 0.456342 0.228747
C35   C     C_R   0.990972 0.229990 0.530358 0.232822
C36   C     C_R   0.977504 0.233419 0.456064 0.227332
C37   C     C_R   0.493350 0.837362 0.420380 -0.053606
C38   C     C_R   0.488309 0.835417 0.569914 -0.048554
C39   C     C_R   0.993467 0.338225 0.420421 -0.055963
C40   C     C_R   0.987549 0.335541 0.569839 -0.049218
C41   C     C_R   0.493257 0.945736 0.457561 0.211952
C42   C     C_R   0.490913 0.945410 0.533671 0.202081
C43   C     C_R   0.993829 0.446472 0.457958 0.210018
C44   C     C_R   0.990300 0.445597 0.533944 0.200483
C45   C     C_R   0.469244 0.820654 0.854997 0.560599
C46   C     C_R   0.530682 0.821048 0.144967 0.558929
C47   C     C_R   0.969088 0.320632 0.855120 0.561442
C48   C     C_R   0.031022 0.320984 0.144870 0.562435
C49   C     C_R   0.209760 0.673549 0.523201 -0.102188
C50   C     C_R   0.756676 0.736264 0.487297 -0.149265
C51   C     C_R   0.708426 0.169544 0.524094 -0.097012
C52   C     C_R   0.256311 0.235600 0.487160 -0.149557
C53   C     C_R   0.221980 0.683388 0.450829 0.205476
C54   C     C_R   0.763597 0.705417 0.558936 0.183480
C55   C     C_R   0.720488 0.180804 0.451833 0.208414
C56   C     C_R   0.263919 0.204595 0.558663 0.184901
C57   C     C_R   0.258250 0.590334 0.421019 0.004718
C58   C     C_R   0.742607 0.591912 0.579693 0.016080
C59   C     C_R   0.757842 0.089670 0.421391 0.005543
C60   C     C_R   0.243014 0.091755 0.579567 0.020293
C61   C     C_R   0.308911 0.526270 0.462992 0.215735
C62   C     C_R   0.699810 0.521892 0.532871 0.217898
C63   C     C_R   0.808901 0.025786 0.463068 0.215531
C64   C     C_R   0.200564 0.021672 0.532681 0.218420
C65   C     C_R   0.306991 0.538543 0.537796 -0.120428
C66   C     C_R   0.693466 0.556007 0.461503 -0.130812
C67   C     C_R   0.806676 0.036550 0.538113 -0.120183
C68   C     C_R   0.195999 0.053834 0.460899 -0.131183
C69   C     C_R   0.254676 0.607132 0.567698 -0.068608
C70   C     C_R   0.726633 0.658267 0.438062 -0.063150
C71   C     C_R   0.754095 0.104444 0.568288 -0.068015
C72   C     C_R   0.227813 0.157055 0.437783 -0.061023
C73   C     C_R   0.259274 0.629679 0.848643 0.510913
C74   C     C_R   0.740988 0.630208 0.151376 0.527050
C75   C     C_R   0.759331 0.129607 0.848640 0.510762
C76   C     C_R   0.240662 0.129556 0.151611 0.525290
C77   C     C_R   0.270853 0.043389 0.645916 0.571453
C78   C     C_R   0.729991 0.044231 0.353668 0.534353
C79   C     C_R   0.770888 0.543142 0.645802 0.570045
C80   C     C_R   0.229972 0.544133 0.353677 0.531850
C81   C     C_R   0.466316 0.824298 0.645118 0.566886
C82   C     C_R   0.529823 0.824665 0.352217 0.546604
C83   C     C_R   0.966057 0.324271 0.645070 0.568459
C84   C     C_R   0.030011 0.324808 0.352335 0.546197
C85   C     C_R   0.260385 0.640099 0.642535 0.542927
C86   C     C_R   0.725422 0.688034 0.362904 0.566287
C87   C     C_R   0.760210 0.139250 0.642838 0.542445
C88   C     C_R   0.225623 0.187821 0.362935 0.565127
C89   C     C_3   0.471385 0.922558 0.028352 -0.178595
C90   C     C_3   0.527976 0.922091 0.970623 -0.177160
C91   C     C_3   0.971410 0.421801 0.028737 -0.175647
C92   C     C_3   0.027755 0.422511 0.970685 -0.177010
C93   C     C_3   0.430349 0.824474 0.987023 -0.118480
C94   C     C_3   0.569416 0.824651 0.012787 -0.118216
C95   C     C_3   0.930606 0.323132 0.987627 -0.116695
C96   C     C_3   0.069970 0.325435 0.012431 -0.119400
C97   C     C_3   0.488024 0.824689 0.930427 0.027284
C98   C     C_3   0.511762 0.825834 0.069441 0.025956
C99   C     C_3   0.987919 0.324656 0.930600 0.024272
C100  C     C_3   0.012612 0.325604 0.069384 0.025647
Cr1   Cr    Cr6+3 0.229630 0.835900 0.747350 1.040987
Cr2   Cr    Cr6+3 0.770370 0.835900 0.252650 1.038944
Cr3   Cr    Cr6+3 0.729630 0.335900 0.747350 1.045512
Cr4   Cr    Cr6+3 0.270370 0.335900 0.252650 1.038378
Cr5   Cr    Cr6+3 0.387410 0.989850 0.750850 0.995101
Cr6   Cr    Cr6+3 0.612590 0.989850 0.249150 0.997860
Cr7   Cr    Cr6+3 0.887410 0.489850 0.750850 0.995732
Cr8   Cr    Cr6+3 0.112590 0.489850 0.249150 1.001222
Cr9   Cr    Cr6+3 0.385800 0.677120 0.749340 0.989884
Cr10  Cr    Cr6+3 0.614200 0.677120 0.250660 0.978534
Cr11  Cr    Cr6+3 0.885800 0.177120 0.749340 0.990389
Cr12  Cr    Cr6+3 0.114200 0.177120 0.250660 0.978054
H1    H     H_    0.373291 0.822105 0.974750 0.121865
H2    H     H_    0.626540 0.823258 0.024975 0.125398
H3    H     H_    0.873419 0.320533 0.975798 0.129184
H4    H     H_    0.127178 0.324533 0.024342 0.127305
H5    H     H_    0.167573 0.720394 0.545980 0.207981
H6    H     H_    0.775198 0.820031 0.468933 0.185126
H7    H     H_    0.666024 0.215282 0.547252 0.206927
H8    H     H_    0.272658 0.320356 0.469327 0.185417
H9    H     H_    0.343880 0.493195 0.573316 0.174659
H10   H     H_    0.663795 0.501086 0.424310 0.175116
H11   H     H_    0.843903 0.991439 0.573558 0.175275
H12   H     H_    0.167243 0.998067 0.423420 0.177797
H13   H     H_    0.453329 0.003390 0.054560 0.119123
H14   H     H_    0.545019 0.002686 0.942859 0.119330
H15   H     H_    0.953135 0.502087 0.055645 0.123012
H16   H     H_    0.044703 0.503506 0.943267 0.120426
O1    O     O_R   0.214270 0.709000 0.827470 -0.546896
O2    O     O_R   0.785730 0.709000 0.172530 -0.544067
O3    O     O_R   0.714270 0.209000 0.827470 -0.540016
O4    O     O_R   0.285730 0.209000 0.172530 -0.540704
O5    O     O_R   0.445950 0.919440 0.676520 -0.492408
O6    O     O_R   0.554050 0.919440 0.323480 -0.480471
O7    O     O_R   0.945950 0.419440 0.676520 -0.489532
O8    O     O_R   0.054050 0.419440 0.323480 -0.477662
O9    O     O_R   0.456730 0.717630 0.669840 -0.475823
O10   O     O_R   0.543270 0.717630 0.330160 -0.489786
O11   O     O_R   0.956730 0.217630 0.669840 -0.476114
O12   O     O_R   0.043270 0.217630 0.330160 -0.489538
O13   O     O_R   0.320620 0.625640 0.672920 -0.512894
O14   O     O_R   0.679380 0.625640 0.327080 -0.529971
O15   O     O_R   0.820620 0.125640 0.672920 -0.512487
O16   O     O_R   0.179380 0.125640 0.327080 -0.532943
O17   O     O_3   0.334280 0.834290 0.749180 -0.276418
O18   O     O_3   0.665720 0.834290 0.250820 -0.297356
O19   O     O_3   0.834280 0.334290 0.749180 -0.276759
O20   O     O_3   0.165720 0.334290 0.250820 -0.297379
O21   O     O_R   0.236160 0.958490 0.823130 -0.468391
O22   O     O_R   0.763840 0.958490 0.176870 -0.470026
O23   O     O_R   0.736160 0.458490 0.823130 -0.464309
O24   O     O_R   0.263840 0.458490 0.176870 -0.465679
O25   O     O_R   0.332080 0.075470 0.831280 -0.543254
O26   O     O_R   0.667920 0.075470 0.168720 -0.539957
O27   O     O_R   0.832080 0.575470 0.831280 -0.545254
O28   O     O_R   0.167920 0.575470 0.168720 -0.544529
O29   O     O_R   0.446300 0.918110 0.826620 -0.517063
O30   O     O_R   0.553700 0.918110 0.173380 -0.514459
O31   O     O_R   0.946300 0.418110 0.826620 -0.516661
O32   O     O_R   0.053700 0.418110 0.173380 -0.512300
O33   O     O_R   0.457110 0.716200 0.831760 -0.535697
O34   O     O_R   0.542890 0.716200 0.168240 -0.534758
O35   O     O_R   0.957110 0.216200 0.831760 -0.535461
O36   O     O_R   0.042890 0.216200 0.168240 -0.534783
O37   O     O_R   0.320980 0.624310 0.823030 -0.528279
O38   O     O_R   0.679020 0.624310 0.176970 -0.522671
O39   O     O_R   0.820980 0.124310 0.823030 -0.528853
O40   O     O_R   0.179020 0.124310 0.176970 -0.519627
O41   O     O_R   0.213890 0.710430 0.665540 -0.490887
O42   O     O_R   0.786110 0.710430 0.334460 -0.475047
O43   O     O_R   0.713890 0.210430 0.665540 -0.490919
O44   O     O_R   0.286110 0.210430 0.334460 -0.474433
O45   O     O_R   0.235810 0.959820 0.673020 -0.462899
O46   O     O_R   0.764190 0.959820 0.326980 -0.485200
O47   O     O_R   0.735810 0.459820 0.673020 -0.463160
O48   O     O_R   0.264190 0.459820 0.326980 -0.484555
O49   O     O_R   0.331700 0.076900 0.669350 -0.517934
O50   O     O_R   0.668300 0.076900 0.330650 -0.506928
O51   O     O_R   0.831700 0.576900 0.669350 -0.521206
O52   O     O_R   0.168300 0.576900 0.330650 -0.510179
O53   O     O_3   0.186522 0.767056 0.408580 -0.594966
C101  C     C_3   0.233511 0.823603 0.361876 -0.111212
H17   H     H_    0.257350 0.761883 0.323191 0.104396
H18   H     H_    0.275088 0.871378 0.393137 0.129409
H19   H     H_    0.204190 0.889191 0.328087 0.144934
O54   O     O_3   0.799806 0.781398 0.605788 -0.588817
C102  C     C_3   0.751719 0.829533 0.655231 -0.120940
H20   H     H_    0.729491 0.760178 0.691067 0.117932
H21   H     H_    0.707929 0.877353 0.626195 0.111728
H22   H     H_    0.780646 0.895008 0.690520 0.138024
O55   O     O_3   0.684039 0.263914 0.410177 -0.593554
C103  C     C_3   0.730330 0.323913 0.364673 -0.107422
H23   H     H_    0.754907 0.264612 0.325251 0.106720
H24   H     H_    0.771398 0.372236 0.396699 0.128591
H25   H     H_    0.700156 0.389249 0.331839 0.147703
O56   O     O_3   0.299802 0.280069 0.605465 -0.589306
C104  C     C_3   0.251942 0.329583 0.653622 -0.125038
H26   H     H_    0.230278 0.261737 0.689951 0.120468
H27   H     H_    0.208093 0.376606 0.624123 0.110281
H28   H     H_    0.280609 0.395232 0.687821 0.140854
O57   O     O_3   0.354270 0.449155 0.428279 -0.554337
C105  C     C_3   0.408943 0.400750 0.471710 -0.093792
H29   H     H_    0.388371 0.330614 0.506740 0.137390
H30   H     H_    0.437036 0.469145 0.503997 0.196219
H31   H     H_    0.447795 0.359229 0.436128 0.141746
O58   O     O_3   0.666326 0.421403 0.558012 -0.550394
C106  C     C_3   0.598080 0.405399 0.526613 -0.143725
H32   H     H_    0.599169 0.339715 0.483906 0.152047
H33   H     H_    0.574321 0.484659 0.501078 0.177311
H34   H     H_    0.562634 0.372941 0.568469 0.131224
O59   O     O_3   0.855926 0.952412 0.427666 -0.550727
C107  C     C_3   0.910113 0.903009 0.471774 -0.091343
H35   H     H_    0.888858 0.833595 0.507118 0.131666
H36   H     H_    0.938090 0.971322 0.504065 0.198545
H37   H     H_    0.949207 0.860139 0.436969 0.142859
O60   O     O_3   0.164629 0.924216 0.558612 -0.553867
C108  C     C_3   0.097543 0.908865 0.524322 -0.147162
H38   H     H_    0.100524 0.844685 0.480876 0.149748
H39   H     H_    0.074885 0.988934 0.498180 0.178285
H40   H     H_    0.060454 0.875906 0.564558 0.133060
O61   O     O_3   0.559467 0.629041 0.940519 -0.530056
C109  C     C_3   0.509376 0.543711 0.917291 -0.024485
H41   H     H_    0.515701 0.526001 0.859169 0.151922
H42   H     H_    0.454113 0.567416 0.926938 0.148183
H43   H     H_    0.519201 0.458793 0.944985 0.104190
O62   O     O_3   0.440734 0.630995 0.061641 -0.526837
C110  C     C_3   0.490578 0.544327 0.083255 -0.025788
H44   H     H_    0.483567 0.522810 0.141167 0.151108
H45   H     H_    0.546101 0.570621 0.075216 0.142245
H46   H     H_    0.481377 0.461530 0.052982 0.103445
O63   O     O_3   0.059633 0.129735 0.939725 -0.523665
C111  C     C_3   0.009226 0.044354 0.917344 -0.020149
H47   H     H_    0.015083 0.025882 0.859239 0.149030
H48   H     H_    0.954034 0.068346 0.927377 0.146990
H49   H     H_    0.019217 0.959804 0.945223 0.110831
O64   O     O_3   0.943298 0.129192 0.062195 -0.525308
C112  C     C_3   0.993796 0.043206 0.083884 -0.012595
H50   H     H_    0.986081 0.020901 0.141632 0.147747
H51   H     H_    0.049677 0.070077 0.077031 0.166099
H52   H     H_    0.985038 0.960188 0.053511 0.109836
O65   O     O_3   0.323338 0.386520 0.928510 -0.609093
C113  C     C_3   0.345748 0.388958 0.856687 -0.102984
H53   H     H_    0.386380 0.456294 0.849236 0.122224
H54   H     H_    0.300488 0.395644 0.817649 0.130079
H55   H     H_    0.372717 0.303976 0.846058 0.143338
O66   O     O_3   0.693666 0.377534 0.074803 -0.602619
C114  C     C_3   0.651756 0.377770 0.135869 -0.102531
H56   H     H_    0.617019 0.455976 0.138678 0.111125
H57   H     H_    0.685385 0.367179 0.186086 0.145220
H58   H     H_    0.615902 0.299285 0.131982 0.128310
O67   O     O_3   0.824817 0.887989 0.929675 -0.608965
C115  C     C_3   0.847651 0.888532 0.857767 -0.102565
H59   H     H_    0.887761 0.956799 0.850204 0.121775
H60   H     H_    0.802630 0.893757 0.818158 0.129262
H61   H     H_    0.875487 0.803616 0.847777 0.139861
O68   O     O_3   0.162270 0.900701 0.071876 -0.609718
C116  C     C_3   0.154483 0.891803 0.147871 -0.103297
H62   H     H_    0.112517 0.952646 0.165213 0.129416
H63   H     H_    0.205252 0.897796 0.179044 0.124247
H64   H     H_    0.132942 0.803664 0.159857 0.145740
O69   O     O_3   0.349453 0.467917 0.072500 -0.528008
C117  C     C_3   0.361671 0.346017 0.068017 -0.058633
H65   H     H_    0.312386 0.297301 0.057491 0.171780
H66   H     H_    0.386193 0.316259 0.119761 0.130781
H67   H     H_    0.399364 0.325477 0.025759 0.128369
O70   O     O_3   0.652056 0.464001 0.929944 -0.531558
C118  C     C_3   0.639115 0.342945 0.938593 -0.065496
H68   H     H_    0.688697 0.293655 0.946229 0.177189
H69   H     H_    0.611136 0.310643 0.889282 0.125271
H70   H     H_    0.604386 0.326818 0.984399 0.122005
O71   O     O_3   0.850220 0.972423 0.072665 -0.524935
C119  C     C_3   0.862416 0.850230 0.070097 -0.056227
H71   H     H_    0.813168 0.801197 0.059751 0.166780
H72   H     H_    0.886343 0.822437 0.122517 0.133219
H73   H     H_    0.900419 0.827786 0.028470 0.128607
O72   O     O_3   0.150668 0.967505 0.926999 -0.521804
C120  C     C_3   0.139541 0.845174 0.930933 -0.056422
H74   H     H_    0.188918 0.797032 0.943193 0.158503
H75   H     H_    0.116560 0.816184 0.878479 0.134253
H76   H     H_    0.100422 0.822842 0.971497 0.134838
H77   H     H_    0.126177 0.603173 0.042352 0.157108
H78   H     H_    0.872970 0.609395 0.956026 0.156138
H79   H     H_    0.625010 0.097880 0.041562 0.148234
H80   H     H_    0.372651 0.105157 0.957719 0.156359
H81   H     H_    0.135808 0.611658 0.912638 0.120944
H82   H     H_    0.864562 0.618287 0.085863 0.118775
H83   H     H_    0.635622 0.108342 0.911774 0.121412
H84   H     H_    0.363116 0.111254 0.087421 0.123728
O73   O     O_3   0.511752 0.625257 0.564832 -0.565363
C121  C     C_3   0.576957 0.644345 0.602406 -0.101673
H85   H     H_    0.575770 0.705814 0.648489 0.115712
H86   H     H_    0.615451 0.682042 0.565509 0.096664
H87   H     H_    0.594983 0.560922 0.627892 0.178082
O74   O     O_3   0.459498 0.630787 0.418202 -0.526255
C122  C     C_3   0.406458 0.659047 0.364895 -0.041025
H88   H     H_    0.423511 0.711548 0.318620 0.111873
H89   H     H_    0.363742 0.710252 0.388744 0.076207
H90   H     H_    0.387101 0.577622 0.338517 0.195015
O75   O     O_3   0.011169 0.125639 0.564343 -0.566913
C123  C     C_3   0.076464 0.144707 0.601738 -0.099990
H91   H     H_    0.075824 0.207585 0.647147 0.113685
H92   H     H_    0.115034 0.180641 0.564346 0.097121
H93   H     H_    0.093879 0.061637 0.628119 0.181957
O76   O     O_3   0.957861 0.132662 0.417581 -0.523819
C124  C     C_3   0.904994 0.162730 0.364413 -0.037740
H94   H     H_    0.922391 0.216482 0.318803 0.111995
H95   H     H_    0.862253 0.213219 0.388757 0.075214
H96   H     H_    0.885437 0.082183 0.337119 0.195048
O77   O     O_3   0.483613 0.048653 0.417591 -0.561464
C125  C     C_3   0.541475 0.124503 0.425687 -0.006544
H97   H     H_    0.552208 0.163331 0.372101 0.178425
H98   H     H_    0.589992 0.079642 0.447432 0.150611
H99   H     H_    0.527093 0.199418 0.460292 0.094811
O78   O     O_3   0.511724 0.044148 0.572250 -0.584775
C126  C     C_3   0.455755 0.124604 0.579464 -0.025389
H100  H     H_    0.447484 0.137322 0.637541 0.186678
H101  H     H_    0.405905 0.099348 0.551259 0.152776
H102  H     H_    0.471817 0.212710 0.560234 0.076793
O79   O     O_3   0.988664 0.550802 0.418552 -0.559053
C127  C     C_3   0.049448 0.619081 0.428749 -0.010787
H103  H     H_    0.057730 0.670499 0.378080 0.180106
H104  H     H_    0.097564 0.564170 0.442322 0.145034
H105  H     H_    0.041052 0.684584 0.472113 0.112467
O80   O     O_3   0.009170 0.545037 0.573412 -0.580969
C128  C     C_3   0.951176 0.624257 0.579005 -0.019239
H106  H     H_    0.943179 0.641149 0.637553 0.187752
H107  H     H_    0.900951 0.595212 0.551709 0.148869
H108  H     H_    0.965607 0.711366 0.557018 0.078240

loop_
_geom_bond_atom_site_label_1
_geom_bond_atom_site_label_2
_ccdc_geom_bond_type
C12   O68   S    
C55   C59   A    
C121  H87   S    
Cr11  O11   S    
C89   H13   S    
C41   O77   S    
C7    C99   S    
C5    C6    S    
C95   C99   S    
O71   C119  S    
C104  H27   S    
C45   O33   A    
C101  H17   S    
C11   C15   A    
C12   C16   A    
O80   C128  S    
C106  H34   S    
C113  H54   S    
C66   H10   S    
C10   O66   S    
C91   C100  S    
C40   C44   A    
C46   C98   S    
C49   C69   A    
C40   C83   S    
C51   C71   A    
C25   C29   A    
Cr12  O36   S    
C125  H98   S    
C113  H55   S    
C105  H29   S    
C27   C31   A    
O55   C103  S    
C127  H105  S    
C28   C32   A    
O58   C106  S    
O78   C126  S    
C85   O41   A    
C101  H19   S    
C55   O55   S    
C82   O6    A    
C15   C19   A    
C43   C44   A    
C52   C72   A    
C10   C30   A    
C110  H44   S    
C68   C72   A    
C87   O43   A    
C111  H48   S    
C90   H14   S    
C91   H15   S    
C58   C79   S    
C38   C81   S    
C22   H78   S    
C79   O51   A    
Cr11  O39   S    
C123  H91   S    
Cr5   O5    S    
C114  H58   S    
C1    C20   S    
Cr7   O51   S    
C2    C19   S    
Cr9   O17   S    
Cr2   O2    S    
Cr5   O49   S    
O56   C104  S    
C67   H11   S    
C117  H66   S    
C57   C61   A    
C48   O36   A    
C59   C63   A    
C33   C38   A    
C60   C64   A    
Cr4   O24   S    
C35   C40   A    
C50   C70   A    
C82   O10   A    
C24   H80   S    
C66   C70   A    
C119  H73   S    
C49   C53   A    
C76   O40   A    
C51   C55   A    
C22   C26   A    
C61   C65   A    
C107  H35   S    
C96   H4    S    
O54   C102  S    
C62   O58   S    
Cr7   O27   S    
C103  H24   S    
C115  H59   S    
Cr8   O20   S    
C2    O22   A    
Cr5   O25   S    
Cr12  O12   S    
Cr1   O45   S    
C9    O65   S    
Cr10  O34   S    
Cr3   O19   S    
C7    C8    S    
Cr4   O48   S    
C47   O31   A    
C48   O32   A    
Cr1   O17   S    
C64   C68   A    
C39   C84   S    
O69   C117  S    
C30   C74   S    
C118  H70   S    
C44   O80   S    
C46   O30   A    
C92   C96   S    
C47   C99   S    
O64   C112  S    
C116  H62   S    
C128  H107  S    
C21   H77   S    
C34   O74   S    
C49   H5    S    
C124  H95   S    
C51   H7    S    
C123  H93   S    
Cr11  O15   S    
C2    O26   A    
C120  H74   S    
Cr3   O43   S    
C57   C80   S    
C8    C95   S    
C59   C78   S    
C4    O24   A    
C62   C66   A    
C45   O29   A    
C73   O37   A    
C10   C14   A    
C85   O13   A    
C91   C92   S    
C119  H71   S    
C109  H43   S    
C108  H38   S    
C77   O49   A    
C127  H104  S    
O61   C109  S    
C107  H37   S    
C42   O78   S    
O73   C121  S    
C43   O79   S    
C109  H42   S    
C115  H61   S    
C110  H45   S    
C5    C97   S    
C26   C30   A    
C54   O54   S    
C93   C97   S    
C69   C85   S    
C21   C25   A    
O66   C114  S    
C126  H102  S    
C86   O42   A    
C36   C39   A    
C24   C28   A    
C63   O59   S    
C32   C76   S    
C118  H68   S    
C81   O5    A    
C117  H65   S    
C23   H79   S    
C13   C17   A    
C89   C98   S    
C116  H64   S    
C120  H75   S    
C8    C100  S    
C76   O4    A    
C96   C100  S    
C37   C41   A    
C104  H26   S    
C101  H18   S    
C91   C95   S    
Cr6   O6    S    
O72   C120  S    
C119  H72   S    
O62   C110  S    
C120  H76   S    
C106  H33   S    
Cr9   O13   S    
Cr10  O18   S    
Cr3   O3    S    
Cr6   O50   S    
C92   C99   S    
Cr1   O1    S    
C58   C62   A    
Cr2   O42   S    
C34   C37   A    
C41   C42   A    
Cr4   O20   S    
C35   C36   A    
C16   O72   S    
C117  H67   S    
C83   O11   A    
C5    C94   S    
O67   C115  S    
C7    O63   S    
O53   C101  S    
C108  H40   S    
C81   O9    A    
C7    C96   S    
C50   C54   A    
C105  H30   S    
C6    C98   S    
O74   C122  S    
C94   C98   S    
C9    C13   A    
C121  H85   S    
C102  H22   S    
Cr7   O7    S    
C56   O56   S    
Cr5   O29   S    
Cr6   O26   S    
C105  H31   S    
Cr1   O41   S    
C65   H9    S    
C90   C97   S    
Cr3   O23   S    
Cr4   O44   S    
C47   O35   A    
C126  H100  S    
C50   H6    S    
C48   C100  S    
C123  H92   S    
C90   C94   S    
C114  H57   S    
C73   O1    A    
C106  H32   S    
C122  H89   S    
C122  H88   S    
C53   C57   A    
C56   C60   A    
C104  H28   S    
O75   C123  S    
C103  H25   S    
Cr11  O19   S    
Cr7   O19   S    
C31   C75   S    
O59   C107  S    
Cr8   O28   S    
Cr10  O10   S    
C6    C93   S    
Cr5   O17   S    
C3    O27   A    
C113  H53   S    
C93   H1    S    
C1    O25   A    
Cr9   O37   S    
Cr2   O22   S    
C71   C87   S    
C4    C17   S    
C8    O64   S    
C4    O28   A    
C107  H36   S    
C37   C82   S    
Cr2   O46   S    
C74   O2    A    
C74   O38   A    
C86   O14   A    
C115  H60   S    
C125  H97   S    
C84   O8    A    
C77   O45   A    
C78   O50   A    
C33   O73   S    
Cr8   O8    S    
C35   O75   S    
C18   C22   A    
C102  H20   S    
C127  H103  S    
C118  H69   S    
C65   C69   A    
C6    O62   S    
C111  H47   S    
C67   C71   A    
C128  H106  S    
C17   C21   A    
O79   C127  S    
C124  H94   S    
Cr4   O4    S    
Cr9   O33   S    
C89   C90   S    
C125  H99   S    
C5    O61   S    
C88   O44   A    
O57   C105  S    
C14   C18   A    
C19   C23   A    
C68   H12   S    
C94   H2    S    
O77   C125  S    
C80   O52   A    
C26   H82   S    
C29   C73   S    
Cr12  O40   S    
O65   C113  S    
Cr8   O52   S    
C3    C18   S    
Cr9   O9    S    
Cr10  O14   S    
C61   O57   S    
C20   C24   A    
C95   H3    S    
C23   C27   A    
C83   O7    A    
C16   C20   A    
C11   C31   A    
C12   C32   A    
C89   C93   S    
C15   O71   S    
C92   H16   S    
Cr3   O47   S    
C72   C88   S    
C75   O3    A    
C36   O76   S    
C122  H90   S    
C63   C67   A    
C60   C77   S    
C126  H101  S    
C79   O47   A    
Cr11  O35   S    
O60   C108  S    
C80   O48   A    
C39   C43   A    
Cr6   O30   S    
C27   H83   S    
C111  H49   S    
C11   O67   S    
Cr12  O20   S    
C116  H63   S    
C128  H108  S    
C53   O53   S    
C28   H84   S    
C124  H96   S    
O68   C116  S    
C33   C34   A    
C52   H8    S    
O76   C124  S    
C112  H51   S    
C112  H52   S    
C70   C86   S    
C54   C58   A    
C64   O60   S    
C25   H81   S    
C1    O21   A    
Cr7   O31   S    
C114  H56   S    
Cr8   O32   S    
C9    C29   A    
C108  H39   S    
C3    O23   A    
Cr6   O18   S    
C103  H23   S    
Cr12  O16   S    
C45   C97   S    
Cr2   O18   S    
Cr10  O38   S    
Cr1   O21   S    
C121  H86   S    
C109  H41   S    
C102  H21   S    
O70   C118  S    
C38   C42   A    
C14   O70   S    
C110  H46   S    
C84   O12   A    
C46   O34   A    
O63   C111  S    
C78   O46   A    
C75   O39   A    
C87   O15   A    
C112  H50   S    
C13   O69   S    
C88   O16   A    
C52   C56   A    
