data_mof_unit_6093.cif
_audit_creation_date              2013-03-05T15:57:41-0500
_audit_creation_method            fapswitch 2.2
_symmetry_space_group_name_H-M    P1
_symmetry_Int_Tables_number       1
_space_group_crystal_system       triclinic
_cell_length_a                    19.580692
_cell_length_b                    17.592218
_cell_length_c                    12.597948
_cell_angle_alpha                 91.227875
_cell_angle_beta                  99.328199
_cell_angle_gamma                 89.571181
_cell_volume                      4281.18234548

loop_
_atom_site_label
_atom_site_type_symbol
_atom_site_description
_atom_site_fract_x
_atom_site_fract_y
_atom_site_fract_z
_atom_type_partial_charge
O1    O     O_R   0.448200 0.076800 0.373930 -0.598719
O2    O     O_R   0.448200 0.923200 0.373930 -0.558195
O3    O     O_R   0.948200 0.576800 0.373930 -0.595004
O4    O     O_R   0.948200 0.423200 0.373930 -0.560766
O5    O     O_R   0.414750 0.076790 0.542400 -0.597417
O6    O     O_R   0.414750 0.923210 0.542400 -0.550239
O7    O     O_R   0.914750 0.576790 0.542400 -0.599017
O8    O     O_R   0.914750 0.423210 0.542400 -0.546972
C1    C     C_R   0.416489 0.107835 0.449074 0.862542
C2    C     C_R   0.411694 0.896431 0.443377 0.873933
C3    C     C_R   0.916776 0.608061 0.449145 0.859469
C4    C     C_R   0.910551 0.397960 0.442343 0.872808
Zn1   Zn    Zn3+2 0.522330 0.000000 0.387520 0.961576
Zn2   Zn    Zn3+2 0.022330 0.500000 0.387520 0.962197
Zn3   Zn    Zn3+2 0.477660 0.000000 0.612480 0.948979
Zn4   Zn    Zn3+2 0.977660 0.500000 0.612480 0.951646
O9    O     O_R   0.585240 0.923200 0.457600 -0.611599
O10   O     O_R   0.585240 0.076800 0.457600 -0.623369
O11   O     O_R   0.085240 0.423200 0.457600 -0.612413
O12   O     O_R   0.085240 0.576800 0.457600 -0.626197
O13   O     O_R   0.551780 0.923190 0.626070 -0.638715
O14   O     O_R   0.551780 0.076810 0.626070 -0.620098
O15   O     O_R   0.051780 0.423190 0.626070 -0.635286
O16   O     O_R   0.051780 0.576810 0.626070 -0.617913
C5    C     C_R   0.590841 0.898597 0.557013 0.834514
C6    C     C_R   0.590410 0.101838 0.557845 0.844427
C7    C     C_R   0.090880 0.398629 0.557060 0.836947
C8    C     C_R   0.090712 0.601467 0.557991 0.846544
C9    C     C_R   0.749074 0.190359 0.720902 -0.278222
C10   C     C_R   0.729332 0.787643 0.735575 -0.244122
C11   C     C_R   0.244994 0.695329 0.727619 -0.261752
C12   C     C_R   0.230292 0.290638 0.738175 -0.225995
H1    H     H_    0.775237 0.193646 0.803393 0.144298
H2    H     H_    0.740475 0.765429 0.815634 0.155902
H3    H     H_    0.268611 0.699083 0.811349 0.145814
H4    H     H_    0.243400 0.273070 0.820512 0.156954
C13   C     C_R   0.647413 0.155130 0.593950 -0.086391
C14   C     C_R   0.649624 0.848308 0.595387 -0.141496
C15   C     C_R   0.148642 0.653363 0.594916 -0.086757
C16   C     C_R   0.150003 0.348920 0.595996 -0.141049
C17   C     C_R   0.332615 0.829321 0.299675 -0.224030
C18   C     C_R   0.372733 0.211219 0.325167 -0.228739
C19   C     C_R   0.821995 0.347201 0.298149 -0.206280
C20   C     C_R   0.872625 0.710776 0.323990 -0.218163
C21   C     C_R   0.279013 0.777971 0.265682 0.278757
C22   C     C_R   0.331429 0.274937 0.299671 0.283890
C23   C     C_R   0.762363 0.304618 0.264292 0.274542
C24   C     C_R   0.828687 0.772565 0.295874 0.281932
C25   C     C_R   0.251548 0.737781 0.343622 -0.244610
C26   C     C_R   0.294390 0.306330 0.376066 -0.260861
C27   C     C_R   0.735469 0.261543 0.340187 -0.284678
C28   C     C_R   0.790799 0.802572 0.372200 -0.264270
C29   C     C_R   0.278909 0.746137 0.454676 0.059187
C30   C     C_R   0.302527 0.277058 0.481334 0.067086
C31   C     C_R   0.770325 0.256444 0.448063 0.071729
C32   C     C_R   0.800977 0.775504 0.478858 0.066293
C33   C     C_R   0.340848 0.786767 0.484355 0.037859
C34   C     C_R   0.355009 0.223199 0.511322 0.032273
C35   C     C_R   0.835729 0.290729 0.475043 0.037643
C36   C     C_R   0.854663 0.723285 0.509814 0.027007
C37   C     C_R   0.741846 0.221046 0.531206 0.066603
C38   C     C_R   0.758061 0.796063 0.554899 0.066773
C39   C     C_R   0.246093 0.717112 0.537436 0.064090
C40   C     C_R   0.259186 0.297404 0.557035 0.059406
C41   C     C_R   0.781002 0.216447 0.636599 0.063439
C42   C     C_R   0.776927 0.776126 0.664257 0.026696
C43   C     C_R   0.278948 0.722492 0.646516 0.060060
C44   C     C_R   0.277029 0.276189 0.666066 0.044051
C45   C     C_R   0.345174 0.754264 0.673358 0.215889
C46   C     C_R   0.340670 0.239479 0.700371 0.172753
C47   C     C_R   0.850555 0.239907 0.655713 0.205640
C48   C     C_R   0.841944 0.742469 0.699539 0.173614
C49   C     C_R   0.377006 0.782072 0.590585 -0.193954
C50   C     C_R   0.379093 0.213112 0.622050 -0.239422
C51   C     C_R   0.877272 0.275497 0.574360 -0.190151
C52   C     C_R   0.879717 0.714813 0.620652 -0.224667
C53   C     C_R   0.674882 0.191377 0.513168 -0.284833
C54   C     C_R   0.694087 0.830497 0.522570 -0.276111
C55   C     C_R   0.179733 0.686106 0.515034 -0.284448
C56   C     C_R   0.195711 0.332747 0.524293 -0.278612
C57   C     C_R   0.682112 0.160825 0.700768 0.219774
C58   C     C_R   0.665573 0.823693 0.702810 0.226673
C59   C     C_R   0.180150 0.661665 0.703097 0.211132
C60   C     C_R   0.165449 0.324478 0.703649 0.220422
C61   C     C_R   0.363422 0.834279 0.408192 -0.159600
C62   C     C_R   0.381651 0.181874 0.428997 -0.170263
C63   C     C_R   0.857838 0.341500 0.403249 -0.157556
C64   C     C_R   0.881900 0.682111 0.428301 -0.170346
H5    H     H_    0.643129 0.193000 0.435183 0.161148
H6    H     H_    0.676960 0.842364 0.439007 0.171335
H7    H     H_    0.150830 0.686003 0.434715 0.163226
H8    H     H_    0.179866 0.346036 0.440833 0.172784
H9    H     H_    0.348401 0.867744 0.242473 0.203446
H10   H     H_    0.399003 0.185804 0.264147 0.171768
H11   H     H_    0.838360 0.388003 0.244432 0.200528
H12   H     H_    0.899271 0.684492 0.264448 0.166818
H13   H     H_    0.687698 0.232432 0.311632 0.118421
H14   H     H_    0.755918 0.849031 0.347553 0.134485
H15   H     H_    0.209349 0.699808 0.314815 0.139700
H16   H     H_    0.261508 0.354657 0.352420 0.125986
H17   H     H_    0.429470 0.802469 0.609787 0.164146
H18   H     H_    0.427698 0.184648 0.647899 0.189995
H19   H     H_    0.931258 0.291849 0.590026 0.151568
H20   H     H_    0.929352 0.688166 0.644991 0.185200
C65   C     C_R   0.642173 0.019451 0.134463 0.444198
C66   C     C_R   0.139524 0.529335 0.134159 0.444966
H21   H     H_    0.653769 0.030740 0.307166 0.185303
H22   H     H_    0.150383 0.543848 0.305417 0.188028
H23   H     H_    0.668313 0.009699 0.933304 0.186696
H24   H     H_    0.167510 0.513493 0.935124 0.177845
N1    N     N_R   0.552340 0.000000 0.237260 -0.172498
N2    N     N_R   0.052340 0.500000 0.237260 -0.172670
C67   C     C_R   0.378593 0.992777 0.760833 0.593583
C68   C     C_R   0.878368 0.495191 0.760368 0.588488
C69   C     C_R   0.352638 0.987989 0.857749 -0.016306
C70   C     C_R   0.851899 0.494429 0.857168 -0.009363
C71   C     C_R   0.398742 0.994989 0.955260 0.140050
C72   C     C_R   0.897990 0.500894 0.954786 0.143727
C73   C     C_R   0.471650 0.994787 0.954390 -0.019283
C74   C     C_R   0.970853 0.497892 0.954276 -0.017620
C75   C     C_R   0.494633 0.999033 0.854091 0.024946
C76   C     C_R   0.994271 0.500043 0.854211 0.026526
C77   C     C_R   0.522900 0.993307 0.048199 -0.153959
C78   C     C_R   0.021818 0.496704 0.048154 -0.151531
C79   C     C_R   0.593442 0.006886 0.041046 -0.031715
C80   C     C_R   0.091776 0.513249 0.041108 -0.028356
C81   C     C_R   0.614157 0.006407 0.940930 -0.199731
C82   C     C_R   0.113178 0.510702 0.941641 -0.209131
C83   C     C_R   0.565340 0.001480 0.848927 -0.088486
C84   C     C_R   0.064992 0.502347 0.849450 -0.078269
C85   C     C_R   0.508452 0.975816 0.149958 0.647996
C86   C     C_R   0.007818 0.477483 0.149612 0.639714
C87   C     C_R   0.618638 0.019596 0.233119 -0.254705
C88   C     C_R   0.116520 0.526669 0.232512 -0.250753
N3    N     N_R   0.448170 0.000000 0.762060 -0.197697
N4    N     N_R   0.948170 0.500000 0.762060 -0.200654
H25   H     H_    0.584398 0.001701 0.774418 0.230183
H26   H     H_    0.084372 0.500671 0.775120 0.228351
N5    N     N_2   0.650773 0.137866 0.788661 -0.306072
H27   H     H_    0.686288 0.121523 0.853847 0.218230
C89   C     C_3   0.602754 0.193354 0.820311 -0.780034
H28   H     H_    0.579726 0.171357 0.888424 0.244146
H29   H     H_    0.560681 0.204669 0.752059 0.250370
H30   H     H_    0.630004 0.247360 0.846942 0.232539
N6    N     N_2   0.615843 0.831997 0.773811 -0.289526
H31   H     H_    0.567972 0.811496 0.740626 0.231564
C90   C     C_3   0.634767 0.817104 0.887481 -0.813299
H32   H     H_    0.591890 0.835402 0.930170 0.247273
H33   H     H_    0.681627 0.849928 0.922299 0.255929
H34   H     H_    0.643623 0.755281 0.900145 0.234163
N7    N     N_2   0.147405 0.638032 0.788827 -0.303692
H35   H     H_    0.182448 0.621456 0.854357 0.228418
C91   C     C_3   0.100335 0.694338 0.820405 -0.777290
H36   H     H_    0.075479 0.671811 0.886278 0.254295
H37   H     H_    0.060025 0.707862 0.750683 0.247838
H38   H     H_    0.128699 0.747102 0.850319 0.233113
N8    N     N_2   0.114441 0.331093 0.773166 -0.284678
H39   H     H_    0.066778 0.308952 0.740791 0.240911
C92   C     C_3   0.133352 0.319916 0.887690 -0.830926
H40   H     H_    0.088941 0.335773 0.928505 0.245600
H41   H     H_    0.177612 0.357005 0.921109 0.247594
H42   H     H_    0.146285 0.259256 0.904039 0.237359
O17   O     O_3   0.711865 0.026977 0.128428 -0.613819
C93   C     C_3   0.734674 0.099913 0.166177 -0.334631
H43   H     H_    0.699589 0.145341 0.128328 0.164995
H44   H     H_    0.786438 0.109467 0.144024 0.194547
H45   H     H_    0.740615 0.104155 0.255279 0.173483
O18   O     O_3   0.204443 0.557501 0.127836 -0.606812
C94   C     C_3   0.253645 0.499917 0.157666 -0.365797
H46   H     H_    0.305499 0.521569 0.149159 0.201026
H47   H     H_    0.243122 0.449004 0.103607 0.167766
H48   H     H_    0.255483 0.484179 0.243176 0.161981
O19   O     O_3   0.457896 0.924275 0.163013 -0.584541
C95   C     C_3   0.486034 0.850504 0.157063 -0.344239
H49   H     H_    0.500708 0.838445 0.076635 0.145961
H50   H     H_    0.446352 0.808356 0.168966 0.188667
H51   H     H_    0.531371 0.842086 0.221632 0.173101
O20   O     O_3   0.953994 0.430211 0.162204 -0.581429
C96   C     C_3   0.975891 0.354431 0.150062 -0.352186
H52   H     H_    0.989411 0.343362 0.068670 0.144205
H53   H     H_    0.932761 0.315906 0.159212 0.191573
H54   H     H_    0.020486 0.340147 0.213308 0.171747
O21   O     O_3   0.335907 0.979257 0.663477 -0.558388
C97   C     C_3   0.286288 0.037656 0.639785 -0.204933
H55   H     H_    0.299825 0.091724 0.685089 0.126993
H56   H     H_    0.235092 0.017574 0.654073 0.178242
H57   H     H_    0.281015 0.050171 0.552913 0.177733
O22   O     O_3   0.835771 0.480608 0.663163 -0.559894
C98   C     C_3   0.787137 0.539590 0.636432 -0.193427
H58   H     H_    0.801625 0.594434 0.679118 0.145786
H59   H     H_    0.735551 0.521307 0.651396 0.176167
H60   H     H_    0.782118 0.549794 0.548929 0.174385
N9    N     N_2   0.371103 0.008233 0.051661 -0.236196
H61   H     H_    0.327563 0.977590 0.059075 0.240624
C99   C     C_3   0.367249 0.087269 0.083251 -0.755268
H62   H     H_    0.343108 0.091498 0.156934 0.234279
H63   H     H_    0.335136 0.119792 0.018804 0.229687
H64   H     H_    0.419898 0.112282 0.100264 0.234713
N10   N     N_2   0.870543 0.518229 0.050305 -0.236249
H65   H     H_    0.825743 0.490092 0.058179 0.239480
C100  C     C_3   0.868805 0.598280 0.077322 -0.743793
H66   H     H_    0.838649 0.606606 0.143923 0.234311
H67   H     H_    0.843165 0.631293 0.007775 0.248085
H68   H     H_    0.922274 0.619744 0.102562 0.227579
N11   N     N_2   0.281898 0.968333 0.855920 -0.280882
H69   H     H_    0.274838 0.919608 0.896863 0.222831
C101  C     C_3   0.234916 0.029402 0.874663 -0.811007
H70   H     H_    0.182802 0.016789 0.828808 0.243260
H71   H     H_    0.252018 0.084715 0.847854 0.225867
H72   H     H_    0.230367 0.034096 0.961200 0.238120
N12   N     N_2   0.779863 0.481874 0.855483 -0.283805
H73   H     H_    0.768740 0.435357 0.897990 0.226011
C102  C     C_3   0.737853 0.548169 0.871023 -0.803435
H74   H     H_    0.730955 0.554109 0.956531 0.240425
H75   H     H_    0.685927 0.541128 0.821541 0.239548
H76   H     H_    0.761148 0.601094 0.846507 0.245632
N13   N     N_2   0.375816 0.762958 0.784249 -0.305205
H77   H     H_    0.346818 0.795421 0.829804 0.223680
C103  C     C_3   0.449339 0.774676 0.813266 -0.820936
H78   H     H_    0.464626 0.767292 0.901177 0.239577
H79   H     H_    0.462447 0.833517 0.793923 0.246697
H80   H     H_    0.478015 0.731939 0.771268 0.245078
N14   N     N_2   0.361329 0.222934 0.811724 -0.306586
H81   H     H_    0.330364 0.184173 0.841146 0.205416
C104  C     C_3   0.433987 0.215223 0.854422 -0.808307
H82   H     H_    0.441069 0.216992 0.943673 0.247819
H83   H     H_    0.463553 0.262915 0.827850 0.254962
H84   H     H_    0.453722 0.159701 0.828658 0.237004
N15   N     N_2   0.895432 0.226371 0.754503 -0.317990
H85   H     H_    0.885902 0.177887 0.794088 0.219278
C105  C     C_3   0.910506 0.292525 0.824260 -0.785004
H86   H     H_    0.948037 0.276856 0.896291 0.225703
H87   H     H_    0.862417 0.314398 0.850612 0.240286
H88   H     H_    0.934109 0.337788 0.782142 0.256493
N16   N     N_2   0.865641 0.733628 0.812815 -0.316910
H89   H     H_    0.850810 0.776946 0.860697 0.228553
C106  C     C_3   0.935925 0.710391 0.850671 -0.845719
H90   H     H_    0.943917 0.704963 0.939481 0.243707
H91   H     H_    0.971565 0.754616 0.830800 0.249834
H92   H     H_    0.946714 0.654022 0.816047 0.257553
N17   N     N_2   0.247429 0.772069 0.155249 -0.301812
H93   H     H_    0.205587 0.735897 0.139655 0.248230
C107  C     C_3   0.293205 0.765296 0.075989 -0.795153
H94   H     H_    0.262090 0.755898 0.994961 0.230666
H95   H     H_    0.329025 0.716292 0.094157 0.251873
H96   H     H_    0.323016 0.818366 0.073200 0.239725
N18   N     N_2   0.326738 0.306420 0.196056 -0.304431
H97   H     H_    0.328614 0.364912 0.197737 0.213654
C108  C     C_3   0.270345 0.277016 0.118008 -0.843078
H98   H     H_    0.275855 0.297190 0.036991 0.245415
H99   H     H_    0.219968 0.297259 0.138122 0.236854
H100  H     H_    0.271150 0.213914 0.115831 0.253943
N19   N     N_2   0.725204 0.311036 0.157449 -0.302798
H101  H     H_    0.677972 0.283927 0.143147 0.216802
C109  C     C_3   0.764898 0.300471 0.070585 -0.849711
H102  H     H_    0.729773 0.302960 0.992114 0.239214
H103  H     H_    0.791283 0.244267 0.076211 0.236569
H104  H     H_    0.803762 0.346168 0.072179 0.251237
N20   N     N_2   0.817128 0.799765 0.188445 -0.311286
H105  H     H_    0.776884 0.838144 0.171919 0.238427
C110  C     C_3   0.878038 0.822040 0.145380 -0.784116
H106  H     H_    0.905851 0.868036 0.196368 0.248219
H107  H     H_    0.862322 0.843425 0.062642 0.237041
H108  H     H_    0.913251 0.772896 0.140264 0.234741

loop_
_geom_bond_atom_site_label_1
_geom_bond_atom_site_label_2
_geom_bond_distance
_ccdc_geom_bond_type
C27   H13   1.075550 S    
N18   C108  1.445137 S    
C109  H103  1.110423 S    
C2    C61   1.464320 S    
C10   C58   1.401248 A    
N8    H39   1.031653 S    
C31   C35   1.407489 A    
N10   C100  1.443170 S    
C94   H47   1.113393 S    
C100  H66   1.108203 S    
C16   C60   1.416241 A    
N14   H81   1.029503 S    
O10   C6    1.317013 A    
C48   C52   1.408382 A    
O20   C96   1.410127 S    
C36   C64   1.415452 A    
N16   H89   1.030888 S    
C68   O22   1.385545 S    
C93   H44   1.108937 S    
C24   N20   1.427824 S    
C39   C55   1.396656 A    
O19   C95   1.411361 S    
C54   H6    1.076200 S    
O7    C3    1.314367 A    
C69   N11   1.426596 S    
C53   H5    1.074939 S    
C108  H98   1.109548 S    
C26   C30   1.417325 A    
Zn1   O10   1.934810 S    
C45   N13   1.433692 S    
C40   C44   1.418615 A    
C78   C80   1.419698 A    
C93   H43   1.113528 S    
C90   H33   1.111009 S    
C22   N18   1.417914 S    
C23   N19   1.428862 S    
C70   N12   1.426028 S    
C71   C73   1.429385 A    
C18   C22   1.389747 A    
C110  H106  1.111246 S    
C1    C62   1.473344 S    
C77   C79   1.421014 A    
Zn3   N3    2.058433 S    
C16   C56   1.394686 A    
C107  H94   1.110496 S    
C71   N9    1.421670 S    
C9    H1    1.082138 S    
C109  H102  1.110508 S    
C104  H84   1.109119 S    
C11   C59   1.390868 A    
C97   H55   1.110052 S    
C78   C86   1.398815 A    
N17   H93   1.031991 S    
C94   H46   1.109176 S    
C33   C49   1.412726 A    
C98   H59   1.108355 S    
O2    Zn1   1.974974 S    
C95   H49   1.112858 S    
O13   C5    1.312870 A    
C90   H32   1.110233 S    
O6    Zn3   1.934690 S    
C85   O19   1.379031 S    
H23   C81   1.082231 S    
Zn3   O14   1.974950 S    
C42   C48   1.409058 A    
O17   C93   1.409090 S    
C33   C61   1.411391 A    
C69   C71   1.405302 A    
Zn4   O16   1.974950 S    
C46   C50   1.403755 A    
C101  H72   1.109407 S    
C19   H11   1.081858 S    
N7    H35   1.030083 S    
C92   H41   1.110172 S    
C45   C49   1.397253 A    
C18   C62   1.400547 A    
O15   C7    1.312779 A    
C91   H37   1.110172 S    
O11   C7    1.321624 A    
C7    C16   1.471288 S    
C55   H7    1.076306 S    
C12   C44   1.408350 A    
C96   H54   1.113643 S    
N5    C89   1.444669 S    
C49   H17   1.078804 S    
C109  H104  1.108729 S    
N10   H65   1.030139 S    
O8    Zn4   1.934690 S    
C68   N4    1.366700 A    
C106  H90   1.110400 S    
C14   C58   1.415127 A    
C27   C31   1.422814 A    
C51   H19   1.083334 S    
C100  H68   1.110252 S    
C40   C56   1.390965 A    
C13   C57   1.407614 A    
C35   C51   1.407184 A    
C100  H67   1.109879 S    
C72   N10   1.421738 S    
C34   C62   1.419050 A    
N6    C90   1.448865 S    
C74   C76   1.410861 A    
C104  H82   1.110154 S    
C59   N7    1.413546 S    
C73   C75   1.411934 A    
C12   C60   1.405860 A    
N5    H27   1.030835 S    
C17   H9    1.080726 S    
C108  H99   1.111742 S    
C10   H2    1.077881 S    
C28   C32   1.418137 A    
C101  H70   1.109522 S    
Zn4   N4    2.058433 S    
Zn2   O12   1.934810 S    
C90   H34   1.110880 S    
O1    C1    1.320266 A    
C35   C63   1.403756 A    
C89   H30   1.111669 S    
C37   C53   1.397101 A    
C103  H78   1.109576 S    
C110  H107  1.110755 S    
C38   C42   1.418201 A    
N1    C87   1.355065 A    
C23   C27   1.402131 A    
C99   H62   1.108791 S    
C14   C54   1.392913 A    
C8    C15   1.470646 S    
C107  H95   1.111259 S    
N13   H77   1.031818 S    
C102  H74   1.109830 S    
C21   N17   1.429905 S    
C13   C53   1.393547 A    
C36   C52   1.413637 A    
C75   N3    1.353099 A    
C32   C36   1.403232 A    
C82   C84   1.378496 A    
O22   C98   1.411787 S    
N17   C107  1.448470 S    
C67   O21   1.384775 S    
C66   O18   1.382631 S    
C65   O17   1.386455 S    
C56   H8    1.077084 S    
C98   H60   1.109127 S    
Zn2   N2    2.071044 S    
O21   C97   1.411633 S    
C81   C83   1.379263 A    
C39   C43   1.421243 A    
H22   C88   1.080838 S    
N15   H85   1.030438 S    
C20   H12   1.075669 S    
C37   C41   1.425110 A    
C5    C14   1.471034 S    
C25   H15   1.077684 S    
C66   C88   1.387102 A    
N19   C109  1.449477 S    
C92   H40   1.110668 S    
Zn3   O13   1.965083 S    
C3    C64   1.474979 S    
O8    C4    1.317539 A    
C107  H96   1.108955 S    
N9    C99   1.442844 S    
C46   N14   1.431088 S    
C47   N15   1.425764 S    
C92   H42   1.110780 S    
C83   H25   1.064934 S    
C105  H87   1.111478 S    
N2    C86   1.345552 A    
C91   H38   1.112195 S    
C95   H51   1.113893 S    
C76   N4    1.350116 A    
C66   C80   1.401011 A    
C10   C42   1.406281 A    
O3    Zn2   1.965105 S    
C67   N3    1.366777 A    
C70   C72   1.405536 A    
C9    C41   1.403518 A    
N1    C85   1.344671 A    
O7    Zn4   1.948187 S    
N12   C102  1.450242 S    
C65   C79   1.404387 A    
C9    C57   1.396474 A    
Zn4   O15   1.965083 S    
C106  H91   1.108185 S    
C52   H20   1.077537 S    
N16   C106  1.440716 S    
N15   C105  1.446049 S    
C94   H48   1.112873 S    
C32   C38   1.412864 A    
O4    C4    1.307937 A    
C31   C37   1.420701 A    
N8    C92   1.447489 S    
N20   H105  1.031997 S    
C84   H26   1.065633 S    
O12   C8    1.316270 A    
C12   H4    1.078703 S    
N6    H31   1.027155 S    
C58   N6    1.429756 S    
C34   C50   1.412744 A    
C65   C87   1.393769 A    
C30   C34   1.404069 A    
C102  H76   1.111164 S    
C43   C45   1.403194 A    
C57   N5    1.417356 S    
N11   H69   1.031382 S    
O18   C94   1.407106 S    
C108  H100  1.109928 S    
C80   C82   1.383968 A    
C4    C63   1.457418 S    
C77   C85   1.397826 A    
C18   H10   1.079556 S    
Zn2   O11   1.948309 S    
C38   C54   1.391327 A    
C93   H45   1.110554 S    
O16   C8    1.318213 A    
N11   C101  1.449480 S    
C75   C83   1.397532 A    
N20   C110  1.447833 S    
C29   C33   1.405758 A    
O6    C2    1.316353 A    
C110  H108  1.109108 S    
C68   C70   1.400589 A    
C60   N8    1.433704 S    
N14   C104  1.443600 S    
C6    C13   1.471216 S    
C73   C77   1.421565 A    
C96   H52   1.112672 S    
N13   C103  1.441971 S    
C17   C61   1.403121 A    
C22   C26   1.398121 A    
C26   H16   1.080074 S    
C97   H57   1.109153 S    
Zn1   O9    1.948309 S    
C50   H18   1.077933 S    
O9    C5    1.321311 A    
C99   H64   1.110609 S    
C89   H29   1.110352 S    
C102  H75   1.109424 S    
C19   C63   1.399690 A    
C101  H71   1.108467 S    
H21   C87   1.080726 S    
C41   C47   1.407436 A    
C89   H28   1.109788 S    
C103  H80   1.110591 S    
C47   C51   1.386461 A    
C29   C39   1.416176 A    
N19   H101  1.031571 S    
C30   C40   1.414571 A    
C25   C29   1.419631 A    
Zn1   N1    2.071044 S    
C28   H14   1.079214 S    
C104  H83   1.110528 S    
C95   H50   1.107793 S    
C97   H56   1.108447 S    
C21   C25   1.399938 A    
C105  H88   1.110081 S    
C11   H3    1.081762 S    
C103  H79   1.109881 S    
N7    C91   1.441261 S    
C48   N16   1.438653 S    
O4    Zn2   1.974974 S    
C98   H58   1.110387 S    
C72   C74   1.428343 A    
O5    Zn3   1.948187 S    
O3    C3    1.319285 A    
C11   C43   1.400077 A    
C15   C59   1.406982 A    
N12   H73   1.031086 S    
C20   C24   1.396771 A    
C24   C28   1.399010 A    
O1    Zn1   1.965105 S    
C44   C46   1.407849 A    
N9    H61   1.030045 S    
O14   C6    1.317837 A    
C106  H92   1.107467 S    
H24   C82   1.081765 S    
C105  H86   1.109495 S    
C79   C81   1.385893 A    
C17   C21   1.397474 A    
C86   O20   1.378580 S    
C96   H53   1.108728 S    
O5    C1    1.312456 A    
C67   C69   1.400818 A    
C91   H36   1.109289 S    
C20   C64   1.401357 A    
N2    C88   1.355494 A    
C19   C23   1.394441 A    
C76   C84   1.396674 A    
C74   C78   1.418843 A    
N18   H97   1.029577 S    
C15   C55   1.394232 A    
C99   H63   1.109482 S    
O2    C2    1.312855 A    
