data_mof_unit_27737.cif
_audit_creation_date              2012-12-10T18:35:13-0500
_audit_creation_method            fapswitch 2.2
_symmetry_space_group_name_H-M    P1
_symmetry_Int_Tables_number       1
_space_group_crystal_system       triclinic
_cell_length_a                    18.740891
_cell_length_b                    18.791698
_cell_length_c                    18.796529
_cell_angle_alpha                 109.428323
_cell_angle_beta                  109.308201
_cell_angle_gamma                 109.310155
_cell_volume                      5118.73947078

loop_
_atom_site_label
_atom_site_type_symbol
_atom_type_description
_atom_site_fract_x
_atom_site_fract_y
_atom_site_fract_z
_atom_type_partial_charge
C1    C     C_R   0.382384 0.501427 0.381366 0.787320
C2    C     C_R   0.307698 0.455683 0.015201 -0.118237
C3    C     C_R   0.118827 0.117512 0.498694 0.787376
C4    C     C_R   0.001972 0.381484 0.882681 0.786582
C5    C     C_R   0.118675 0.498331 0.117338 0.786988
C6    C     C_R   0.998983 0.618719 0.117881 0.789600
C7    C     C_R   0.881215 0.498308 0.879454 0.789475
C8    C     C_R   0.089503 0.764924 0.546532 -0.185310
C9    C     C_R   0.085144 0.775021 0.475110 -0.094115
C10   C     C_R   0.005699 0.728023 0.397227 0.061263
C11   C     C_R   0.931805 0.667345 0.390230 -0.189896
C12   C     C_R   0.935512 0.657747 0.462027 0.231331
C13   C     C_R   0.335848 0.535391 0.017101 -0.106114
C14   C     C_R   0.778032 0.728452 0.774245 -0.116555
C15   C     C_R   0.014925 0.707232 0.540513 -0.139790
C16   C     C_R   0.997832 0.675826 0.254556 -0.241923
C17   C     C_R   0.997449 0.685229 0.183696 -0.085156
C18   C     C_R   0.998259 0.758689 0.178442 0.033864
C19   C     C_R   0.996263 0.819898 0.243352 -0.234086
C20   C     C_R   0.998369 0.811514 0.315113 -0.100096
C21   C     C_R   0.000834 0.739501 0.321879 -0.000373
C22   C     C_R   0.070766 0.846146 0.121478 0.192187
C23   C     C_R   0.071850 0.857380 0.051539 -0.190810
C24   C     C_R   0.077469 0.253907 0.754779 -0.239131
C25   C     C_R   0.004143 0.796212 0.966843 -0.139244
C26   C     C_R   0.825206 0.818022 0.576131 -0.241841
C27   C     C_R   0.997295 0.183337 0.685370 -0.073612
C28   C     C_R   0.918796 0.178763 0.680135 -0.000620
C29   C     C_R   0.922966 0.244382 0.746819 -0.266634
C30   C     C_R   0.003118 0.315448 0.815846 -0.087101
C31   C     C_R   0.081550 0.321531 0.819087 -0.012665
C32   C     C_R   0.772050 0.125734 0.559528 -0.146947
C33   C     C_R   0.787687 0.806335 0.829864 -0.114767
C34   C     C_R   0.690080 0.058492 0.489957 -0.139682
C35   C     C_R   0.667225 0.972208 0.466930 -0.113153
C36   C     C_R   0.726052 0.953205 0.513910 -0.118497
C37   C     C_R   0.807647 0.020173 0.584244 -0.116769
C38   C     C_R   0.814375 0.810321 0.496168 -0.068636
C39   C     C_R   0.831834 0.107022 0.606773 0.121119
C40   C     C_R   0.738406 0.740671 0.418040 0.004953
C41   C     C_R   0.678084 0.677107 0.422369 -0.226937
C42   C     C_R   0.688874 0.685073 0.502374 -0.072901
C43   C     C_R   0.761806 0.757766 0.580523 -0.006059
C44   C     C_R   0.934788 0.723832 0.951481 -0.117818
C45   C     C_R   0.638580 0.723089 0.278284 -0.158922
C46   C     C_R   0.618360 0.713813 0.195992 -0.135889
C47   C     C_R   0.677104 0.713329 0.165749 -0.121008
C48   C     C_R   0.620442 0.618706 0.501498 0.776892
C49   C     C_R   0.756362 0.722611 0.217976 -0.119373
C50   C     C_R   0.776925 0.732397 0.300466 -0.086031
C51   C     C_R   0.718323 0.732661 0.331432 0.118196
C52   C     C_R   0.435422 0.806622 0.513232 -0.145814
C53   C     C_R   0.369728 0.725143 0.441826 -0.150668
C54   C     C_R   0.390975 0.667731 0.395119 0.125268
C55   C     C_R   0.932218 0.712493 0.020502 -0.187104
C56   C     C_R   0.478791 0.693794 0.420123 -0.112645
C57   C     C_R   0.544223 0.774704 0.492483 -0.117896
C58   C     C_R   0.522681 0.831225 0.538801 -0.110856
C59   C     C_R   0.255858 0.576827 0.252917 -0.244852
C60   C     C_R   0.617135 0.498175 0.618672 0.781995
C61   C     C_R   0.185372 0.496821 0.183028 -0.064169
C62   C     C_R   0.178801 0.418383 0.179562 0.000503
C63   C     C_R   0.246318 0.422686 0.244546 -0.254184
C64   C     C_R   0.316623 0.502694 0.314502 -0.075680
C65   C     C_R   0.320851 0.581002 0.320184 -0.006420
C66   C     C_R   0.000410 0.772936 0.105937 0.124695
C67   C     C_R   0.059505 0.273308 0.132879 -0.141592
C68   C     C_R   0.990314 0.190064 0.068335 -0.137876
C69   C     C_R   0.964517 0.163690 0.980953 -0.121164
C70   C     C_R   0.007705 0.220622 0.958021 -0.118880
C71   C     C_R   0.076607 0.304051 0.022422 -0.107507
C72   C     C_R   0.379749 0.381385 0.498823 0.793269
C73   C     C_R   0.103248 0.331230 0.110419 0.120322
C74   C     C_R   0.252137 0.539117 0.600537 -0.187733
C75   C     C_R   0.263180 0.467440 0.592567 -0.111345
C76   C     C_R   0.231478 0.398961 0.510206 0.077398
C77   C     C_R   0.281601 0.545040 0.953629 -0.150316
C78   C     C_R   0.187853 0.402388 0.435739 -0.155973
C79   C     C_R   0.175545 0.473773 0.443419 0.223828
C80   C     C_R   0.208377 0.542395 0.526421 -0.136981
C81   C     C_R   0.177457 0.255432 0.500272 -0.236755
C82   C     C_R   0.185562 0.183254 0.497323 -0.075051
C83   C     C_R   0.258067 0.176783 0.495837 -0.001865
C84   C     C_R   0.790433 0.868891 0.804807 -0.139098
C85   C     C_R   0.319921 0.242254 0.494918 -0.253035
C86   C     C_R   0.312115 0.314675 0.498411 -0.076789
C87   C     C_R   0.240987 0.322217 0.502500 0.000754
C88   C     C_R   0.198610 0.475371 0.888940 -0.086414
C89   C     C_R   0.346195 0.117279 0.560391 -0.141458
C90   C     C_R   0.360048 0.047960 0.557729 -0.134304
C91   C     C_R   0.299456 0.963802 0.488364 -0.141531
C92   C     C_R   0.224889 0.948838 0.421653 -0.110010
C93   C     C_R   0.210256 0.017844 0.424491 -0.104245
C94   C     C_R   0.270893 0.102619 0.493972 0.113672
C95   C     C_R   0.548218 0.564227 0.856787 -0.133270
C96   C     C_R   0.782584 0.853137 0.723735 -0.155000
C97   C     C_R   0.617527 0.565299 0.843309 -0.145709
C98   C     C_R   0.602925 0.495707 0.770814 0.128079
C99   C     C_R   0.168721 0.395982 0.888402 0.102894
C100  C     C_R   0.518351 0.424697 0.712579 -0.121509
C101  C     C_R   0.449335 0.423625 0.726704 -0.129037
C102  C     C_R   0.464186 0.493449 0.798522 -0.117381
C103  C     C_R   0.742413 0.495632 0.819913 -0.250632
C104  C     C_R   0.813877 0.496449 0.811024 -0.080758
C105  C     C_R   0.820387 0.497678 0.738709 -0.005068
C106  C     C_R   0.753980 0.496742 0.675937 -0.250244
C107  C     C_R   0.682690 0.496173 0.684994 -0.081273
C108  C     C_R   0.772487 0.774658 0.667264 0.118401
C109  C     C_R   0.676831 0.496293 0.757942 -0.007608
C110  C     C_R   0.224899 0.385798 0.950377 -0.188795
C111  C     C_R   0.947608 0.567578 0.721397 -0.147874
C112  C     C_R   0.015663 0.566926 0.706273 -0.139575
C113  C     C_R   0.030182 0.496569 0.694396 -0.124110
C114  C     C_R   0.976634 0.426739 0.697564 -0.133011
C115  C     C_R   0.908873 0.427395 0.713317 -0.118241
C116  C     C_R   0.894072 0.497995 0.725523 0.129744
C117  C     C_R   0.998555 0.879351 0.381467 0.785633
C118  C     C_R   0.881163 0.879062 0.497819 0.778338
C119  C     C_R   0.998472 0.117461 0.618593 0.786896
C120  C     C_R   0.771950 0.713073 0.693858 -0.105372
Cu1   Cu    Cu3+1 0.499980 0.561800 0.561790 0.984702
Cu2   Cu    Cu3+1 0.500020 0.438200 0.438210 0.941616
Cu3   Cu    Cu3+1 0.061810 0.999960 0.561770 0.953593
Cu4   Cu    Cu3+1 0.938190 0.999990 0.438190 0.962885
Cu5   Cu    Cu3+1 0.061800 0.561770 0.999960 0.964995
Cu6   Cu    Cu3+1 0.938200 0.438190 0.000000 0.954836
H1    H     H_    0.792676 0.818001 0.892169 0.124036
H2    H     H_    0.259205 0.636631 0.256029 0.150233
H3    H     H_    0.242930 0.363013 0.241881 0.151284
H4    H     H_    0.797737 0.929198 0.847806 0.119191
H5    H     H_    0.078832 0.292724 0.200341 0.129157
H6    H     H_    0.956876 0.145911 0.086101 0.128079
H7    H     H_    0.911156 0.099162 0.931046 0.117466
H8    H     H_    0.987843 0.200002 0.890344 0.141167
H9    H     H_    0.109135 0.347602 0.003954 0.103892
H10   H     H_    0.199635 0.598066 0.533759 0.118470
H11   H     H_    0.276897 0.591902 0.664260 0.129465
H12   H     H_    0.661285 0.705927 0.101955 0.116575
H13   H     H_    0.296333 0.465166 0.650448 0.124679
H14   H     H_    0.162402 0.349176 0.371937 0.121115
H15   H     H_    0.783229 0.901564 0.704475 0.116423
H16   H     H_    0.122458 0.260803 0.503144 0.152144
H17   H     H_    0.375343 0.237362 0.492779 0.151707
H18   H     H_    0.393948 0.182322 0.614240 0.121694
H19   H     H_    0.417989 0.059559 0.609217 0.125621
H20   H     H_    0.310443 0.910234 0.486084 0.116227
H21   H     H_    0.178804 0.883748 0.367578 0.155695
H22   H     H_    0.152413 0.005545 0.372269 0.111778
H23   H     H_    0.801947 0.722416 0.194627 0.136357
H24   H     H_    0.410650 0.492527 0.809228 0.119808
H25   H     H_    0.559713 0.618112 0.912589 0.117391
H26   H     H_    0.682449 0.620371 0.889049 0.113698
H27   H     H_    0.765498 0.652823 0.651835 0.093591
H28   H     H_    0.506169 0.370022 0.656970 0.099630
H29   H     H_    0.384371 0.368543 0.682286 0.137572
H30   H     H_    0.738251 0.495530 0.876099 0.151014
H31   H     H_    0.758325 0.497390 0.619986 0.149675
H32   H     H_    0.936674 0.622251 0.730062 0.114705
H33   H     H_    0.056887 0.620778 0.703364 0.118482
H34   H     H_    0.838683 0.740578 0.340544 0.101421
H35   H     H_    0.082673 0.495971 0.682354 0.122756
H36   H     H_    0.987466 0.371960 0.687356 0.141016
H37   H     H_    0.867356 0.372637 0.714956 0.098729
H38   H     H_    0.019267 0.700742 0.596707 0.112999
H39   H     H_    0.774078 0.679528 0.792970 0.127165
H40   H     H_    0.150732 0.802158 0.606786 0.127807
H41   H     H_    0.143376 0.820085 0.480691 0.132223
H42   H     H_    0.871016 0.628204 0.329273 0.138864
H43   H     H_    0.998838 0.619957 0.258846 0.154142
H44   H     H_    0.995137 0.875656 0.238904 0.154800
H45   H     H_    0.573612 0.893951 0.594578 0.126501
H46   H     H_    0.125701 0.913183 0.062893 0.130253
H47   H     H_    0.005610 0.804641 0.913012 0.135359
H48   H     H_    0.883440 0.675952 0.885886 0.135543
H49   H     H_    0.882126 0.873331 0.635879 0.147860
H50   H     H_    0.877601 0.656075 0.007335 0.107254
H51   H     H_    0.399944 0.589393 0.067262 0.114547
H52   H     H_    0.303930 0.606430 0.954424 0.115991
H53   H     H_    0.157532 0.483337 0.839567 0.129270
H54   H     H_    0.204291 0.323966 0.948818 0.132476
H55   H     H_    0.350169 0.447937 0.063727 0.133710
H56   H     H_    0.418685 0.850399 0.549119 0.118893
H57   H     H_    0.137395 0.257694 0.757329 0.153291
H58   H     H_    0.863090 0.240677 0.744290 0.151997
H59   H     H_    0.789257 0.192314 0.576097 0.123306
H60   H     H_    0.644479 0.073277 0.453616 0.130032
H61   H     H_    0.620487 0.622297 0.362840 0.144482
H62   H     H_    0.604018 0.920068 0.412695 0.128295
H63   H     H_    0.708603 0.886517 0.495391 0.126815
H64   H     H_    0.852086 0.004394 0.620715 0.090970
H65   H     H_    0.592384 0.723428 0.300847 0.116864
H66   H     H_    0.557172 0.707064 0.155684 0.116805
H67   H     H_    0.302373 0.706421 0.423479 0.116292
H68   H     H_    0.120989 0.529934 0.383002 0.208927
H69   H     H_    0.164871 0.479619 0.335797 0.228658
H70   H     H_    0.870540 0.600925 0.513927 0.209094
H71   H     H_    0.840583 0.535707 0.410869 0.213102
H72   H     H_    0.147802 0.968922 0.221991 0.208566
H73   H     H_    0.198842 0.910407 0.208897 0.221701
H74   H     H_    0.496454 0.651133 0.384180 0.089813
H75   H     H_    0.611661 0.793279 0.513191 0.126824
N1    N     N_3   0.127699 0.474526 0.366548 -0.602213
N2    N     N_3   0.857986 0.598435 0.454384 -0.586100
N3    N     N_3   0.141885 0.907850 0.207794 -0.620652
O1    O     O_R   0.409800 0.552190 0.462000 -0.569751
O2    O     O_R   0.947810 0.357610 0.909840 -0.585172
O3    O     O_R   0.142370 0.552160 0.090140 -0.583022
O4    O     O_R   0.409840 0.447810 0.357640 -0.590904
O5    O     O_R   0.037990 0.447800 0.090170 -0.574981
O6    O     O_R   0.052190 0.642350 0.090120 -0.574890
O7    O     O_R   0.947800 0.537990 0.090150 -0.588554
O8    O     O_R   0.962010 0.552150 0.909780 -0.568556
O9    O     O_R   0.857630 0.447800 0.909820 -0.590440
O10   O     O_R   0.590160 0.642370 0.552180 -0.570920
O11   O     O_R   0.590190 0.537990 0.447820 -0.584139
O12   O     O_R   0.947810 0.909820 0.357620 -0.589920
O13   O     O_R   0.590160 0.552190 0.642360 -0.572197
O14   O     O_R   0.590200 0.447810 0.538000 -0.588592
O15   O     O_R   0.409810 0.462010 0.552180 -0.570870
O16   O     O_R   0.409840 0.357630 0.447820 -0.591475
O17   O     O_R   0.052200 0.909800 0.461980 -0.575372
O18   O     O_R   0.962020 0.909790 0.552160 -0.580975
O19   O     O_R   0.857630 0.909810 0.447800 -0.573359
O20   O     O_R   0.052190 0.090130 0.642340 -0.591850
O21   O     O_R   0.947800 0.090160 0.537980 -0.572371
O22   O     O_R   0.142370 0.090140 0.552150 -0.576883
O23   O     O_R   0.037980 0.090170 0.447800 -0.588691
O24   O     O_R   0.052200 0.461970 0.909800 -0.580665

loop_
_geom_bond_atom_site_label_1
_geom_bond_atom_site_label_2
_ccdc_geom_bond_type
C8    C9    A    
C4    O24   A    
C16   C21   A    
C112  H33   S    
C118  O18   A    
C53   H67   S    
C41   C42   A    
C108  C120  A    
C105  C116  S    
C117  O17   A    
C111  C112  A    
C19   H44   S    
Cu1   O1    S    
C85   H17   S    
C14   C33   A    
Cu4   O21   S    
C90   C91   A    
Cu3   Cu4   S    
C47   C49   A    
H69   N1    S    
C85   C86   A    
Cu2   O11   S    
C120  H27   S    
Cu3   O17   S    
C93   C94   A    
Cu2   O16   S    
C32   H59   S    
C28   C29   A    
C29   H58   S    
C111  H32   S    
C76   C78   A    
C18   C19   A    
C90   H19   S    
Cu6   O7    S    
C71   H9    S    
C30   C31   A    
C114  H36   S    
C106  C107  A    
C45   C51   A    
C115  C116  A    
H68   N1    S    
C33   H1    S    
C56   C57   A    
C41   H61   S    
C93   H22   S    
C34   H60   S    
C34   C35   A    
C84   C96   A    
C32   C39   A    
C89   C94   A    
C68   H6    S    
C2    C13   A    
C22   C66   A    
C96   H15   S    
C16   H43   S    
C45   H65   S    
C23   H46   S    
C35   C36   A    
C77   C88   A    
C16   C17   A    
C11   H42   S    
C24   C27   A    
C62   C73   S    
C111  C116  A    
C67   C73   A    
C31   C99   S    
Cu5   O24   S    
C1    O1    A    
C9    C10   A    
C95   C102  A    
C63   H3    S    
C37   H64   S    
C96   C108  A    
C48   O11   A    
C98   C109  S    
C74   C80   A    
C92   H21   S    
Cu1   O15   S    
C61   C62   A    
C25   C44   A    
C119  O20   A    
C104  C105  A    
C74   H11   S    
Cu5   O8    S    
C18   C66   S    
C26   C43   A    
C97   C98   A    
C100  C101  A    
C13   C77   A    
C10   C21   S    
C7    O8    A    
C72   O16   A    
Cu3   O18   S    
C54   C56   A    
C54   C65   S    
C59   C61   A    
C74   C75   A    
C36   H63   S    
C101  C102  A    
Cu2   O4    S    
C15   H38   S    
C9    H41   S    
C91   C92   A    
Cu3   O22   S    
C86   C87   A    
C68   C69   A    
C6    O7    A    
C28   C39   S    
C50   H34   S    
C59   H2    S    
C53   C54   A    
C99   C110  A    
Cu5   O3    S    
C81   C82   A    
C67   C68   A    
H70   N2    S    
C2    H55   S    
C32   C34   A    
C117  O12   A    
C75   C76   A    
C29   C30   A    
Cu6   O9    S    
C60   O14   A    
C5    O3    A    
C76   C87   S    
Cu4   O19   S    
C110  H54   S    
C11   C12   A    
C79   N1    S    
C3    C82   S    
C17   C18   A    
C5    C61   S    
C50   C51   A    
C42   C48   S    
C52   H56   S    
C14   H39   S    
C4    O2    A    
C3    O22   A    
Cu1   Cu2   S    
C81   C87   A    
C60   C107  S    
C52   C58   A    
C49   H23   S    
C102  H24   S    
C40   C41   A    
C83   C85   A    
H73   N3    S    
C82   C83   A    
C12   C15   A    
C98   C100  A    
C7    C104  S    
C12   N2    S    
C106  H31   S    
H72   N3    S    
Cu5   Cu6   S    
C95   H25   S    
C42   C43   A    
C89   H18   S    
C1    C64   S    
C3    O23   A    
C103  C104  A    
C70   C71   A    
C52   C53   A    
C119  O21   A    
C88   H53   S    
C71   C73   A    
C113  C114  A    
Cu4   O12   S    
C100  H28   S    
C72   O15   A    
C46   C47   A    
C2    C110  A    
C105  C106  A    
C69   H7    S    
Cu2   O14   S    
C118  O19   A    
C78   C79   A    
Cu1   O13   S    
C48   O10   A    
C67   H5    S    
C44   H48   S    
C46   H66   S    
C63   C64   A    
C7    O9    A    
Cu6   O5    S    
C78   H14   S    
C1    O4    A    
C72   C86   S    
Cu5   O6    S    
C95   C97   A    
C114  C115  A    
C6    O6    A    
C27   C119  S    
C8    C15   A    
C40   C51   S    
C5    O5    A    
Cu3   O20   S    
C14   C120  A    
C77   H52   S    
C80   H10   S    
C22   N3    S    
C103  C109  A    
C26   C38   A    
Cu1   O10   S    
C19   C20   A    
C58   H45   S    
C89   C90   A    
C24   C31   A    
C6    C17   S    
C37   C39   A    
C81   H16   S    
C60   O13   A    
C64   C65   A    
C38   C40   A    
C83   C94   S    
C44   C55   A    
C57   C58   A    
C107  C109  A    
C26   H49   S    
Cu6   O2    S    
C13   H51   S    
C8    H40   S    
C47   H12   S    
C84   H4    S    
C92   C93   A    
C97   H26   S    
H71   N2    S    
C112  C113  A    
C43   C108  S    
C23   C25   A    
C25   H47   S    
C115  H37   S    
C69   C70   A    
C33   C84   A    
C4    C30   S    
C55   H50   S    
C88   C99   A    
C10   C11   A    
C113  H35   S    
C79   C80   A    
C38   C118  S    
C45   C46   A    
C103  H30   S    
C20   C21   A    
C36   C37   A    
C49   C50   A    
C35   H62   S    
C57   H75   S    
C27   C28   A    
C70   H8    S    
C101  H29   S    
C22   C23   A    
C75   H13   S    
Cu4   O23   S    
C56   H74   S    
C62   C63   A    
C20   C117  S    
C91   H20   S    
C59   C65   A    
C55   C66   A    
C24   H57   S    
