data_mof_unit_33714.cif
_audit_creation_date              2012-12-10T18:11:43-0500
_audit_creation_method            fapswitch 2.2
_symmetry_space_group_name_H-M    P1
_symmetry_Int_Tables_number       1
_space_group_crystal_system       triclinic
_cell_length_a                    10.509077
_cell_length_b                    12.627683
_cell_length_c                    13.175164
_cell_angle_alpha                 82.153855
_cell_angle_beta                  89.620496
_cell_angle_gamma                 101.8692
_cell_volume                      1693.92783195

loop_
_atom_site_label
_atom_site_type_symbol
_atom_type_description
_atom_site_fract_x
_atom_site_fract_y
_atom_site_fract_z
_atom_type_partial_charge
C1    C     C_R   0.482983 0.438663 0.691206 0.897212
C2    C     C_3   0.063018 0.595265 0.524116 -0.133552
C3    C     C_3   0.958856 0.510540 0.591559 -0.197452
C4    C     C_3   0.876983 0.499431 0.497178 0.041314
C5    C     C_R   0.450176 0.711480 0.059762 -0.185992
C6    C     C_R   0.523196 0.598821 0.200008 -0.047574
C7    C     C_R   0.529487 0.306404 0.833560 -0.213473
C8    C     C_R   0.567567 0.286604 0.933661 -0.150185
C9    C     C_R   0.562895 0.362239 0.000394 -0.171337
C10   C     C_R   0.510103 0.456229 0.970071 0.038184
C11   C     C_R   0.457244 0.468670 0.871971 0.048605
C12   C     C_R   0.741945 0.500205 0.498947 0.847988
C13   C     C_R   0.506195 0.537570 0.033741 0.071454
C14   C     C_R   0.453397 0.630274 0.997545 0.140514
C15   C     C_R   0.392181 0.635395 0.904513 -0.324561
C16   C     C_R   0.383578 0.550370 0.846392 0.226143
C17   C     C_R   0.545731 0.526553 0.134728 -0.246972
C18   C     C_R   0.484390 0.695228 0.161481 -0.212115
C19   C     C_R   0.480468 0.399956 0.800969 -0.105461
C20   C     C_R   0.330890 0.093829 0.340497 -0.284610
C21   C     C_R   0.648297 0.797658 0.632195 0.028857
C22   C     C_R   0.676677 0.901001 0.661833 -0.257180
C23   C     C_R   0.517747 0.561230 0.309119 0.849639
C24   C     C_R   0.620247 0.983155 0.611637 -0.185057
C25   C     C_R   0.534877 0.962116 0.530735 0.016729
C26   C     C_R   0.509541 0.855485 0.503374 0.189687
C27   C     C_R   0.473901 0.042098 0.476378 -0.059296
C28   C     C_R   0.391072 0.014876 0.394497 0.128497
C29   C     C_R   0.369314 0.909595 0.367588 0.143027
C30   C     C_R   0.426695 0.830982 0.423160 -0.279549
C31   C     C_R   0.492548 0.149339 0.499258 -0.035817
C32   C     C_R   0.353407 0.197798 0.367258 -0.001360
C33   C     C_R   0.257836 0.500245 0.499091 0.865393
C34   C     C_3   0.935582 0.404969 0.470180 -0.130068
C35   C     C_3   0.020160 0.416091 0.564778 -0.176638
C36   C     C_3   0.122128 0.500791 0.497566 0.037764
C37   C     C_3   0.040021 0.489563 0.402756 -0.195681
C38   C     C_3   0.978111 0.583685 0.429452 -0.186094
H1    H     H_    0.041000 0.346549 0.618553 0.138818
H2    H     H_    0.583284 0.457111 0.168023 0.146728
H3    H     H_    0.546322 0.252338 0.780042 0.150340
H4    H     H_    0.602264 0.344343 0.074418 0.127680
H5    H     H_    0.608114 0.215445 0.958012 0.138927
H6    H     H_    0.308751 0.259930 0.325925 0.138787
H7    H     H_    0.267020 0.076053 0.278090 0.173378
H8    H     H_    0.554194 0.178221 0.558890 0.120705
H9    H     H_    0.691107 0.733170 0.671278 0.135590
H10   H     H_    0.879682 0.327318 0.448224 0.143989
H11   H     H_    0.645589 0.061727 0.637796 0.129844
H12   H     H_    0.741879 0.917356 0.723713 0.147137
H13   H     H_    0.405149 0.751168 0.401860 0.224321
H14   H     H_    0.077862 0.481415 0.325950 0.133340
H15   H     H_    0.951896 0.649782 0.374443 0.142335
H16   H     H_    0.118749 0.672996 0.546044 0.147369
H17   H     H_    0.919847 0.519419 0.667769 0.130580
H18   H     H_    0.471088 0.753072 0.211738 0.148841
H19   H     H_    0.339890 0.699998 0.881891 0.146480
H20   H     H_    0.411780 0.783103 0.032214 0.133472
N1    N     N_R   0.432930 0.222190 0.444670 -0.102454
N2    N     N_R   0.566370 0.776980 0.554790 -0.124075
O1    O     O_R   0.467970 0.366730 0.627150 -0.621304
O2    O     O_R   0.510820 0.544830 0.662520 -0.609208
O3    O     O_R   0.664630 0.410960 0.482340 -0.629199
O4    O     O_R   0.707470 0.589060 0.517710 -0.620763
O5    O     O_R   0.489180 0.455170 0.337480 -0.617662
O6    O     O_R   0.532030 0.633270 0.372850 -0.639655
O7    O     O_R   0.292530 0.410940 0.482290 -0.613931
O8    O     O_R   0.335370 0.589040 0.517660 -0.639332
Zn1   Zn    Zn3+2 0.471390 0.381080 0.476380 0.933558
Zn2   Zn    Zn3+2 0.528610 0.618920 0.523620 0.926049
N3    N     N_2   0.285145 0.537459 0.772808 -0.285626
H21   H     H_    0.261178 0.609638 0.740512 0.233677
C39   C     C_3   0.171826 0.455119 0.811192 -0.837094
H22   H     H_    0.095791 0.451537 0.754060 0.238408
H23   H     H_    0.131297 0.475484 0.882536 0.244689
H24   H     H_    0.197061 0.373346 0.826667 0.250808
N4    N     N_2   0.294370 0.884918 0.280974 -0.313400
H25   H     H_    0.349218 0.880674 0.217203 0.218852
C40   C     C_3   0.180408 0.798171 0.300658 -0.812512
H26   H     H_    0.120488 0.796955 0.231600 0.240224
H27   H     H_    0.121037 0.812522 0.365528 0.254689
H28   H     H_    0.208795 0.717832 0.318086 0.235618

loop_
_geom_bond_atom_site_label_1
_geom_bond_atom_site_label_2
_ccdc_geom_bond_type
C30   H13   S    
C34   C37   S    
C39   H23   S    
C39   H22   S    
C35   C36   S    
C8    H5    S    
C1    O2    A    
C7    C8    A    
N4    H25   S    
C11   C19   A    
C9    H4    S    
C29   C30   A    
C5    H20   S    
C23   O6    A    
C36   C37   S    
C12   O4    A    
O1    Zn1   S    
C15   C16   A    
C33   C36   S    
O2    Zn2   S    
C34   C35   S    
C11   C16   A    
C31   N1    A    
C3    H17   S    
O3    Zn1   S    
C8    C9    A    
C31   H8    S    
O4    Zn2   S    
C4    C12   S    
C9    C10   A    
C20   H7    S    
C18   H18   S    
C22   H12   S    
C13   C14   A    
C15   H19   S    
C16   N3    S    
N4    C40   S    
C6    C18   A    
C4    C34   S    
C1    C19   S    
C27   C31   A    
C24   C25   A    
C21   N2    A    
C2    H16   S    
N3    C39   S    
C37   H14   S    
C5    C18   A    
C20   C28   A    
C25   C26   A    
O7    Zn1   S    
C17   H2    S    
C35   H1    S    
C37   C38   S    
C3    C35   S    
C2    C38   S    
N2    Zn2   S    
C32   H6    S    
C5    C14   A    
N1    Zn1   S    
C4    C38   S    
C26   C30   A    
C7    C19   A    
C39   H24   S    
C22   C24   A    
C34   H10   S    
C3    C4    S    
C33   O7    A    
C40   H27   S    
C20   C32   A    
C2    C36   S    
C24   H11   S    
C12   O3    A    
C6    C17   A    
C28   C29   A    
C10   C13   A    
C1    O1    A    
C40   H28   S    
C25   C27   A    
C13   C17   A    
C23   O5    A    
C2    C3    S    
N3    H21   S    
O6    Zn2   S    
C38   H15   S    
O5    Zn1   S    
C6    C23   S    
C7    H3    S    
C10   C11   A    
C40   H26   S    
C29   N4    S    
O8    Zn2   S    
C27   C28   A    
C14   C15   A    
C32   N1    A    
C21   C22   A    
C26   N2    A    
C33   O8    A    
C21   H9    S    
