data_mof_unit_24701.cif
_audit_creation_date              2012-12-10T17:20:26-0500
_audit_creation_method            fapswitch 2.2
_symmetry_space_group_name_H-M    P1
_symmetry_Int_Tables_number       1
_space_group_crystal_system       triclinic
_cell_length_a                    11.697183
_cell_length_b                    10.856316
_cell_length_c                    9.622352
_cell_angle_alpha                 89.066928
_cell_angle_beta                  90.448024
_cell_angle_gamma                 94.457265
_cell_volume                      1218.04277959

loop_
_atom_site_label
_atom_site_type_symbol
_atom_type_description
_atom_site_fract_x
_atom_site_fract_y
_atom_site_fract_z
_atom_type_partial_charge
C1    C     C_R   0.504764 0.262365 0.502223 0.793822
C2    C     C_R   0.477700 0.869233 0.501225 -0.120361
C3    C     C_R   0.635538 0.679556 0.149684 -0.141837
C4    C     C_R   0.284135 0.499157 0.499621 0.814814
C5    C     C_R   0.684783 0.785815 0.088837 0.045436
C6    C     C_R   0.684902 0.796454 0.945518 0.084670
C7    C     C_R   0.640680 0.695937 0.864869 0.201311
C8    C     C_R   0.567954 0.593515 0.926125 0.055314
C9    C     C_R   0.566735 0.590352 0.075777 0.088891
C10   C     C_R   0.435475 0.414823 0.074816 -0.163067
C11   C     C_R   0.432593 0.416156 0.926163 0.511591
C12   C     C_R   0.472479 0.042534 0.888311 -0.162324
C13   C     C_R   0.489846 0.736169 0.499559 0.782827
C14   C     C_R   0.715797 0.499690 0.500356 0.821723
C15   C     C_1   0.162386 0.499139 0.499092 -0.201197
C16   C     C_1   0.059868 0.499219 0.499647 -0.008377
C17   C     C_1   0.940044 0.499395 0.500603 -0.004597
C18   C     C_1   0.837532 0.499536 0.500985 -0.188331
C19   C     C_R   0.510873 0.108215 0.769725 -0.092055
C20   C     C_3   0.250092 0.320967 0.890973 0.046904
C21   C     C_3   0.212267 0.191034 0.945181 -0.349215
C22   C     C_3   0.085303 0.179436 0.982596 -0.919973
C23   C     C_R   0.417371 0.925382 0.875853 -0.165804
C24   C     C_R   0.410917 0.869312 0.746653 -0.148424
C25   C     C_R   0.459649 0.930614 0.627397 0.093980
C26   C     C_R   0.493254 0.057775 0.635262 0.090867
C27   C     C_R   0.507540 0.127338 0.508422 -0.120278
C28   C     C_R   0.510304 0.065403 0.381891 -0.213122
C29   C     C_R   0.500042 0.937887 0.379071 -0.196385
Cu1   Cu    Cu3+1 0.499990 0.499990 0.640660 0.975893
Cu2   Cu    Cu3+1 0.500010 0.500010 0.359340 0.937531
H1    H     H_    0.522595 0.115502 0.284169 0.157500
H2    H     H_    0.829777 0.908011 0.908207 0.217624
H3    H     H_    0.684748 0.776275 0.677759 0.239080
H4    H     H_    0.779624 0.682643 0.745678 0.201735
H5    H     H_    0.199833 0.339452 0.795442 0.177021
H6    H     H_    0.228307 0.391168 0.968041 0.112791
H7    H     H_    0.227726 0.122625 0.864020 0.240240
H8    H     H_    0.263651 0.169300 0.038764 0.208402
H9    H     H_    0.068203 0.245128 0.065891 0.260358
H10   H     H_    0.060594 0.084022 0.020650 0.253027
H11   H     H_    0.032081 0.198810 0.889817 0.257071
H12   H     H_    0.558643 0.195458 0.787438 0.169130
H13   H     H_    0.705088 0.962286 0.156226 0.220316
H14   H     H_    0.828125 0.889115 0.149597 0.224577
H15   H     H_    0.484281 0.083415 0.989822 0.128529
H16   H     H_    0.383061 0.876210 0.966987 0.137393
H17   H     H_    0.366123 0.778591 0.741310 0.154284
H18   H     H_    0.509999 0.893085 0.280664 0.176485
H19   H     H_    0.384465 0.343975 0.131847 0.145507
H20   H     H_    0.654738 0.671714 0.256739 0.232618
H21   H     H_    0.707179 0.982092 0.911347 0.229834
N1    N     N_R   0.501070 0.501210 0.147910 -0.198366
N2    N     N_R   0.501110 0.501290 0.852040 -0.211724
N3    N     N_3   0.743370 0.902559 0.878720 -0.614144
N4    N     N_3   0.691966 0.692696 0.731633 -0.490844
N5    N     N_3   0.741258 0.878545 0.175373 -0.602147
O1    O     O_R   0.499990 0.319640 0.618810 -0.551415
O2    O     O_R   0.500000 0.319660 0.381240 -0.584407
O3    O     O_R   0.337190 0.500000 0.618790 -0.564003
O4    O     O_R   0.337200 0.500030 0.381210 -0.569119
O5    O     O_R   0.500000 0.680340 0.618760 -0.574832
O6    O     O_R   0.500010 0.680360 0.381190 -0.598750
O7    O     O_R   0.662800 0.499970 0.618790 -0.548384
O8    O     O_R   0.662810 0.500000 0.381210 -0.594868
O9    O     O_3   0.367390 0.326125 0.853886 -0.590747

loop_
_geom_bond_atom_site_label_1
_geom_bond_atom_site_label_2
_ccdc_geom_bond_type
H2    N3    S    
C23   C24   A    
C11   O9    S    
C24   C25   A    
H3    N4    S    
C6    C7    A    
C3    C9    A    
Cu1   O7    S    
C14   C18   S    
C13   O6    A    
H21   N3    S    
C5    N5    S    
C6    N3    S    
C22   H9    S    
C4    O3    A    
C4    C15   S    
Cu1   O5    S    
C17   C18   T    
C25   C26   A    
C14   O7    A    
C7    C8    A    
C1    C27   S    
C29   H18   S    
C21   C22   S    
Cu2   N1    S    
C20   H6    S    
Cu1   N2    S    
C12   C23   A    
H14   N5    S    
C26   C27   A    
C22   H11   S    
C11   N2    A    
C7    N4    S    
C2    C29   A    
Cu1   O1    S    
C12   C19   A    
C20   O9    S    
C28   C29   A    
C14   O8    A    
C19   H12   S    
C2    C25   A    
C1    O2    A    
C5    C6    A    
Cu2   O8    S    
C22   H10   S    
C23   H16   S    
C10   C11   A    
C21   H7    S    
Cu2   O2    S    
C15   C16   T    
C24   H17   S    
Cu2   O6    S    
C28   H1    S    
C9    N1    A    
C20   C21   S    
C19   C26   A    
C12   H15   S    
C8    N2    A    
C27   C28   A    
C10   N1    A    
C2    C13   S    
Cu2   O4    S    
Cu1   Cu2   S    
C16   C17   S    
C20   H5    S    
C3    H20   S    
C4    O4    A    
H4    N4    S    
C1    O1    A    
C21   H8    S    
H13   N5    S    
C13   O5    A    
Cu1   O3    S    
C8    C9    A    
C3    C5    A    
C10   H19   S    
