data_mof_unit_42207.cif
_audit_creation_date              2013-03-05T15:47:26-0500
_audit_creation_method            fapswitch 2.2
_symmetry_space_group_name_H-M    P1
_symmetry_Int_Tables_number       1
_space_group_crystal_system       triclinic
_cell_length_a                    38.630016
_cell_length_b                    21.917404
_cell_length_c                    21.983435
_cell_angle_alpha                 89.952176
_cell_angle_beta                  123.996074
_cell_angle_gamma                 90.040112
_cell_volume                      15431.3410799

loop_
_atom_site_label
_atom_site_type_symbol
_atom_site_description
_atom_site_fract_x
_atom_site_fract_y
_atom_site_fract_z
_atom_type_partial_charge
O1    O     O_R   0.000000 0.947790 0.090180 -0.592195
O2    O     O_R   0.000000 0.947790 0.909820 -0.592099
O3    O     O_R   0.500000 0.447790 0.090180 -0.592016
O4    O     O_R   0.500000 0.447790 0.909820 -0.592047
O5    O     O_R   0.000000 0.052210 0.090190 -0.563897
O6    O     O_R   1.000000 0.052210 0.909810 -0.564684
O7    O     O_R   0.500000 0.552210 0.090190 -0.564024
O8    O     O_R   0.500000 0.552210 0.909810 -0.564507
C1    C     C_R   0.004410 0.001136 0.122506 0.840997
C2    C     C_R   0.995615 0.001167 0.877512 0.840867
C3    C     C_R   0.504417 0.501138 0.122511 0.840158
C4    C     C_R   0.495622 0.501157 0.877516 0.841580
O9    O     O_R   0.060280 0.947790 0.060280 -0.594290
O10   O     O_R   0.939720 0.947790 0.939720 -0.594489
O11   O     O_R   0.560280 0.447790 0.060280 -0.594661
O12   O     O_R   0.439720 0.447790 0.939720 -0.594054
O13   O     O_R   0.060280 0.052210 0.060300 -0.586240
O14   O     O_R   0.939720 0.052210 0.939700 -0.585610
O15   O     O_R   0.560280 0.552210 0.060300 -0.586057
O16   O     O_R   0.439720 0.552210 0.939700 -0.585022
C5    C     C_R   0.079724 0.999982 0.078623 0.799965
C6    C     C_R   0.920279 0.999969 0.921291 0.800467
C7    C     C_R   0.579721 0.499982 0.078725 0.799702
C8    C     C_R   0.420277 0.499980 0.921379 0.801094
Cu1   Cu    Cu3+1 0.000000 0.938180 0.000000 0.933666
Cu2   Cu    Cu3+1 0.500000 0.438180 0.000000 0.934663
Cu3   Cu    Cu3+1 1.000000 0.061820 0.000000 0.907493
Cu4   Cu    Cu3+1 0.500000 0.561820 0.000000 0.908955
C9    C     C_3   0.224602 0.946656 0.254559 -0.082616
C10   C     C_3   0.775618 0.946037 0.745213 -0.081519
C11   C     C_3   0.724363 0.446506 0.255568 -0.081211
C12   C     C_3   0.275688 0.444327 0.748270 -0.083942
C13   C     C_3   0.224441 0.065815 0.256471 0.470133
C14   C     C_3   0.775345 0.065132 0.742681 0.470305
C15   C     C_3   0.724682 0.565597 0.256542 0.470558
C16   C     C_3   0.275206 0.563329 0.740464 0.469426
C17   C     C_3   0.274392 0.060396 0.306135 -0.128110
C18   C     C_3   0.725437 0.059043 0.692858 -0.127420
C19   C     C_3   0.774594 0.559568 0.306351 -0.127983
C20   C     C_3   0.225338 0.556846 0.690620 -0.124876
H1    H     H_    0.282804 0.950436 0.363291 0.131949
H2    H     H_    0.717041 0.948384 0.636662 0.130508
H3    H     H_    0.782936 0.449538 0.364097 0.130024
H4    H     H_    0.217257 0.444335 0.639631 0.133877
H5    H     H_    0.287403 0.099242 0.294342 0.167705
H6    H     H_    0.712140 0.098065 0.703749 0.166905
H7    H     H_    0.787865 0.598249 0.294794 0.167153
H8    H     H_    0.211845 0.596927 0.699280 0.165735
C21   C     C_1   0.375421 0.002431 0.376127 -0.170419
C22   C     C_1   0.624599 0.001508 0.623829 -0.171233
C23   C     C_1   0.875404 0.501543 0.376173 -0.170843
C24   C     C_1   0.124600 0.500848 0.623976 -0.171282
C25   C     C_3   0.208165 0.006240 0.204304 -0.170246
C26   C     C_3   0.791845 0.005746 0.795164 -0.170976
C27   C     C_3   0.708159 0.505796 0.204827 -0.171118
C28   C     C_3   0.291822 0.505559 0.795498 -0.169073
C29   C     C_3   0.273452 0.945590 0.305792 0.125304
C30   C     C_3   0.726727 0.944190 0.694418 0.128121
C31   C     C_3   0.773249 0.444712 0.306406 0.128533
C32   C     C_3   0.226809 0.442243 0.697443 0.120726
C33   C     C_3   0.291403 0.002235 0.288241 -0.086439
C34   C     C_3   0.708635 0.000958 0.711477 -0.085838
C35   C     C_3   0.791369 0.501023 0.288561 -0.086125
C36   C     C_3   0.208620 0.500366 0.711918 -0.083577
C37   C     C_3   0.276757 0.001150 0.203824 0.280206
C38   C     C_3   0.723329 0.000231 0.795894 0.281790
C39   C     C_3   0.776669 0.499422 0.204161 0.281768
C40   C     C_3   0.223305 0.502670 0.796323 0.279528
C41   C     C_3   0.225569 0.004789 0.151658 0.446169
C42   C     C_3   0.774489 0.004193 0.847892 0.445995
C43   C     C_3   0.725514 0.503415 0.152122 0.445946
C44   C     C_3   0.274471 0.507039 0.848220 0.445816
C45   C     C_1   0.337764 0.002649 0.337415 0.083220
C46   C     C_1   0.662262 0.001343 0.662424 0.084140
C47   C     C_1   0.837741 0.501415 0.337593 0.084495
C48   C     C_1   0.162256 0.500518 0.662774 0.082497
C49   C     C_1   0.161980 0.002386 0.158083 0.214964
C50   C     C_1   0.838033 0.002215 0.841406 0.213102
C51   C     C_1   0.661968 0.502254 0.158617 0.213310
C52   C     C_1   0.338021 0.502234 0.841796 0.212170
C53   C     C_1   0.124386 0.000263 0.121561 -0.145273
C54   C     C_1   0.875624 0.000211 0.878106 -0.144771
C55   C     C_1   0.624377 0.500246 0.121924 -0.144920
C56   C     C_1   0.375616 0.500274 0.878384 -0.144814
H9    H     H_    0.213193 0.907867 0.216837 0.257400
H10   H     H_    0.787490 0.907419 0.783276 0.257616
H11   H     H_    0.712487 0.407584 0.218012 0.257796
H12   H     H_    0.287519 0.406842 0.787908 0.256361
C57   C     C_R   0.061762 0.087958 0.248175 0.127099
C58   C     C_R   0.938261 0.087941 0.751716 0.126801
C59   C     C_R   0.561732 0.588009 0.248153 0.126753
C60   C     C_R   0.438006 0.587465 0.751433 0.127533
C61   C     C_R   0.086328 0.129483 0.305448 0.222929
C62   C     C_R   0.913696 0.129454 0.694381 0.222860
C63   C     C_R   0.586244 0.629610 0.305376 0.222353
C64   C     C_R   0.413244 0.628716 0.693906 0.223788
C65   C     C_R   0.081050 0.135262 0.362087 0.191671
C66   C     C_R   0.918979 0.135247 0.637741 0.191589
C67   C     C_R   0.580931 0.635401 0.361976 0.192344
C68   C     C_R   0.418598 0.634726 0.637372 0.191847
C69   C     C_R   0.054980 0.094416 0.368390 0.098642
C70   C     C_R   0.945030 0.094398 0.631484 0.098743
C71   C     C_R   0.554901 0.594492 0.368310 0.098951
C72   C     C_R   0.444846 0.594158 0.631292 0.099295
C73   C     C_R   0.029428 0.048740 0.311900 -0.056127
C74   C     C_R   0.970592 0.048750 0.688049 -0.056962
C75   C     C_R   0.529384 0.548783 0.311851 -0.056663
C76   C     C_R   0.470489 0.548584 0.687927 -0.056371
C77   C     C_R   0.031933 0.047377 0.248968 -0.038106
C78   C     C_R   0.968100 0.047403 0.750995 -0.038880
C79   C     C_R   0.531908 0.547409 0.248943 -0.038306
C80   C     C_R   0.467986 0.547181 0.750857 -0.037839
C81   C     C_R   0.001558 0.005171 0.315190 -0.064819
C82   C     C_R   0.998465 0.005201 0.684825 -0.065207
C83   C     C_R   0.501517 0.505209 0.315143 -0.064928
C84   C     C_R   0.498441 0.505151 0.684788 -0.065182
C85   C     C_R   0.974998 0.963768 0.254909 0.025274
C86   C     C_R   0.025071 0.963870 0.745215 0.025359
C87   C     C_R   0.474889 0.463891 0.254788 0.025151
C88   C     C_R   0.525049 0.463826 0.745181 0.025148
C89   C     C_R   0.973723 0.971221 0.190090 -0.057232
C90   C     C_R   0.026343 0.971338 0.810022 -0.057616
C91   C     C_R   0.473637 0.471349 0.189987 -0.056698
C92   C     C_R   0.526332 0.471302 0.809996 -0.057449
C93   C     C_R   0.004324 0.006227 0.189461 -0.075887
C94   C     C_R   0.995729 0.006307 0.810580 -0.076109
C95   C     C_R   0.504306 0.506250 0.189440 -0.075695
C96   C     C_R   0.495710 0.506246 0.810551 -0.075628
C97   C     C_R   0.949636 0.913934 0.254518 0.155811
C98   C     C_R   0.050486 0.914098 0.745739 0.156231
C99   C     C_R   0.449432 0.414148 0.254294 0.155774
C100  C     C_R   0.550447 0.414042 0.745688 0.156314
C101  C     C_R   0.926649 0.875117 0.192606 0.265118
C102  C     C_R   0.073503 0.875345 0.807746 0.265086
C103  C     C_R   0.426315 0.375500 0.192256 0.265317
C104  C     C_R   0.573445 0.375265 0.807678 0.265562
C105  C     C_R   0.920462 0.891259 0.125829 0.206764
C106  C     C_R   0.079651 0.891474 0.874466 0.207344
C107  C     C_R   0.420113 0.391726 0.125500 0.206618
C108  C     C_R   0.579592 0.391387 0.874403 0.206876
C109  C     C_R   0.941243 0.942687 0.124622 -0.199591
C110  C     C_R   0.058828 0.942848 0.875554 -0.199967
C111  C     C_R   0.441100 0.442966 0.124440 -0.200518
C112  C     C_R   0.558812 0.442802 0.875517 -0.199643
H13   H     H_    0.933481 0.958826 0.072063 0.175713
H14   H     H_    0.066563 0.958979 0.928076 0.175485
H15   H     H_    0.433449 0.459105 0.071955 0.175078
H16   H     H_    0.566568 0.458933 0.928054 0.175649
O17   O     O_R   0.500000 0.910000 0.552220 -0.558971
O18   O     O_R   0.500000 0.910000 0.447780 -0.557985
O19   O     O_R   0.000000 0.410000 0.552220 -0.558987
O20   O     O_R   0.000000 0.410000 0.447780 -0.559419
C113  C     C_R   0.500062 0.881368 0.500117 0.899767
C114  C     C_R   0.000050 0.381370 0.500119 0.900232
O21   O     O_R   0.439720 0.000200 0.491920 -0.578648
O22   O     O_R   0.560280 0.000200 0.508080 -0.579632
O23   O     O_R   0.939720 0.500200 0.491920 -0.579801
O24   O     O_R   0.060280 0.500200 0.508080 -0.580641
O25   O     O_R   0.439720 0.000170 0.387540 -0.585776
O26   O     O_R   0.560280 0.000170 0.612460 -0.585471
O27   O     O_R   0.939720 0.500170 0.387540 -0.584764
O28   O     O_R   0.060280 0.500170 0.612460 -0.586268
C115  C     C_R   0.420237 0.001432 0.420566 0.804265
C116  C     C_R   0.579773 0.001107 0.579437 0.804634
C117  C     C_R   0.920227 0.501093 0.420561 0.805701
C118  C     C_R   0.079777 0.500835 0.579461 0.806335
Cu5   Cu    Cu3+1 0.500000 0.000200 0.561810 0.950899
Cu6   Cu    Cu3+1 0.500000 0.000200 0.438190 0.954283
Cu7   Cu    Cu3+1 0.000000 0.500200 0.561810 0.951005
Cu8   Cu    Cu3+1 1.000000 0.500200 0.438190 0.952173
O29   O     O_R   0.500000 0.090400 0.552190 -0.583149
O30   O     O_R   0.500000 0.090400 0.447810 -0.581294
O31   O     O_R   0.000000 0.590400 0.552190 -0.581386
O32   O     O_R   0.000000 0.590400 0.447810 -0.581420
C119  C     C_R   0.500011 0.118421 0.499987 0.767326
C120  C     C_R   0.000016 0.618428 0.499988 0.767765
O33   O     O_R   0.965090 0.909820 0.465090 -0.553214
O34   O     O_R   0.034910 0.909820 0.534910 -0.553240
O35   O     O_R   0.465090 0.409820 0.465090 -0.553117
O36   O     O_R   0.534910 0.409820 0.534910 -0.553228
C121  C     C_R   0.000001 0.880728 0.500002 0.877660
C122  C     C_R   0.499995 0.380722 0.500003 0.878124
O37   O     O_R   0.965110 0.000030 0.374950 -0.609380
O38   O     O_R   0.034890 0.000030 0.625050 -0.609291
O39   O     O_R   0.465110 0.500030 0.374950 -0.609601
O40   O     O_R   0.534890 0.500030 0.625050 -0.609418
O41   O     O_R   0.034890 1.000000 0.444730 -0.502501
O42   O     O_R   0.965110 0.000000 0.555270 -0.502473
O43   O     O_R   0.534890 0.500000 0.444730 -0.502306
O44   O     O_R   0.465110 0.500000 0.555270 -0.502486
C123  C     C_R   0.000333 0.002526 0.381154 0.934494
C124  C     C_R   0.999671 0.002530 0.618846 0.934668
C125  C     C_R   0.500325 0.502525 0.381145 0.935344
C126  C     C_R   0.499668 0.502523 0.618838 0.934969
Cu9   Cu    Cu3+1 0.958680 0.000030 0.458700 0.970738
Cu10  Cu    Cu3+1 0.041320 0.000030 0.541300 0.973351
Cu11  Cu    Cu3+1 0.458680 0.500030 0.458700 0.970526
Cu12  Cu    Cu3+1 0.541320 0.500030 0.541300 0.970602
O45   O     O_R   0.965120 0.090230 0.465150 -0.606610
O46   O     O_R   0.034880 0.090230 0.534850 -0.606595
O47   O     O_R   0.465120 0.590230 0.465150 -0.607022
O48   O     O_R   0.534880 0.590230 0.534850 -0.606776
C127  C     C_R   0.000021 0.118803 0.500136 0.778554
C128  C     C_R   0.500004 0.618808 0.499993 0.779300
C129  C     C_R   0.432610 0.807466 0.368276 0.182754
C130  C     C_R   0.567017 0.807345 0.632920 0.189065
C131  C     C_R   0.933252 0.307322 0.367344 0.189757
C132  C     C_R   0.066156 0.307613 0.634218 0.181813
C133  C     C_R   0.401891 0.769066 0.310874 0.284119
C134  C     C_R   0.597488 0.768647 0.690417 0.278121
C135  C     C_R   0.902919 0.268498 0.309903 0.275572
C136  C     C_R   0.095714 0.269290 0.692935 0.294208
C137  C     C_R   0.913994 0.208754 0.308004 -0.191048
C138  C     C_R   0.086219 0.208460 0.692977 -0.192154
C139  C     C_R   0.412682 0.709022 0.308580 -0.195492
C140  C     C_R   0.586583 0.708716 0.692263 -0.192489
C141  C     C_R   0.949633 0.184372 0.367816 -0.231484
C142  C     C_R   0.050922 0.183846 0.632824 -0.238616
C143  C     C_R   0.448612 0.684572 0.367796 -0.229404
C144  C     C_R   0.550980 0.684198 0.632502 -0.231008
C145  C     C_R   0.973140 0.217041 0.434451 0.020824
C146  C     C_R   0.026995 0.216924 0.566453 0.023658
C147  C     C_R   0.472652 0.717099 0.434410 0.021798
C148  C     C_R   0.527222 0.716945 0.565959 0.021697
C149  C     C_R   0.468562 0.781210 0.434507 -0.003992
C150  C     C_R   0.531300 0.781138 0.566179 -0.004576
C151  C     C_R   0.968963 0.281185 0.434238 -0.004692
C152  C     C_R   0.030929 0.281235 0.566819 -0.005389
C153  C     C_R   0.000091 0.185617 0.500361 -0.147153
C154  C     C_R   0.500005 0.685616 0.500095 -0.149562
C155  C     C_R   0.500006 0.814145 0.500263 -0.165360
C156  C     C_R   0.000024 0.314159 0.500366 -0.165678
H17   H     H_    0.894879 0.180467 0.260056 0.164444
H18   H     H_    0.106717 0.179367 0.739488 0.172688
H19   H     H_    0.393296 0.680060 0.261533 0.161160
H20   H     H_    0.605696 0.680354 0.740138 0.163601
H21   H     H_    0.957116 0.138126 0.362041 0.162473
H22   H     H_    0.044205 0.137053 0.638229 0.165936
H23   H     H_    0.455905 0.638323 0.361626 0.163098
H24   H     H_    0.543609 0.637879 0.638355 0.163168
C157  C     C_R   0.559664 0.182499 0.490079 -0.292529
C158  C     C_R   0.440345 0.182283 0.509826 -0.297517
C159  C     C_R   0.059613 0.682519 0.489879 -0.293285
C160  C     C_R   0.940286 0.682336 0.509651 -0.292193
C161  C     C_R   0.581767 0.207508 0.464160 0.226330
C162  C     C_R   0.418391 0.207156 0.536064 0.222851
C163  C     C_R   0.081789 0.707580 0.464117 0.227088
C164  C     C_R   0.918240 0.707193 0.535711 0.226137
C165  C     C_R   0.082583 0.770593 0.458689 0.226683
C166  C     C_R   0.917747 0.770150 0.541940 0.225880
C167  C     C_R   0.582344 0.270491 0.458184 0.226139
C168  C     C_R   0.417891 0.270039 0.542332 0.232424
C169  C     C_R   0.055999 0.807475 0.468861 0.249297
C170  C     C_R   0.944220 0.807180 0.531540 0.249126
C171  C     C_R   0.555827 0.307402 0.468508 0.249389
C172  C     C_R   0.444238 0.307126 0.531655 0.249305
C173  C     C_R   0.028310 0.780767 0.487189 -0.080503
C174  C     C_R   0.971746 0.780638 0.512817 -0.080390
C175  C     C_R   0.528250 0.280732 0.487097 -0.080471
C176  C     C_R   0.471739 0.280612 0.512848 -0.080397
C177  C     C_R   0.529581 0.216360 0.493422 0.022968
C178  C     C_R   0.470393 0.216254 0.506422 0.025039
C179  C     C_R   0.029586 0.716383 0.493379 0.023597
C180  C     C_R   0.970393 0.716284 0.506390 0.023210
C181  C     C_R   0.000015 0.813539 0.499993 -0.159861
C182  C     C_R   0.499986 0.313521 0.499963 -0.160180
C183  C     C_R   0.499986 0.185153 0.499912 -0.044186
C184  C     C_R   0.999992 0.685172 0.499891 -0.044022
H25   H     H_    0.565144 0.134689 0.503975 0.162219
H26   H     H_    0.434880 0.134474 0.495995 0.163585
H27   H     H_    0.065050 0.634687 0.503640 0.162115
H28   H     H_    0.934773 0.634556 0.495636 0.162236
N1    N     N_R   0.292048 0.886721 0.305722 0.124683
O49   O     O_R   0.269732 0.842831 0.260734 -0.338242
O50   O     O_R   0.330332 0.874581 0.359073 -0.412778
N2    N     N_R   0.708711 0.885165 0.695944 0.129003
O51   O     O_R   0.731900 0.840803 0.738902 -0.351539
O52   O     O_R   0.669869 0.873238 0.645064 -0.411277
N3    N     N_R   0.791234 0.385440 0.305708 0.128776
O53   O     O_R   0.768012 0.340823 0.263402 -0.352911
O54   O     O_R   0.830085 0.373687 0.356692 -0.411415
N4    N     N_R   0.208693 0.384119 0.701210 0.126596
O55   O     O_R   0.231507 0.341413 0.747871 -0.317344
O56   O     O_R   0.170214 0.371066 0.649505 -0.410998
N5    N     N_2   0.298901 0.049157 0.190087 -0.399722
H29   H     H_    0.328697 0.036725 0.206401 0.258605
C185  C     C_3   0.297077 0.114937 0.195252 -0.596545
H30   H     H_    0.302436 0.136360 0.155416 0.263706
H31   H     H_    0.322635 0.130927 0.250576 0.189042
H32   H     H_    0.266643 0.131226 0.181536 0.245888
N6    N     N_2   0.701103 0.048207 0.809360 -0.399362
H33   H     H_    0.671388 0.035589 0.793386 0.258269
C186  C     C_3   0.702632 0.113931 0.803274 -0.597996
H34   H     H_    0.697094 0.135651 0.842710 0.263136
H35   H     H_    0.677050 0.129422 0.747702 0.188611
H36   H     H_    0.733035 0.130372 0.817000 0.247055
N7    N     N_2   0.798929 0.546930 0.190042 -0.399598
H37   H     H_    0.828631 0.534120 0.206175 0.258214
C187  C     C_3   0.797442 0.612750 0.195216 -0.597312
H38   H     H_    0.802947 0.633887 0.155425 0.262931
H39   H     H_    0.823060 0.628618 0.250550 0.189084
H40   H     H_    0.767065 0.629417 0.181363 0.246809
N8    N     N_2   0.200931 0.551911 0.807641 -0.398468
H41   H     H_    0.171378 0.539502 0.792772 0.259321
C188  C     C_3   0.201920 0.617180 0.797756 -0.599770
H42   H     H_    0.196001 0.641020 0.835629 0.263300
H43   H     H_    0.176335 0.630654 0.741254 0.187915
H44   H     H_    0.232287 0.633307 0.811006 0.247153
N9    N     N_2   0.893780 0.855110 0.061271 -0.361041
H45   H     H_    0.888557 0.810985 0.070385 0.294651
C189  C     C_3   0.897801 0.859436 0.999767 -0.548007
H46   H     H_    0.877700 0.824542 0.957988 0.222835
H47   H     H_    0.930683 0.851398 0.018116 0.212679
H48   H     H_    0.886813 0.904539 0.973011 0.250313
N10   N     N_2   0.106343 0.855356 0.939087 -0.360898
H49   H     H_    0.111560 0.811232 0.930049 0.294603
C190  C     C_3   0.102352 0.859698 0.000611 -0.548619
H50   H     H_    0.122467 0.824834 0.042455 0.222740
H51   H     H_    0.069477 0.851631 0.982318 0.212890
H52   H     H_    0.113345 0.904816 0.027259 0.250138
N11   N     N_2   0.393255 0.355717 0.060898 -0.360760
H53   H     H_    0.388694 0.311243 0.070075 0.294565
C191  C     C_3   0.396163 0.361290 0.998280 -0.548720
H54   H     H_    0.375650 0.326859 0.956181 0.224956
H55   H     H_    0.428788 0.353431 0.015071 0.213317
H56   H     H_    0.384973 0.406718 0.972601 0.249552
N12   N     N_2   0.606243 0.355255 0.939031 -0.360781
H57   H     H_    0.611715 0.311261 0.930052 0.294976
C192  C     C_3   0.601875 0.359171 0.000164 -0.546667
H58   H     H_    0.621877 0.324182 0.041920 0.222821
H59   H     H_    0.568925 0.350997 0.981354 0.212486
H60   H     H_    0.612762 0.404193 0.027134 0.250200
N13   N     N_2   0.067183 0.090074 0.189346 -0.391143
H61   H     H_    0.093941 0.069001 0.200552 0.272019
C193  C     C_3   0.057812 0.148193 0.150261 -0.546323
H62   H     H_    0.035784 0.142092 0.090457 0.247908
H63   H     H_    0.086646 0.168161 0.158995 0.178534
H64   H     H_    0.042734 0.181131 0.166965 0.204188
N14   N     N_2   0.932819 0.090008 0.810520 -0.391068
H65   H     H_    0.906057 0.068894 0.799302 0.271811
C194  C     C_3   0.942151 0.148126 0.849512 -0.546896
H66   H     H_    0.964193 0.142052 0.909324 0.248020
H67   H     H_    0.913301 0.168008 0.840752 0.179209
H68   H     H_    0.957206 0.181123 0.832755 0.203279
N15   N     N_2   0.567204 0.590048 0.189378 -0.391462
H69   H     H_    0.593951 0.568900 0.200642 0.272092
C195  C     C_3   0.557897 0.648140 0.150260 -0.544997
H70   H     H_    0.535862 0.642034 0.090461 0.248018
H71   H     H_    0.586762 0.668015 0.159010 0.178960
H72   H     H_    0.542829 0.681149 0.166909 0.204060
N16   N     N_2   0.432654 0.589626 0.810335 -0.391624
H73   H     H_    0.405880 0.568577 0.799176 0.270382
C196  C     C_3   0.441935 0.647872 0.849062 -0.546055
H74   H     H_    0.464113 0.642015 0.908876 0.248324
H75   H     H_    0.413107 0.667641 0.840472 0.178893
H76   H     H_    0.456780 0.680897 0.831912 0.204002
N17   N     N_2   0.117448 0.166158 0.306594 -0.389541
H77   H     H_    0.134102 0.146901 0.287836 0.302338
C197  C     C_3   0.110362 0.231504 0.295088 -0.637693
H78   H     H_    0.107951 0.245496 0.244365 0.194496
H79   H     H_    0.137269 0.256294 0.341310 0.239199
H80   H     H_    0.081343 0.245630 0.290473 0.230473
N18   N     N_2   0.882569 0.166096 0.693166 -0.389321
H81   H     H_    0.865904 0.146817 0.711928 0.302100
C198  C     C_3   0.889657 0.231446 0.704594 -0.638386
H82   H     H_    0.892071 0.245416 0.755303 0.194743
H83   H     H_    0.862749 0.256224 0.658346 0.239290
H84   H     H_    0.918675 0.245606 0.709186 0.229866
N19   N     N_2   0.617341 0.666351 0.306516 -0.389752
H85   H     H_    0.634030 0.647143 0.287797 0.302887
C199  C     C_3   0.610186 0.731679 0.294921 -0.636743
H86   H     H_    0.607756 0.745645 0.244172 0.194853
H87   H     H_    0.637070 0.756536 0.341105 0.239167
H88   H     H_    0.581155 0.745751 0.290292 0.230434
N20   N     N_2   0.381844 0.664837 0.692410 -0.390014
H89   H     H_    0.365270 0.645140 0.711108 0.299499
C200  C     C_3   0.388483 0.730268 0.703667 -0.638579
H90   H     H_    0.390709 0.744105 0.754244 0.194733
H91   H     H_    0.361440 0.754733 0.657295 0.239151
H92   H     H_    0.417443 0.744933 0.708358 0.231191
N21   N     N_2   0.102501 0.183674 0.414084 -0.419664
H93   H     H_    0.087332 0.205497 0.434308 0.253233
C201  C     C_3   0.147703 0.180388 0.463555 -0.573643
H94   H     H_    0.161779 0.222594 0.458677 0.234299
H95   H     H_    0.160639 0.140311 0.451689 0.244116
H96   H     H_    0.157143 0.177319 0.521261 0.202791
N22   N     N_2   0.897561 0.183679 0.585701 -0.418816
H97   H     H_    0.912753 0.205515 0.565483 0.252298
C202  C     C_3   0.852359 0.180418 0.536199 -0.577121
H98   H     H_    0.838303 0.222624 0.541033 0.234669
H99   H     H_    0.839390 0.140336 0.548071 0.244490
H100  H     H_    0.842934 0.177383 0.478503 0.198337
N23   N     N_2   0.602289 0.683900 0.413888 -0.418546
H101  H     H_    0.587065 0.705675 0.434039 0.252669
C203  C     C_3   0.647493 0.680774 0.463427 -0.578065
H102  H     H_    0.661512 0.723025 0.458502 0.234661
H103  H     H_    0.660511 0.640735 0.451673 0.244210
H104  H     H_    0.656905 0.677758 0.521122 0.198602
N24   N     N_2   0.397080 0.683110 0.585303 -0.419017
H105  H     H_    0.412273 0.705143 0.565207 0.253147
C204  C     C_3   0.351898 0.679571 0.535621 -0.574987
H106  H     H_    0.342576 0.676537 0.477986 0.200120
H107  H     H_    0.337678 0.721670 0.540265 0.234559
H108  H     H_    0.338995 0.639380 0.547456 0.244858
N25   N     N_2   0.056163 0.100814 0.433732 -0.408276
H109  H     H_    0.040933 0.139324 0.433810 0.223604
C205  C     C_3   0.096854 0.090603 0.502465 -0.465608
H110  H     H_    0.095077 0.055156 0.536387 0.248705
H111  H     H_    0.107762 0.133017 0.535725 0.183543
H112  H     H_    0.120673 0.074181 0.492953 0.205569
N26   N     N_2   0.943837 0.100796 0.566129 -0.406578
H113  H     H_    0.959057 0.139339 0.566013 0.223361
C206  C     C_3   0.903137 0.090580 0.497418 -0.470698
H114  H     H_    0.904891 0.055097 0.463566 0.248351
H115  H     H_    0.892253 0.132980 0.464072 0.178960
H116  H     H_    0.879309 0.074198 0.506963 0.205975
N27   N     N_2   0.556067 0.600885 0.433633 -0.406725
H117  H     H_    0.540770 0.639344 0.433635 0.223243
C207  C     C_3   0.596771 0.590798 0.502388 -0.471064
H118  H     H_    0.595052 0.555283 0.536306 0.248442
H119  H     H_    0.607594 0.633225 0.535631 0.179359
H120  H     H_    0.620630 0.574514 0.492910 0.205820
N28   N     N_2   0.443745 0.600727 0.566033 -0.406908
H121  H     H_    0.458946 0.639339 0.566021 0.223615
C208  C     C_3   0.403104 0.590440 0.497213 -0.469862
H122  H     H_    0.404953 0.555038 0.463389 0.248357
H123  H     H_    0.392192 0.632854 0.463895 0.180471
H124  H     H_    0.379254 0.573877 0.506609 0.206058
N29   N     N_2   0.946222 0.900608 0.314364 -0.384049
H125  H     H_    0.962187 0.862112 0.343530 0.288772
C209  C     C_3   0.904199 0.904240 0.298552 -0.491291
H126  H     H_    0.904140 0.932374 0.340258 0.237394
H127  H     H_    0.892789 0.857970 0.299650 0.232624
H128  H     H_    0.881740 0.925682 0.244317 0.210875
N30   N     N_2   0.053938 0.900765 0.685952 -0.384161
H129  H     H_    0.038086 0.862159 0.656954 0.289100
C210  C     C_3   0.095953 0.904644 0.701760 -0.489978
H130  H     H_    0.095913 0.932569 0.659771 0.237864
H131  H     H_    0.107538 0.858420 0.701126 0.232513
H132  H     H_    0.118319 0.926428 0.755790 0.211484
N31   N     N_2   0.446028 0.400759 0.314144 -0.383632
H133  H     H_    0.461930 0.362190 0.343201 0.289036
C211  C     C_3   0.404032 0.404547 0.298428 -0.492292
H134  H     H_    0.404079 0.432525 0.340343 0.237575
H135  H     H_    0.392500 0.358303 0.299256 0.232526
H136  H     H_    0.381616 0.426239 0.244338 0.210464
N32   N     N_2   0.553875 0.400702 0.685877 -0.383807
H137  H     H_    0.537981 0.362127 0.656853 0.289090
C212  C     C_3   0.595889 0.404497 0.701668 -0.491968
H138  H     H_    0.595881 0.432503 0.659764 0.237451
H139  H     H_    0.607403 0.358258 0.700878 0.232753
H140  H     H_    0.618296 0.426155 0.755762 0.210852
N33   N     N_R   0.907419 0.820763 0.197308 0.100911
O57   O     O_R   0.866955 0.815219 0.157781 -0.352862
O58   O     O_R   0.930289 0.777996 0.243761 -0.371741
N34   N     N_R   0.092813 0.821072 0.803204 0.100734
O59   O     O_R   0.133284 0.815674 0.842777 -0.352266
O60   O     O_R   0.070004 0.778193 0.756922 -0.372020
N35   N     N_R   0.406927 0.321251 0.196777 0.101240
O61   O     O_R   0.366457 0.315784 0.156886 -0.351128
O62   O     O_R   0.429660 0.278380 0.243189 -0.371893
N36   N     N_R   0.592705 0.320954 0.803092 0.100780
O63   O     O_R   0.633176 0.315551 0.842517 -0.353042
O64   O     O_R   0.569853 0.278091 0.756830 -0.372056
N37   N     N_2   0.206747 0.938634 0.297775 -0.377879
H141  H     H_    0.221693 0.961708 0.347006 0.284369
C213  C     C_3   0.196184 0.876838 0.305009 -0.622598
H142  H     H_    0.181627 0.877109 0.336558 0.225268
H143  H     H_    0.224760 0.848149 0.334527 0.242783
H144  H     H_    0.173346 0.857027 0.250068 0.235474
N38   N     N_2   0.793245 0.938440 0.701598 -0.377858
H145  H     H_    0.778018 0.961435 0.652277 0.283126
C214  C     C_3   0.804089 0.876849 0.694426 -0.622237
H146  H     H_    0.818519 0.877493 0.662669 0.225095
H147  H     H_    0.775663 0.847820 0.665134 0.242213
H148  H     H_    0.827121 0.857175 0.749370 0.235624
N39   N     N_2   0.706723 0.439607 0.299261 -0.377807
H149  H     H_    0.721983 0.462930 0.348334 0.283149
C215  C     C_3   0.695764 0.378246 0.307079 -0.622187
H150  H     H_    0.681325 0.379432 0.338809 0.225026
H151  H     H_    0.724137 0.349150 0.336695 0.242294
H152  H     H_    0.672703 0.358293 0.252343 0.235751
N40   N     N_2   0.293407 0.434194 0.705174 -0.379330
H153  H     H_    0.278329 0.455930 0.655066 0.283372
C216  C     C_3   0.304005 0.371836 0.700264 -0.618352
H154  H     H_    0.318440 0.370490 0.668534 0.225685
H155  H     H_    0.275463 0.343015 0.672028 0.242726
H156  H     H_    0.326954 0.353297 0.755910 0.235742
N41   N     N_2   0.636951 0.791388 0.750243 -0.447490
H157  H     H_    0.642920 0.836778 0.748421 0.266156
C217  C     C_3   0.673315 0.754215 0.773057 -0.548774
H158  H     H_    0.701977 0.778791 0.815739 0.260353
H159  H     H_    0.675476 0.744887 0.725577 0.251956
H160  H     H_    0.672272 0.710658 0.797705 0.208972
N42   N     N_2   0.362329 0.793374 0.252879 -0.445465
H161  H     H_    0.352740 0.831787 0.266306 0.285639
C218  C     C_3   0.328044 0.752004 0.206946 -0.584959
H162  H     H_    0.299042 0.778570 0.170249 0.257874
H163  H     H_    0.322775 0.721331 0.241307 0.236400
H164  H     H_    0.334321 0.725093 0.171374 0.221353
N43   N     N_2   0.135049 0.291992 0.752436 -0.411564
H165  H     H_    0.146997 0.330928 0.744651 0.287823
C219  C     C_3   0.147442 0.280461 0.827041 -0.652515
H166  H     H_    0.154188 0.324324 0.856896 0.207364
H167  H     H_    0.176178 0.252202 0.855598 0.265074
H168  H     H_    0.122617 0.256778 0.828943 0.220635
N44   N     N_2   0.863287 0.290745 0.250181 -0.448626
H169  H     H_    0.857622 0.336494 0.250244 0.263771
C220  C     C_3   0.827124 0.254622 0.231230 -0.549077
H170  H     H_    0.798288 0.277866 0.187015 0.259992
H171  H     H_    0.825474 0.249283 0.279828 0.255679
H172  H     H_    0.828062 0.209105 0.210234 0.208577
N45   N     N_2   0.428268 0.871120 0.354347 -0.410742
H173  H     H_    0.402610 0.889828 0.350203 0.248490
C221  C     C_3   0.432625 0.889224 0.295160 -0.592422
H174  H     H_    0.432091 0.939463 0.290120 0.235865
H175  H     H_    0.406669 0.871285 0.241489 0.209927
H176  H     H_    0.462741 0.872388 0.306074 0.226368
N46   N     N_2   0.571301 0.870955 0.646825 -0.412996
H177  H     H_    0.597519 0.889556 0.652832 0.250938
C222  C     C_3   0.565041 0.889206 0.703754 -0.603580
H178  H     H_    0.567202 0.939367 0.710516 0.236183
H179  H     H_    0.588963 0.869125 0.757728 0.200140
H180  H     H_    0.533700 0.874509 0.688978 0.231937
N47   N     N_2   0.928725 0.370930 0.353333 -0.412667
H181  H     H_    0.902313 0.389137 0.346919 0.250753
C223  C     C_3   0.935110 0.389438 0.296578 -0.603753
H182  H     H_    0.932335 0.439535 0.289145 0.235975
H183  H     H_    0.911652 0.368731 0.242737 0.198521
H184  H     H_    0.966702 0.375588 0.311956 0.232642
N48   N     N_2   0.070884 0.371310 0.647790 -0.407571
H185  H     H_    0.097774 0.388923 0.655500 0.250963
C224  C     C_3   0.064079 0.390510 0.703770 -0.598513
H186  H     H_    0.064241 0.440815 0.707506 0.238072
H187  H     H_    0.088996 0.373487 0.758689 0.203639
H188  H     H_    0.033424 0.373642 0.690398 0.226113
N49   N     N_2   0.398203 0.168051 0.559066 -0.427758
H189  H     H_    0.394242 0.123967 0.539863 0.248902
C225  C     C_3   0.416645 0.167821 0.637351 -0.608060
H190  H     H_    0.398541 0.136861 0.649656 0.213023
H191  H     H_    0.416138 0.213975 0.657447 0.253829
H192  H     H_    0.449408 0.151237 0.667241 0.224651
N50   N     N_2   0.602567 0.168344 0.442403 -0.434701
H193  H     H_    0.603769 0.123018 0.456170 0.248015
C226  C     C_3   0.592404 0.175974 0.368486 -0.591045
H194  H     H_    0.582167 0.131752 0.338701 0.201696
H195  H     H_    0.620627 0.191568 0.371385 0.238305
H196  H     H_    0.566789 0.209458 0.336089 0.239755
N51   N     N_2   0.897423 0.667901 0.557387 -0.434778
H197  H     H_    0.895906 0.622680 0.543072 0.248528
C227  C     C_3   0.907835 0.675007 0.631511 -0.591294
H198  H     H_    0.918272 0.630669 0.661058 0.201588
H199  H     H_    0.879677 0.690197 0.629037 0.237854
H200  H     H_    0.933386 0.708597 0.663878 0.239799
N52   N     N_2   0.102473 0.668435 0.442082 -0.434037
H201  H     H_    0.102686 0.622905 0.454217 0.246558
C228  C     C_3   0.093010 0.677224 0.368762 -0.592462
H202  H     H_    0.083517 0.633220 0.338469 0.200755
H203  H     H_    0.121352 0.693986 0.372842 0.239970
H204  H     H_    0.067091 0.710228 0.336157 0.239686
N53   N     N_2   0.110537 0.796771 0.442644 -0.402861
H205  H     H_    0.100947 0.836110 0.411790 0.308627
C229  C     C_3   0.153787 0.798579 0.504057 -0.627690
H206  H     H_    0.173339 0.816260 0.485445 0.219284
H207  H     H_    0.165028 0.752139 0.526947 0.234694
H208  H     H_    0.157476 0.829056 0.547675 0.242057
N54   N     N_2   0.890226 0.796115 0.559060 -0.402145
H209  H     H_    0.900193 0.835106 0.590498 0.308260
C230  C     C_3   0.846864 0.798663 0.498192 -0.626574
H210  H     H_    0.827686 0.816215 0.517598 0.219133
H211  H     H_    0.835256 0.752498 0.474749 0.235050
H212  H     H_    0.843082 0.829564 0.454780 0.242092
N55   N     N_2   0.609991 0.296603 0.441385 -0.402240
H213  H     H_    0.600130 0.335715 0.410114 0.308290
C231  C     C_3   0.653320 0.298952 0.502420 -0.627321
H214  H     H_    0.672608 0.316606 0.483250 0.219027
H215  H     H_    0.664826 0.252702 0.525709 0.235039
H216  H     H_    0.657067 0.329685 0.545886 0.241956
N56   N     N_2   0.390291 0.295924 0.559298 -0.405648
H217  H     H_    0.400123 0.335082 0.590435 0.307527
C232  C     C_3   0.346919 0.298103 0.498430 -0.620889
H218  H     H_    0.327692 0.315714 0.517710 0.221146
H219  H     H_    0.335451 0.251811 0.475347 0.234515
H220  H     H_    0.343037 0.328796 0.454779 0.239963
N57   N     N_R   0.055897 0.870338 0.452852 0.107403
O65   O     O_R   0.088623 0.902534 0.499454 -0.366910
O66   O     O_R   0.035789 0.885191 0.384056 -0.440467
N58   N     N_R   0.944326 0.870025 0.547532 0.107608
O67   O     O_R   0.911548 0.902176 0.501051 -0.367227
O68   O     O_R   0.964586 0.884901 0.616315 -0.440808
N59   N     N_R   0.555696 0.370262 0.452478 0.107488
O69   O     O_R   0.588457 0.402447 0.498962 -0.367276
O70   O     O_R   0.535477 0.385127 0.383676 -0.440983
N60   N     N_R   0.444242 0.370001 0.547424 0.107286
O71   O     O_R   0.411433 0.402029 0.500787 -0.367459
O72   O     O_R   0.464441 0.385033 0.616153 -0.439707
N61   N     N_2   0.212799 0.122860 0.213553 -0.423137
H221  H     H_    0.234838 0.157047 0.237992 0.226939
C233  C     C_3   0.172091 0.150255 0.184461 -0.508543
H222  H     H_    0.165488 0.184178 0.141700 0.217435
H223  H     H_    0.171841 0.174674 0.228434 0.215494
H224  H     H_    0.146698 0.116330 0.159158 0.238670
N62   N     N_2   0.786648 0.122291 0.785230 -0.424142
H225  H     H_    0.764507 0.156288 0.760262 0.227489
C234  C     C_3   0.827298 0.150023 0.814486 -0.506517
H226  H     H_    0.833649 0.184050 0.856945 0.218953
H227  H     H_    0.827624 0.174386 0.770514 0.215326
H228  H     H_    0.852817 0.116318 0.840189 0.238445
N63   N     N_2   0.713341 0.622392 0.213256 -0.424028
H229  H     H_    0.735496 0.656428 0.237703 0.227396
C235  C     C_3   0.672703 0.650212 0.183775 -0.505505
H230  H     H_    0.666372 0.683993 0.141048 0.218524
H231  H     H_    0.672371 0.674864 0.227545 0.215770
H232  H     H_    0.647166 0.616513 0.158316 0.238489
N64   N     N_2   0.286191 0.621782 0.780503 -0.424148
H233  H     H_    0.263967 0.655487 0.753959 0.227814
C236  C     C_3   0.326773 0.649383 0.808955 -0.509209
H234  H     H_    0.333177 0.684125 0.850761 0.220563
H235  H     H_    0.326885 0.672938 0.764358 0.214056
H236  H     H_    0.352326 0.615735 0.835132 0.237914
N65   N     N_R   0.207327 0.070189 0.302722 0.120145
O73   O     O_R   0.171566 0.045758 0.281493 -0.422036
O74   O     O_R   0.219854 0.114306 0.350169 -0.395656
N66   N     N_R   0.792495 0.069829 0.696518 0.120442
O75   O     O_R   0.828342 0.045724 0.717819 -0.421622
O76   O     O_R   0.779734 0.113866 0.648850 -0.396104
N67   N     N_R   0.707572 0.570947 0.302709 0.120527
O77   O     O_R   0.671707 0.547022 0.281682 -0.422337
O78   O     O_R   0.720351 0.615349 0.349859 -0.396164
N68   N     N_R   0.292468 0.565754 0.694364 0.120071
O79   O     O_R   0.328312 0.541126 0.716559 -0.419578
O80   O     O_R   0.279653 0.608432 0.645044 -0.395597
N69   N     N_2   0.292391 0.063983 0.384910 -0.396167
H237  H     H_    0.278982 0.038894 0.406241 0.278579
C237  C     C_3   0.310661 0.121731 0.420546 -0.595494
H238  H     H_    0.320367 0.119676 0.478492 0.236518
H239  H     H_    0.287989 0.159564 0.392608 0.247457
H240  H     H_    0.338118 0.131466 0.418286 0.206525
N70   N     N_2   0.707652 0.061523 0.614090 -0.397607
H241  H     H_    0.721489 0.036583 0.593486 0.277390
C238  C     C_3   0.688235 0.118221 0.576638 -0.591753
H242  H     H_    0.678244 0.114963 0.518604 0.235304
H243  H     H_    0.710281 0.156980 0.602971 0.247346
H244  H     H_    0.660770 0.127249 0.579076 0.209201
N71   N     N_2   0.792450 0.562977 0.385089 -0.397387
H245  H     H_    0.778723 0.538348 0.406169 0.277438
C239  C     C_3   0.811566 0.620155 0.421400 -0.592888
H246  H     H_    0.821105 0.617941 0.479244 0.236188
H247  H     H_    0.789480 0.658687 0.393773 0.246767
H248  H     H_    0.839268 0.628780 0.419527 0.209470
N72   N     N_2   0.207778 0.556082 0.611866 -0.398402
H249  H     H_    0.222049 0.530170 0.592809 0.277388
C240  C     C_3   0.187197 0.610975 0.570776 -0.588776
H250  H     H_    0.175797 0.604170 0.512396 0.232083
H251  H     H_    0.208939 0.650365 0.592787 0.249510
H252  H     H_    0.160483 0.621384 0.574947 0.208460
N73   N     N_R   0.206308 0.951378 0.100489 0.104727
O81   O     O_R   0.217305 0.895065 0.121012 -0.346513
O82   O     O_R   0.176963 0.960379 0.031571 -0.297102
N74   N     N_R   0.793878 0.950870 0.899215 0.104653
O83   O     O_R   0.783035 0.894507 0.878792 -0.347077
O84   O     O_R   0.823109 0.960004 0.968158 -0.297600
N75   N     N_R   0.706090 0.449742 0.101458 0.104802
O85   O     O_R   0.716845 0.393481 0.122601 -0.347375
O86   O     O_R   0.676955 0.458446 0.032359 -0.297015
N76   N     N_R   0.294032 0.455371 0.902095 0.104129
O87   O     O_R   0.283515 0.398524 0.884345 -0.337465
O88   O     O_R   0.323158 0.466518 0.970595 -0.299061
N77   N     N_R   0.211804 0.059007 0.102695 0.138236
O89   O     O_R   0.226777 0.066224 0.062764 -0.315866
O90   O     O_R   0.174748 0.081553 0.075278 -0.351581
N78   N     N_R   0.788144 0.058500 0.896640 0.139167
O91   O     O_R   0.773098 0.065762 0.936435 -0.315547
O92   O     O_R   0.825175 0.081180 0.924043 -0.349828
N79   N     N_R   0.711897 0.557325 0.102706 0.138987
O93   O     O_R   0.726925 0.563926 0.062785 -0.315860
O94   O     O_R   0.674893 0.580159 0.075060 -0.350173
N80   N     N_R   0.287975 0.562996 0.894310 0.139415
O95   O     O_R   0.272719 0.572893 0.933355 -0.317698
O96   O     O_R   0.325116 0.585024 0.921182 -0.349992
N81   N     N_2   0.290600 0.942957 0.190310 -0.371976
H253  H     H_    0.318793 0.927047 0.233946 0.256433
C241  C     C_3   0.289672 0.936294 0.123464 -0.485267
H254  H     H_    0.286956 0.887189 0.109176 0.234593
H255  H     H_    0.319082 0.953783 0.131989 0.169435
H256  H     H_    0.263064 0.960960 0.076551 0.282828
N82   N     N_2   0.709661 0.942040 0.809896 -0.372600
H257  H     H_    0.681469 0.925968 0.766439 0.258022
C242  C     C_3   0.710742 0.935489 0.876906 -0.494804
H258  H     H_    0.713544 0.886397 0.891403 0.235583
H259  H     H_    0.681353 0.952903 0.868480 0.169090
H260  H     H_    0.737358 0.960281 0.923631 0.284656
N83   N     N_2   0.790282 0.440871 0.190931 -0.372566
H261  H     H_    0.818438 0.424905 0.234608 0.258713
C243  C     C_3   0.789213 0.433512 0.124029 -0.495523
H262  H     H_    0.818654 0.450546 0.132298 0.168811
H263  H     H_    0.762666 0.458167 0.077004 0.284892
H264  H     H_    0.786296 0.384294 0.110096 0.235941
N84   N     N_2   0.209836 0.445597 0.812957 -0.367225
H265  H     H_    0.181642 0.428643 0.770365 0.257773
C244  C     C_3   0.211204 0.441845 0.880456 -0.495433
H266  H     H_    0.215532 0.393534 0.898427 0.240659
H267  H     H_    0.181365 0.458305 0.871002 0.163572
H268  H     H_    0.237103 0.469084 0.925318 0.282929

loop_
_geom_bond_atom_site_label_1
_geom_bond_atom_site_label_2
_geom_bond_distance
_ccdc_geom_bond_type
C67   C71   1.410494 A    
C233  H222  1.110151 S    
C231  H215  1.110184 S    
C101  C105  1.394330 A    
N17   H77   1.029254 S    
N26   C206  1.465626 S    
C14   N66   1.493623 S    
C208  H122  1.104742 S    
C110  H14   1.078013 S    
N48   H185  1.029272 S    
C72   C76   1.466029 A    
N35   O61   1.301617 A    
C25   C41   1.631762 S    
H2    C30   1.108664 S    
C18   N70   1.463856 S    
C244  H266  1.109447 S    
N8    C188  1.450433 S    
N24   C204  1.453790 S    
N83   H261  1.029338 S    
C214  H148  1.111031 S    
C165  C169  1.419969 A    
C241  H255  1.110961 S    
N46   H177  1.029236 S    
N4    O55   1.301386 A    
N77   O89   1.302895 A    
C157  C161  1.377333 A    
C6    C54   1.430274 S    
C31   N3    1.477763 S    
C63   C67   1.375614 A    
C237  H239  1.109290 S    
N59   O70   1.297037 A    
C20   N72   1.464396 S    
C68   C72   1.410520 A    
C226  H196  1.112210 S    
C37   N5    1.489005 S    
N57   O65   1.302823 A    
C205  H112  1.111609 S    
C11   C31   1.567407 S    
O17   C113  1.307691 A    
C14   N62   1.476319 S    
C200  H92   1.111764 S    
O23   Cu7   1.944782 S    
N23   H101  1.030514 S    
N6    H33   1.032665 S    
C146  C153  1.404999 A    
O21   Cu5   1.944782 S    
C28   C44   1.631692 S    
C68   N24   1.435595 S    
C130  C150  1.456980 A    
C166  C170  1.420111 A    
C185  H31   1.110943 S    
C9    N37   1.463401 S    
O4    C4    1.328768 A    
N76   O88   1.303363 A    
O30   C119  1.301330 A    
C109  H13   1.078006 S    
C238  H244  1.109772 S    
C114  C156  1.473091 S    
N51   H197  1.031787 S    
N20   C200  1.453500 S    
C206  H115  1.110166 S    
C157  C177  1.415405 A    
C72   N28   1.418494 S    
C104  N36   1.437360 S    
C217  H159  1.111793 S    
C98   C102  1.419098 A    
C137  H17   1.081999 S    
C196  H75   1.108595 S    
O36   C122  1.287226 A    
C164  N51   1.429071 S    
C196  H74   1.104354 S    
C227  H200  1.112203 S    
C171  C175  1.459141 A    
C133  N42   1.437382 S    
C132  N48   1.418032 S    
C141  C145  1.412948 A    
C11   H11   1.094033 S    
C22   C116  1.435691 S    
C191  H54   1.110922 S    
C207  H120  1.111589 S    
C173  C181  1.461289 A    
C227  H199  1.109658 S    
C240  H252  1.109766 S    
C220  H171  1.111354 S    
C67   N23   1.435560 S    
C230  H212  1.110833 S    
Cu5   O29   1.988054 S    
O16   Cu4   1.942145 S    
C228  H202  1.111578 S    
N55   H213  1.029146 S    
O13   C5    1.303398 A    
O7    Cu4   1.993667 S    
C236  H235  1.109783 S    
C190  H52   1.106150 S    
O15   C7    1.303323 A    
N32   C212  1.459914 S    
N62   C234  1.455638 S    
N44   C220  1.449167 S    
O20   Cu8   1.987984 S    
C50   C54   1.204760 T    
C64   N20   1.433853 S    
N8    H41   1.032714 S    
C26   C42   1.631962 S    
C40   C44   1.641860 S    
O18   Cu6   1.987984 S    
O9    C5    1.302383 A    
N74   O83   1.301157 A    
N69   H237  1.030248 S    
N73   O82   1.303301 A    
O48   C128  1.280824 A    
C97   C101  1.419200 A    
C213  H143  1.110991 S    
C40   N8    1.488616 S    
C14   C26   1.614862 S    
C224  H187  1.106118 S    
C202  H98   1.107801 S    
O8    Cu4   1.994017 S    
C208  H124  1.111564 S    
C21   C45   1.206634 T    
C13   N65   1.493989 S    
C142  H22   1.080362 S    
C176  C182  1.461263 A    
C201  H94   1.107804 S    
N28   H121  1.029788 S    
C19   H7    1.091226 S    
Cu8   O32   1.988405 S    
C228  H204  1.112248 S    
C20   H8    1.091588 S    
O33   Cu9   1.987858 S    
N79   O94   1.300841 A    
C173  C179  1.415814 A    
O3    Cu2   1.993798 S    
C174  C180  1.415661 A    
C175  C177  1.415730 A    
N72   H249  1.030109 S    
C29   C33   1.571081 S    
C4    C96   1.478143 S    
C87   C91   1.407486 A    
C186  H36   1.097099 S    
C236  H234  1.110105 S    
C145  C151  1.414919 A    
C31   C35   1.572316 S    
C32   C36   1.571550 S    
C214  H146  1.110605 S    
N5    C185  1.451148 S    
N52   H201  1.031591 S    
N65   O73   1.300531 A    
C230  H211  1.110064 S    
N53   C229  1.446800 S    
C38   C42   1.641217 S    
O28   Cu7   1.939787 S    
C42   N78   1.487458 S    
N56   H217  1.029151 S    
N3    O54   1.301522 A    
C232  H218  1.110400 S    
C211  H135  1.111080 S    
O3    C3    1.329263 A    
C120  C184  1.462875 S    
Cu9   Cu10  2.646909 S    
N7    H37   1.032662 S    
C33   C37   1.609499 S    
N84   H265  1.029853 S    
N42   H161  1.027746 S    
C65   N21   1.435517 S    
N11   H53   1.030075 S    
C233  H224  1.101822 S    
C197  H78   1.108793 S    
C144  H24   1.081023 S    
C71   C75   1.465717 A    
O39   Cu11  1.990678 S    
N25   H109  1.029754 S    
C60   N16   1.421667 S    
O27   C117  1.306015 A    
O44   Cu11  1.994713 S    
C163  N52   1.429575 S    
C18   C34   1.582608 S    
C223  H184  1.111214 S    
N82   H257  1.029265 S    
C234  H226  1.110154 S    
C41   N73   1.501447 S    
N79   O93   1.302885 A    
C204  H106  1.108756 S    
C221  H176  1.111521 S    
C97   N29   1.423711 S    
N70   C238  1.446960 S    
N63   H229  1.031122 S    
C209  H127  1.111091 S    
N29   H125  1.030034 S    
C89   C93   1.415358 A    
C180  C184  1.405922 A    
N35   O62   1.301022 A    
C100  N32   1.423812 S    
C186  H34   1.110053 S    
C16   N64   1.476345 S    
C36   C40   1.609427 S    
C73   C81   1.470306 A    
C166  N54   1.429846 S    
N6    C186  1.450802 S    
N58   O68   1.297029 A    
C243  H263  1.107555 S    
C37   C41   1.641872 S    
O22   Cu6   1.944779 S    
C143  H23   1.081046 S    
N67   O77   1.300512 A    
C12   H12   1.094129 S    
C60   C64   1.406507 A    
N55   C231  1.446743 S    
C86   C90   1.407493 A    
C244  H267  1.111114 S    
N68   O79   1.300677 A    
C13   N61   1.476456 S    
C218  H164  1.109588 S    
O5    Cu3   1.993667 S    
C107  C111  1.392432 A    
C43   N75   1.501253 S    
N40   H153  1.030358 S    
N34   O59   1.301620 A    
C188  H43   1.110784 S    
Cu12  O48   1.987737 S    
C202  H100  1.108789 S    
C87   C99   1.463707 A    
C15   N67   1.493676 S    
C167  N55   1.429848 S    
C16   N68   1.493368 S    
C9    H9    1.093884 S    
C147  C154  1.403872 A    
H3    C31   1.108647 S    
C84   C126  1.477997 S    
C199  H88   1.111774 S    
N75   O86   1.303273 A    
N43   H165  1.028637 S    
C225  H192  1.111745 S    
C131  C135  1.427373 A    
N81   C241  1.457217 S    
C212  H139  1.111081 S    
C131  N47   1.417188 S    
C159  C179  1.415396 A    
C63   N19   1.434276 S    
C69   N25   1.418460 S    
N66   O75   1.300554 A    
N27   C207  1.465618 S    
N80   O96   1.300886 A    
C226  H194  1.111524 S    
N13   C193  1.463866 S    
Cu9   O45   1.987626 S    
C194  H67   1.108853 S    
C36   C48   1.486994 S    
C236  H236  1.102033 S    
C30   N2    1.477800 S    
C44   N76   1.501415 S    
C98   N30   1.423849 S    
C34   C38   1.608811 S    
O13   Cu3   1.942256 S    
O36   Cu12  1.987746 S    
N42   C218  1.449185 S    
C138  C142  1.372120 A    
C198  H84   1.111780 S    
O23   C117  1.306628 A    
C178  C183  1.405774 A    
N12   C192  1.447693 S    
C210  H131  1.111078 S    
O24   Cu8   1.944779 S    
O21   C115  1.306693 A    
O34   Cu10  1.987746 S    
C70   N26   1.418304 S    
C1    C93   1.478094 S    
C193  H62   1.104305 S    
C229  H207  1.110488 S    
N78   O92   1.300852 A    
C232  H220  1.110871 S    
C3    C95   1.478077 S    
O5    C1    1.284663 A    
C216  H154  1.110591 S    
N71   C239  1.447133 S    
C161  N50   1.429187 S    
C222  H179  1.108639 S    
C130  C134  1.427724 A    
C91   C95   1.415449 A    
C209  H126  1.106393 S    
C100  C104  1.419141 A    
C242  H260  1.107534 S    
C213  H144  1.111034 S    
C158  C178  1.415314 A    
N64   C236  1.455192 S    
C102  N34   1.437393 S    
O15   Cu4   1.942256 S    
N41   C217  1.449704 S    
C169  N57   1.421208 S    
C78   C94   1.449905 A    
C81   C85   1.453451 A    
C38   N6    1.488800 S    
C242  H258  1.109959 S    
C234  H228  1.101906 S    
C83   C87   1.453630 A    
C189  H47   1.111065 S    
C38   N82   1.476588 S    
C23   C117  1.435641 S    
C85   C89   1.407378 A    
C221  H174  1.105630 S    
C141  H21   1.081086 S    
N64   H233  1.031122 S    
C204  H108  1.111792 S    
C202  H99   1.111802 S    
C19   N71   1.463711 S    
N46   C222  1.457449 S    
C73   C77   1.440138 A    
N14   C194  1.463867 S    
O14   C6    1.303259 A    
C75   C79   1.440069 A    
O40   C126  1.290458 A    
O40   Cu12  1.990677 S    
C140  C144  1.373261 A    
N2    O52   1.301506 A    
C24   C48   1.206708 T    
C165  N53   1.429826 S    
C219  H166  1.110093 S    
C147  C149  1.414244 A    
C29   N1    1.477630 S    
C214  H147  1.110952 S    
N4    O56   1.301509 A    
C28   C52   1.481560 S    
O42   C124  1.285401 A    
C170  N58   1.421287 S    
O10   C6    1.302373 A    
N47   C223  1.457814 S    
C201  H96   1.108766 S    
C175  C182  1.461316 A    
C15   N63   1.476330 S    
C132  C152  1.458419 A    
C195  H72   1.111512 S    
N72   C240  1.446343 S    
C35   C47   1.487144 S    
O33   C121  1.287357 A    
C64   C68   1.375416 A    
C226  H195  1.109669 S    
O32   C120  1.301324 A    
C157  H25   1.078715 S    
C197  H80   1.111777 S    
C21   C115  1.435545 S    
C205  H111  1.110120 S    
C57   C61   1.406648 A    
Cu11  Cu12  2.646909 S    
C187  H40   1.097277 S    
C27   C43   1.632027 S    
C200  H91   1.107720 S    
C59   C63   1.406811 A    
C231  H214  1.110402 S    
C169  C173  1.459365 A    
N2    O51   1.301272 A    
N17   C197  1.453495 S    
C212  H138  1.106402 S    
C61   N17   1.434171 S    
C225  H190  1.110567 S    
Cu7   O31   1.988054 S    
C113  C155  1.473357 S    
N30   C210  1.459903 S    
C2    C94   1.478063 S    
C210  H130  1.106411 S    
N19   C199  1.453503 S    
C30   C34   1.572355 S    
C206  H114  1.104826 S    
C61   C65   1.375539 A    
O41   Cu10  1.994713 S    
N57   O66   1.297102 A    
C215  H150  1.110598 S    
O17   Cu5   1.988334 S    
C52   C56   1.204888 T    
N11   C191  1.447425 S    
N73   O81   1.301073 A    
C215  H152  1.111028 S    
C239  H246  1.109536 S    
N82   C242  1.457136 S    
C158  C162  1.377426 A    
C7    C55   1.430288 S    
C227  H198  1.111504 S    
N50   H193  1.031750 S    
N13   H61   1.028666 S    
O26   C116  1.306046 A    
C207  H119  1.110168 S    
N19   H85   1.029307 S    
C216  H156  1.111044 S    
O37   Cu9   1.990678 S    
C240  H251  1.109085 S    
C74   C78   1.440084 A    
C220  H170  1.111026 S    
C203  H104  1.108793 S    
C84   C88   1.453530 A    
N31   C211  1.459966 S    
C160  H28   1.078779 S    
C62   C66   1.375505 A    
C199  H86   1.108819 S    
N81   H253  1.029371 S    
N33   O58   1.301016 A    
C171  N59   1.421113 S    
C101  N33   1.437398 S    
C172  N60   1.421251 S    
O28   C118  1.305614 A    
C104  C108  1.394319 A    
C207  H118  1.104815 S    
O42   Cu9   1.994713 S    
C164  C166  1.387949 A    
N67   O78   1.301520 A    
O18   C113  1.308919 A    
N71   H245  1.030180 S    
C59   N15   1.421765 S    
C41   N77   1.487310 S    
N18   H81   1.029265 S    
O38   C124  1.290425 A    
C129  C149  1.455459 A    
C160  C180  1.415402 A    
O8    C4    1.285087 A    
N15   C195  1.463879 S    
C130  N46   1.417154 S    
Cu10  O46   1.987737 S    
C92   C96   1.415444 A    
O35   C122  1.287260 A    
C187  H39   1.110879 S    
C163  C165  1.387922 A    
C161  C167  1.387898 A    
C231  H216  1.110850 S    
N10   H49   1.029934 S    
N77   O90   1.300876 A    
C14   C18   1.604041 S    
C224  H186  1.105421 S    
C39   N7    1.488827 S    
O45   C127  1.281214 A    
C208  H123  1.110159 S    
C138  H18   1.083176 S    
C44   N80   1.487626 S    
N28   C208  1.465748 S    
C241  H256  1.107605 S    
C190  H51   1.111061 S    
C58   C62   1.406691 A    
C228  H203  1.109681 S    
O12   Cu2   1.942254 S    
C179  C184  1.406123 A    
N45   C221  1.456925 S    
N32   H137  1.030048 S    
Cu7   Cu8   2.717594 S    
C89   C109  1.420484 A    
C237  H238  1.109574 S    
O1    C1    1.329210 A    
C106  C110  1.392238 A    
C119  C183  1.462610 S    
C195  H70   1.104269 S    
N36   O63   1.301622 A    
C60   C80   1.462454 A    
C237  H240  1.109754 S    
N20   H89   1.029018 S    
N22   C202  1.453739 S    
N61   H221  1.031105 S    
C13   C17   1.604304 S    
C229  H206  1.110394 S    
O37   C123  1.290483 A    
C194  H68   1.111536 S    
C15   C19   1.604142 S    
N38   H145  1.030472 S    
N5    H29   1.032656 S    
C16   C28   1.615249 S    
C148  C154  1.404147 A    
C10   C26   1.594632 S    
C167  C171  1.420108 A    
N14   H65   1.028689 S    
C49   C53   1.204944 T    
C212  H140  1.112659 S    
C185  H32   1.097518 S    
N7    C187  1.450882 S    
C133  C139  1.390171 A    
C71   N27   1.418393 S    
C22   C46   1.206757 T    
N76   O87   1.300972 A    
C121  C181  1.472609 S    
C131  C151  1.457685 A    
N40   C216  1.448308 S    
C136  C138  1.382658 A    
N83   C243  1.457131 S    
N60   O72   1.297038 A    
C233  H223  1.110116 S    
Cu1   Cu3   2.709866 S    
C140  H20   1.081576 S    
C217  H160  1.109080 S    
C32   N4    1.477454 S    
N49   C225  1.448522 S    
C12   C32   1.567333 S    
N60   O71   1.302746 A    
C99   N31   1.423802 S    
C152  C156  1.459196 A    
C196  H76   1.111581 S    
O24   C118  1.306997 A    
C193  H63   1.108760 S    
O20   C114  1.309165 A    
C219  H168  1.111283 S    
C223  H183  1.108580 S    
C105  C109  1.392188 A    
N22   H97   1.030512 S    
N39   C215  1.448328 S    
C220  H172  1.108655 S    
N48   C224  1.457223 S    
C10   N38   1.463296 S    
C11   N39   1.463318 S    
Cu2   Cu4   2.709866 S    
C108  C112  1.392170 A    
N74   O84   1.303294 A    
C221  H175  1.108750 S    
C159  H27   1.078623 S    
O19   Cu7   1.988334 S    
C66   N22   1.435570 S    
O6    C2    1.284879 A    
C193  H64   1.111549 S    
O4    Cu2   1.993451 S    
C203  H102  1.107802 S    
N16   C196  1.463871 S    
C186  H35   1.110863 S    
C191  H56   1.106181 S    
C103  C107  1.394113 A    
N36   O64   1.301014 A    
C99   C103  1.419127 A    
C218  H163  1.111257 S    
C33   C45   1.486980 S    
C76   C84   1.470292 A    
N38   C214  1.448330 S    
N3    O53   1.301263 A    
H1    C29   1.108636 S    
N12   H57   1.029877 S    
C66   C70   1.410491 A    
C18   H6    1.091402 S    
C51   C55   1.204764 T    
C192  H60   1.106191 S    
C135  N44   1.434428 S    
H4    C32   1.108590 S    
C134  C140  1.386626 A    
O2    Cu1   1.993451 S    
C39   C43   1.641167 S    
O10   Cu1   1.942254 S    
C8    C56   1.430507 S    
C58   N14   1.421757 S    
N68   O80   1.301649 A    
C62   N18   1.434189 S    
N69   C237  1.447726 S    
O34   C121  1.286992 A    
C105  N9    1.438469 S    
C143  C147  1.412500 A    
C76   C80   1.440033 A    
Cu6   O30   1.988405 S    
C235  H232  1.101906 S    
N34   O60   1.301012 A    
C188  H42   1.110076 S    
C224  H188  1.111608 S    
C145  C153  1.403598 A    
N26   H113  1.029708 S    
N21   C201  1.453745 S    
C34   C46   1.487183 S    
C103  N35   1.437485 S    
C198  H82   1.108797 S    
C11   C27   1.594556 S    
C12   C28   1.595324 S    
N24   H105  1.030521 S    
C26   C50   1.481448 S    
O43   Cu12  1.994713 S    
C239  H248  1.109762 S    
C241  H254  1.109754 S    
C57   C77   1.462911 A    
C225  H191  1.108730 S    
C13   C25   1.615685 S    
C192  H58   1.110960 S    
C234  H227  1.110153 S    
C25   C49   1.481695 S    
C12   N40   1.463246 S    
C112  H16   1.078053 S    
N66   O76   1.301548 A    
N27   H117  1.029777 S    
C230  H210  1.110398 S    
N44   H169  1.026631 S    
C162  C168  1.386437 A    
N9    H45   1.029923 S    
C111  H15   1.077892 S    
N23   C203  1.453741 S    
C149  C155  1.457070 A    
C43   N79   1.487481 S    
C74   C82   1.470458 A    
C86   C98   1.463842 A    
C158  H26   1.078644 S    
C23   C47   1.206740 T    
N21   H93   1.030508 S    
C177  C183  1.405827 A    
C139  C143  1.373895 A    
C198  H83   1.107769 S    
O26   Cu5   1.939787 S    
N25   C205  1.465589 S    
C170  C174  1.459191 A    
C150  C155  1.457773 A    
C172  C176  1.459345 A    
C27   C51   1.481466 S    
O25   Cu6   1.939789 S    
C218  H162  1.111034 S    
O19   C114  1.307394 A    
C59   C79   1.462997 A    
C232  H219  1.109948 S    
C106  N10   1.438466 S    
C211  H136  1.112654 S    
O38   Cu10  1.990677 S    
C39   N83   1.476659 S    
N37   C213  1.448332 S    
C108  N12   1.438449 S    
C107  N11   1.438491 S    
C80   C96   1.449737 A    
C242  H259  1.110959 S    
O39   C125  1.290304 A    
C217  H158  1.111173 S    
N50   C226  1.452191 S    
Cu11  O47   1.987626 S    
N1    O50   1.301501 A    
C146  C152  1.417144 A    
C10   H10   1.094141 S    
N41   H157  1.026853 S    
O41   C123  1.285315 A    
C132  C136  1.423646 A    
C168  C172  1.420345 A    
C24   C118  1.435600 S    
O11   C7    1.302313 A    
C151  C156  1.457837 A    
C83   C125  1.478296 S    
Cu5   Cu6   2.717594 S    
O1    Cu1   1.993798 S    
N18   C198  1.453493 S    
O9    Cu1   1.942137 S    
C190  H50   1.110949 S    
C204  H107  1.107765 S    
C142  C146  1.414161 A    
C209  H128  1.112653 S    
N29   C209  1.459956 S    
C69   C73   1.465816 A    
C81   C123  1.478191 S    
C35   C39   1.608754 S    
N10   C190  1.447599 S    
N65   O74   1.301408 A    
C82   C124  1.478207 S    
C15   C27   1.614816 S    
C213  H142  1.110596 S    
O16   C8    1.303092 A    
C16   C20   1.603501 S    
C139  H19   1.080616 S    
N58   O67   1.302754 A    
C40   N84   1.476571 S    
N39   H149  1.030510 S    
C176  C178  1.415765 A    
C243  H264  1.109936 S    
N62   H225  1.031135 S    
C127  C153  1.464389 S    
C187  H38   1.110041 S    
C137  C141  1.373099 A    
C136  N43   1.429965 S    
O11   Cu2   1.942137 S    
C129  N45   1.417924 S    
O35   Cu11  1.987858 S    
C189  H46   1.110952 S    
C199  H87   1.107773 S    
N49   H189  1.031223 S    
O29   C119  1.301360 A    
C57   N13   1.421737 S    
N59   O69   1.302775 A    
C37   N81   1.476550 S    
N56   C232  1.446681 S    
C90   C94   1.415529 A    
C244  H268  1.107602 S    
C191  H55   1.110990 S    
C201  H95   1.111803 S    
O43   C125  1.285542 A    
C195  H71   1.108932 S    
O7    C3    1.284636 A    
O6    Cu3   1.994017 S    
C129  C133  1.426424 A    
C205  H110  1.104806 S    
C188  H44   1.096997 S    
C160  C164  1.377338 A    
N37   H141  1.030613 S    
C192  H59   1.111082 S    
C197  H79   1.107772 S    
N51   C227  1.452131 S    
N52   C228  1.452369 S    
C75   C83   1.470305 A    
C200  H90   1.108703 S    
C82   C86   1.453569 A    
C17   N69   1.463637 S    
O27   Cu8   1.939789 S    
C77   C93   1.450042 A    
C135  C137  1.385706 A    
C5    C53   1.430571 S    
N53   H205  1.029163 S    
N43   C219  1.450639 S    
C185  H30   1.110037 S    
C79   C95   1.450060 A    
N80   O95   1.302802 A    
O47   C128  1.280749 A    
O25   C115  1.305920 A    
C42   N74   1.501272 S    
C90   C110  1.420559 A    
O2    C2    1.328963 A    
C144  C148  1.412506 A    
C85   C97   1.463552 A    
C162  N49   1.427515 S    
C238  H242  1.109600 S    
C222  H178  1.106352 S    
C134  N41   1.435279 S    
C243  H262  1.110962 S    
C239  H247  1.109364 S    
C235  H231  1.110230 S    
C88   C100  1.463719 A    
O14   Cu3   1.942145 S    
C9    C29   1.566323 S    
N54   H209  1.029137 S    
C148  C150  1.415347 A    
C102  C106  1.394220 A    
C17   C33   1.581943 S    
C215  H151  1.110946 S    
C206  H116  1.111598 S    
C235  H230  1.110161 S    
C19   C35   1.582634 S    
C223  H182  1.106371 S    
C159  C163  1.377544 A    
C20   C36   1.582648 S    
C229  H208  1.110891 S    
N78   O91   1.302867 A    
N54   C230  1.446725 S    
N63   C235  1.455738 S    
C219  H167  1.109482 S    
C211  H134  1.106391 S    
C216  H155  1.110992 S    
C240  H250  1.109716 S    
C203  H103  1.111799 S    
N16   H73   1.028867 S    
N31   H133  1.030041 S    
C122  C182  1.472863 S    
N9    C189  1.447687 S    
C9    C25   1.594812 S    
O46   C127  1.280268 A    
C10   C30   1.567507 S    
C168  N56   1.429577 S    
O31   C120  1.301509 A    
C210  H132  1.112661 S    
C70   C74   1.465785 A    
C128  C154  1.464264 S    
N33   O57   1.301618 A    
C222  H180  1.111300 S    
C65   C69   1.410477 A    
N84   C244  1.457224 S    
O44   C126  1.285259 A    
N30   H129  1.030045 S    
C88   C92   1.407475 A    
N75   O85   1.301160 A    
O22   C116  1.306622 A    
O12   C8    1.302659 A    
C189  H48   1.106243 S    
C91   C111  1.420620 A    
C194  H66   1.104297 S    
C92   C112  1.420479 A    
N61   C233  1.455485 S    
C238  H243  1.109300 S    
N15   H69   1.028639 S    
N47   H181  1.029420 S    
C174  C181  1.461099 A    
C17   H5    1.090604 S    
N45   H173  1.028772 S    
N70   H241  1.030163 S    
C58   C78   1.462956 A    
N1    O49   1.301404 A    
