data_mof_unit_33729.cif
_audit_creation_date              2012-12-10T17:55:04-0500
_audit_creation_method            fapswitch 2.2
_symmetry_space_group_name_H-M    P1
_symmetry_Int_Tables_number       1
_space_group_crystal_system       triclinic
_cell_length_a                    8.801272
_cell_length_b                    10.791085
_cell_length_c                    9.535861
_cell_angle_alpha                 90.160306
_cell_angle_beta                  97.895186
_cell_angle_gamma                 90.381624
_cell_volume                      897.059964408

loop_
_atom_site_label
_atom_site_type_symbol
_atom_type_description
_atom_site_fract_x
_atom_site_fract_y
_atom_site_fract_z
_atom_type_partial_charge
C1    C     C_R   0.496047 0.262377 0.499445 0.787753
C2    C     C_R   0.503951 0.737623 0.500555 0.787758
C3    C     C_R   0.204237 0.502741 0.464132 0.792134
C4    C     C_R   0.795763 0.497259 0.535868 0.792134
C5    C     C_2   0.039047 0.516435 0.446331 0.187190
C6    C     C_2   0.960953 0.483565 0.553669 0.187189
C7    C     C_R   0.393421 0.060106 0.398700 0.431354
C8    C     C_R   0.606573 0.939893 0.601304 0.431348
C9    C     C_R   0.404042 0.931999 0.398653 -0.202811
C10   C     C_R   0.595954 0.068001 0.601350 -0.202817
C11   C     C_R   0.507136 0.871511 0.500163 -0.214098
C12   C     C_R   0.492862 0.128489 0.499837 -0.214097
C13   C     C_R   0.399629 0.425980 0.061723 0.531861
C14   C     C_R   0.600371 0.574020 0.938277 0.531863
C15   C     C_R   0.400461 0.426426 0.912255 -0.180242
C16   C     C_R   0.599539 0.573574 0.087744 -0.180242
Cu1   Cu    Cu3+1 0.500000 0.500020 0.640660 1.024442
Cu2   Cu    Cu3+1 0.500000 0.499980 0.359340 1.024439
H1    H     H_    0.326797 0.879013 0.322246 0.182186
H2    H     H_    0.673195 0.120986 0.677759 0.182188
H3    H     H_    0.321638 0.367604 0.844500 0.182979
H4    H     H_    0.678362 0.632396 0.155500 0.182979
N1    N     N_R   0.500040 0.500030 0.852080 -0.189227
N2    N     N_R   0.499960 0.499970 0.147920 -0.189225
O1    O     O_R   0.499990 0.319660 0.618740 -0.589577
O2    O     O_R   0.500010 0.680340 0.381260 -0.589579
O3    O     O_R   0.499990 0.319630 0.381170 -0.527456
O4    O     O_R   0.500010 0.680370 0.618830 -0.527447
O5    O     O_R   0.274840 0.500010 0.591370 -0.534660
O6    O     O_R   0.725160 0.499990 0.408630 -0.534659
O7    O     O_R   0.274830 0.499980 0.353800 -0.562104
O8    O     O_R   0.725170 0.500020 0.646200 -0.562103
O9    O     O_3   0.964194 0.569317 0.323534 -0.747895
H5    H     H_    0.040111 0.596683 0.262221 0.338540
O10   O     O_3   0.035806 0.430683 0.676466 -0.747894
H6    H     H_    0.959889 0.403316 0.737778 0.338540
O11   O     O_3   0.281877 0.113446 0.302084 -0.693480
H7    H     H_    0.257307 0.196435 0.336807 0.345597
O12   O     O_3   0.718105 0.886552 0.697929 -0.693470
H8    H     H_    0.742698 0.803572 0.663193 0.345589
O13   O     O_3   0.298835 0.351619 0.122199 -0.679342
H9    H     H_    0.234411 0.304432 0.046519 0.316848
O14   O     O_3   0.701165 0.648381 0.877801 -0.679333
H10   H     H_    0.765591 0.695567 0.953481 0.316849

loop_
_geom_bond_atom_site_label_1
_geom_bond_atom_site_label_2
_ccdc_geom_bond_type
C14   N1    A    
C3    O7    A    
O14   H10   S    
O11   H7    S    
Cu2   O6    S    
C8    O12   S    
Cu1   O5    S    
O13   H9    S    
O10   H6    S    
Cu2   O2    S    
Cu1   O1    S    
C13   O13   S    
O9    H5    S    
C7    O11   S    
C16   N2    A    
Cu1   N1    S    
C1    O1    A    
C9    C11   A    
C1    O3    A    
C4    O8    A    
C1    C12   S    
C10   C12   A    
C8    C11   A    
Cu2   N2    S    
C2    C11   S    
C15   N1    A    
Cu1   Cu2   S    
C13   C15   A    
C5    C6    D    
C14   C16   A    
C7    C12   A    
C4    C6    S    
C2    O4    A    
C7    C9    A    
C15   H3    S    
C6    O10   S    
C2    O2    A    
O12   H8    S    
C3    O5    A    
Cu1   O8    S    
C16   H4    S    
Cu2   O7    S    
Cu1   O4    S    
C9    H1    S    
C8    C10   A    
C4    O6    A    
Cu2   O3    S    
C13   N2    A    
C10   H2    S    
C14   O14   S    
C3    C5    S    
C5    O9    S    
