data_mof_unit_66584.cif
_audit_creation_date              2012-12-10T18:48:43-0500
_audit_creation_method            fapswitch 2.2
_symmetry_space_group_name_H-M    P1
_symmetry_Int_Tables_number       1
_space_group_crystal_system       triclinic
_cell_length_a                    15.440317
_cell_length_b                    15.517363
_cell_length_c                    9.990372
_cell_angle_alpha                 89.803377
_cell_angle_beta                  90.57326
_cell_angle_gamma                 89.858896
_cell_volume                      2393.48187266

loop_
_atom_site_label
_atom_site_type_symbol
_atom_type_description
_atom_site_fract_x
_atom_site_fract_y
_atom_site_fract_z
_atom_type_partial_charge
C1    C     C_R   0.120623 0.380382 0.500279 0.919799
C2    C     C_R   0.960159 0.436227 0.928509 -0.109782
C3    C     C_R   0.962541 0.434664 0.071118 -0.128081
C4    C     C_R   0.038016 0.564915 0.928925 -0.103064
C5    C     C_R   0.425573 0.013954 0.070303 -0.097282
C6    C     C_R   0.574404 0.987769 0.930088 -0.084074
C7    C     C_R   0.574390 0.986412 0.072666 -0.100742
C8    C     C_R   0.425503 0.013618 0.927476 -0.085557
C9    C     C_R   0.759308 0.303384 0.391437 0.347519
C10   C     C_R   0.192973 0.742209 0.614711 0.355491
C11   C     C_R   0.231301 0.705605 0.386313 0.343433
C12   C     C_R   0.882135 0.621766 0.499971 0.895538
C13   C     C_R   0.804346 0.259428 0.614705 0.332231
C14   C     C_R   0.215611 0.274070 0.620048 0.349167
C15   C     C_R   0.795723 0.732920 0.380768 0.336223
C16   C     C_R   0.786317 0.722595 0.622758 0.347000
C17   C     C_R   0.228548 0.290245 0.379282 0.407801
C18   C     C_R   0.281923 0.778808 0.380624 0.343663
C19   C     C_R   0.731868 0.206379 0.620348 0.314577
C20   C     C_R   0.708027 0.230613 0.382249 0.390256
C21   C     C_R   0.265161 0.795351 0.621137 0.359227
C22   C     C_R   0.729313 0.791501 0.621583 0.324555
C23   C     C_R   0.880907 0.379403 0.500406 0.955803
C24   C     C_R   0.302474 0.239968 0.386343 0.360933
C25   C     C_R   0.263648 0.198994 0.611967 0.385945
C26   C     C_R   0.722493 0.785436 0.378770 0.336369
C27   C     C_R   0.181385 0.690212 0.500575 -0.448180
C28   C     C_R   0.814492 0.313197 0.502338 -0.415838
C29   C     C_R   0.820597 0.692760 0.501189 -0.433363
C30   C     C_R   0.188466 0.314581 0.499902 -0.464137
C31   C     C_R   0.687856 0.185313 0.500371 -0.436635
C32   C     C_R   0.307243 0.819006 0.500608 -0.443934
C33   C     C_R   0.316067 0.187743 0.499290 -0.465049
C34   C     C_R   0.118790 0.620701 0.500272 0.916887
C35   C     C_R   0.691047 0.818179 0.500270 -0.415973
C36   C     C_3   0.704854 0.433431 0.332566 0.154242
C37   C     C_3   0.686745 0.493852 0.215342 -0.394156
C38   C     C_3   0.768743 0.512953 0.136843 -0.682099
C39   C     C_3   0.055230 0.767457 0.691746 0.140126
C40   C     C_3   0.024796 0.831596 0.795849 -0.349205
C41   C     C_3   0.013005 0.790204 0.932361 -0.852421
C42   C     C_3   0.293813 0.582565 0.315923 0.151854
C43   C     C_3   0.313516 0.526865 0.194670 -0.387057
C44   C     C_3   0.231193 0.496908 0.124000 -0.653791
C45   C     C_R   0.620956 0.881014 0.500288 0.956272
C46   C     C_3   0.901169 0.187733 0.749089 0.125881
C47   C     C_3   0.957393 0.197074 0.874260 -0.474780
C48   C     C_3   0.040681 0.243971 0.843675 -0.745962
C49   C     C_3   0.240538 0.379615 0.773620 0.159201
C50   C     C_3   0.324576 0.358226 0.848093 -0.367090
C51   C     C_3   0.376494 0.440501 0.866485 -1.041286
C52   C     C_3   0.922375 0.771443 0.280033 0.159519
C53   C     C_3   0.907822 0.868726 0.298908 -0.392009
C54   C     C_3   0.992246 0.918434 0.289517 -1.039338
C55   C     C_3   0.764886 0.613364 0.770476 0.184216
C56   C     C_R   0.381907 0.121233 0.499487 0.921690
C57   C     C_3   0.680045 0.633965 0.839195 -0.382270
C58   C     C_3   0.630406 0.551337 0.865224 -1.053238
C59   C     C_3   0.129219 0.269610 0.211903 0.155802
C60   C     C_3   0.155099 0.180394 0.157823 -0.363210
C61   C     C_3   0.138339 0.109350 0.260268 -0.970380
C62   C     C_3   0.247786 0.867982 0.208661 0.086604
C63   C     C_3   0.249161 0.867791 0.056586 -0.274334
C64   C     C_3   0.195832 0.941282 0.997493 -0.992005
C65   C     C_3   0.631473 0.220148 0.784635 0.163804
C66   C     C_3   0.653418 0.300018 0.866107 -0.381484
C67   C     C_R   0.377707 0.882122 0.499973 0.924217
C68   C     C_3   0.571388 0.353357 0.881642 -1.027584
C69   C     C_3   0.722663 0.147677 0.195924 0.151228
C70   C     C_3   0.805729 0.185097 0.135742 -0.383066
C71   C     C_3   0.886534 0.161054 0.217373 -0.954933
C72   C     C_3   0.369708 0.778622 0.781834 0.157912
C73   C     C_3   0.352440 0.695917 0.859953 -0.390510
C74   C     C_3   0.433905 0.640504 0.857583 -1.024253
C75   C     C_3   0.771255 0.898781 0.761286 0.132633
C76   C     C_3   0.800142 0.899012 0.907926 -0.301118
C77   C     C_3   0.851946 0.979879 0.938741 -1.061713
C78   C     C_R   0.620521 0.119484 0.500070 0.921544
C79   C     C_3   0.430580 0.288512 0.311571 0.132177
C80   C     C_3   0.486102 0.298427 0.188029 -0.370929
C81   C     C_3   0.499687 0.211679 0.120178 -0.623049
C82   C     C_3   0.222709 0.061339 0.664235 0.138319
C83   C     C_3   0.123816 0.062291 0.671992 -0.405571
C84   C     C_3   0.085175 0.992811 0.582996 -1.045877
C85   C     C_3   0.643734 0.730813 0.207853 0.137244
C86   C     C_3   0.578194 0.752388 0.098175 -0.458073
C87   C     C_3   0.491910 0.781265 0.154099 -0.679315
C88   C     C_R   0.035786 0.566267 0.071528 -0.079058
H1    H     H_    0.065089 0.619629 0.124385 0.159824
H2    H     H_    0.641314 0.411878 0.372962 0.053113
H3    H     H_    0.470342 0.256462 0.391022 0.115989
H4    H     H_    0.412448 0.354055 0.347202 0.053983
H5    H     H_    0.453290 0.343120 0.117544 0.197457
H6    H     H_    0.549454 0.326769 0.216916 0.207527
H7    H     H_    0.509233 0.160589 0.195972 0.304234
H8    H     H_    0.558241 0.213106 0.058630 0.223923
H9    H     H_    0.442909 0.195796 0.055842 0.236457
H10   H     H_    0.248697 0.007054 0.723954 0.174431
H11   H     H_    0.241851 0.045708 0.560009 0.116558
H12   H     H_    0.103546 0.051500 0.777073 0.222618
H13   H     H_    0.637685 0.464745 0.147971 0.199796
H14   H     H_    0.098325 0.125280 0.636077 0.235226
H15   H     H_    0.093818 0.011246 0.477210 0.285419
H16   H     H_    0.014960 0.985516 0.603057 0.269489
H17   H     H_    0.119314 0.930792 0.599340 0.274779
H18   H     H_    0.609915 0.693417 0.287585 0.092826
H19   H     H_    0.694250 0.689501 0.163282 0.154403
H20   H     H_    0.604462 0.801607 0.028649 0.249712
H21   H     H_    0.565997 0.692613 0.042459 0.190948
H22   H     H_    0.462028 0.728474 0.213027 0.242258
H23   H     H_    0.447782 0.799249 0.070833 0.232991
H24   H     H_    0.659320 0.554264 0.255150 0.140556
H25   H     H_    0.501012 0.837931 0.218187 0.321385
H26   H     H_    0.823800 0.525586 0.205216 0.301930
H27   H     H_    0.759735 0.570463 0.073394 0.219820
H28   H     H_    0.784409 0.457403 0.071662 0.246114
H29   H     H_    0.008979 0.713141 0.691547 0.199704
H30   H     H_    0.049619 0.798760 0.591157 0.045388
H31   H     H_    0.071171 0.885112 0.804753 0.240735
H32   H     H_    0.962393 0.858948 0.761679 0.181616
H33   H     H_    0.926516 0.385817 0.875717 0.201316
H34   H     H_    0.964050 0.737996 0.926903 0.269009
H35   H     H_    0.989631 0.840215 0.001685 0.244516
H36   H     H_    0.075256 0.764123 0.971484 0.274626
H37   H     H_    0.266547 0.540447 0.395518 0.109541
H38   H     H_    0.356709 0.609359 0.352807 0.064882
H39   H     H_    0.353498 0.564177 0.123775 0.205641
H40   H     H_    0.351685 0.469917 0.227851 0.172852
H41   H     H_    0.179080 0.484260 0.196801 0.303100
H42   H     H_    0.243629 0.436406 0.069687 0.244698
H43   H     H_    0.209746 0.546848 0.051144 0.227788
H44   H     H_    0.932439 0.381709 0.123571 0.156750
H45   H     H_    0.941656 0.169192 0.661940 0.118529
H46   H     H_    0.855245 0.134510 0.767779 0.156836
H47   H     H_    0.921767 0.235431 0.948958 0.242714
H48   H     H_    0.972414 0.132775 0.918181 0.201017
H49   H     H_    0.034772 0.281383 0.749278 0.315696
H50   H     H_    0.094397 0.197150 0.837189 0.274450
H51   H     H_    0.057106 0.289599 0.924168 0.234731
H52   H     H_    0.199416 0.420236 0.838846 0.164546
H53   H     H_    0.254861 0.419848 0.683531 0.116509
H54   H     H_    0.309822 0.328821 0.946806 0.249431
H55   H     H_    0.070304 0.616196 0.876517 0.184683
H56   H     H_    0.363447 0.311218 0.790161 0.226450
H57   H     H_    0.412187 0.454723 0.773154 0.271898
H58   H     H_    0.422784 0.434470 0.950827 0.280142
H59   H     H_    0.332898 0.495389 0.888640 0.287592
H60   H     H_    0.960799 0.760340 0.188987 0.163546
H61   H     H_    0.962731 0.746169 0.364268 0.115917
H62   H     H_    0.860740 0.892753 0.223056 0.249984
H63   H     H_    0.880503 0.880786 0.399684 0.196798
H64   H     H_    0.042609 0.888205 0.354493 0.270238
H65   H     H_    0.981069 0.985441 0.322908 0.276956
H66   H     H_    0.366019 0.026489 0.122652 0.152671
H67   H     H_    0.015331 0.920299 0.185266 0.270513
H68   H     H_    0.805205 0.572251 0.837912 0.165210
H69   H     H_    0.751558 0.574097 0.678971 0.108891
H70   H     H_    0.695067 0.667758 0.933680 0.232989
H71   H     H_    0.639339 0.677034 0.775760 0.240953
H72   H     H_    0.593342 0.533721 0.773657 0.278131
H73   H     H_    0.585320 0.559510 0.949544 0.278172
H74   H     H_    0.675489 0.498075 0.891412 0.290156
H75   H     H_    0.097794 0.306778 0.130518 0.123808
H76   H     H_    0.078413 0.263484 0.289814 0.139383
H77   H     H_    0.634177 0.979920 0.878316 0.155261
H78   H     H_    0.115189 0.165563 0.068127 0.201425
H79   H     H_    0.224039 0.179563 0.127086 0.272437
H80   H     H_    0.179432 0.117482 0.350528 0.265633
H81   H     H_    0.152512 0.045508 0.216886 0.266910
H82   H     H_    0.069358 0.110369 0.290162 0.261402
H83   H     H_    0.265439 0.932955 0.246472 0.159299
H84   H     H_    0.179844 0.853644 0.239200 0.117740
H85   H     H_    0.316685 0.873890 0.021833 0.226733
H86   H     H_    0.222603 0.805682 0.019988 0.248969
H87   H     H_    0.128376 0.939371 0.034081 0.263475
H88   H     H_    0.634369 0.974835 0.126632 0.153218
H89   H     H_    0.194480 0.933815 0.888066 0.297069
H90   H     H_    0.225448 0.004473 0.021409 0.258750
H91   H     H_    0.593132 0.175448 0.847283 0.157331
H92   H     H_    0.587801 0.239213 0.699557 0.131740
H93   H     H_    0.679489 0.280830 0.965708 0.240962
H94   H     H_    0.702963 0.339625 0.814862 0.243859
H95   H     H_    0.559012 0.390588 0.788511 0.274532
H96   H     H_    0.577603 0.396825 0.968430 0.282095
H97   H     H_    0.514146 0.311812 0.897305 0.282906
H98   H     H_    0.683298 0.122233 0.111689 0.117311
H99   H     H_    0.365575 0.024856 0.873784 0.171741
H100  H     H_    0.736737 0.091159 0.262018 0.144796
H101  H     H_    0.812706 0.159168 0.033685 0.197401
H102  H     H_    0.801266 0.255968 0.124122 0.269136
H103  H     H_    0.880086 0.179905 0.323674 0.259182
H104  H     H_    0.943930 0.194198 0.175993 0.253146
H105  H     H_    0.897426 0.090572 0.212334 0.263370
H106  H     H_    0.409668 0.822032 0.845108 0.156836
H107  H     H_    0.411070 0.762420 0.694196 0.139907
H108  H     H_    0.335941 0.711287 0.965003 0.236995
H109  H     H_    0.297823 0.659373 0.814699 0.246648
H110  H     H_    0.739552 0.470471 0.411791 0.103609
H111  H     H_    0.435078 0.602148 0.764147 0.272111
H112  H     H_    0.437113 0.597979 0.946394 0.278548
H113  H     H_    0.492512 0.681302 0.857558 0.278829
H114  H     H_    0.739730 0.960915 0.734315 0.160090
H115  H     H_    0.830106 0.894841 0.697593 0.084499
H116  H     H_    0.743183 0.896316 0.974654 0.225409
H117  H     H_    0.839727 0.840828 0.929019 0.258097
H118  H     H_    0.908212 0.985749 0.871057 0.265406
H119  H     H_    0.876085 0.978737 0.043213 0.282698
H120  H     H_    0.808908 0.036312 0.925164 0.273004
N1    N     N_R   0.000000 0.500000 0.857200 -0.088514
N2    N     N_R   1.000000 0.500000 0.142800 -0.091286
N3    N     N_R   0.500000 0.000000 0.857200 -0.099387
N4    N     N_R   0.500000 0.000000 0.142800 -0.109113
O1    O     O_R   0.091610 0.408380 0.614620 -0.609265
O2    O     O_R   0.408390 0.091620 0.385380 -0.600464
O3    O     O_R   0.408390 0.091620 0.614620 -0.607594
O4    O     O_R   0.591610 0.908380 0.385380 -0.593497
O5    O     O_R   0.408390 0.908380 0.385380 -0.602955
O6    O     O_R   0.591610 0.091620 0.614620 -0.615332
O7    O     O_R   0.591610 0.091620 0.385380 -0.619711
O8    O     O_R   0.408390 0.908380 0.614620 -0.620993
O9    O     O_3   0.755647 0.363150 0.289290 -0.582091
O10   O     O_3   0.139669 0.737073 0.725274 -0.591346
O11   O     O_3   0.234202 0.648635 0.280638 -0.569539
O12   O     O_R   0.908390 0.591620 0.385380 -0.603830
O13   O     O_3   0.858230 0.267053 0.725131 -0.600208
O14   O     O_3   0.193688 0.303888 0.744847 -0.620911
O15   O     O_3   0.843461 0.725432 0.264764 -0.612480
O16   O     O_3   0.812140 0.689517 0.745338 -0.606999
O17   O     O_3   0.201404 0.318951 0.254932 -0.607238
O18   O     O_3   0.308886 0.806952 0.257009 -0.603584
O19   O     O_3   0.706632 0.175422 0.744041 -0.636548
O20   O     O_3   0.671533 0.211074 0.259636 -0.615304
O21   O     O_3   0.292534 0.823146 0.745948 -0.616084
O22   O     O_3   0.711166 0.831226 0.741389 -0.608671
O23   O     O_R   0.908390 0.591620 0.614620 -0.616193
O24   O     O_3   0.356922 0.238698 0.278514 -0.569495
O25   O     O_3   0.259177 0.138964 0.714744 -0.610937
O26   O     O_3   0.683189 0.806276 0.257823 -0.580667
O27   O     O_R   0.091610 0.408380 0.385380 -0.613661
O28   O     O_R   0.908390 0.408380 0.385380 -0.605828
O29   O     O_R   0.091610 0.591620 0.614620 -0.623608
O30   O     O_R   0.091610 0.591620 0.385380 -0.601572
O31   O     O_R   0.908390 0.408380 0.614620 -0.598967
O32   O     O_R   0.591610 0.908380 0.614620 -0.598252
Zn1   Zn    Zn3+2 0.000000 0.500000 0.653120 0.940402
Zn2   Zn    Zn3+2 1.000000 0.500000 0.346880 0.941131
Zn3   Zn    Zn3+2 0.500000 0.000000 0.653120 0.942518
Zn4   Zn    Zn3+2 0.500000 0.000000 0.346880 0.938038

loop_
_geom_bond_atom_site_label_1
_geom_bond_atom_site_label_2
_ccdc_geom_bond_type
C10   C27   A    
C55   O16   S    
C12   O23   A    
C66   C68   S    
C57   H70   S    
C68   H95   S    
O3    Zn3   S    
C20   O20   S    
C83   H14   S    
C47   H48   S    
C34   O30   A    
C62   H83   S    
C82   H11   S    
C73   H108  S    
C61   H81   S    
C50   H54   S    
C37   H13   S    
O5    Zn4   S    
N4    Zn4   S    
C19   C31   A    
C72   H107  S    
C7    N4    A    
C11   C18   A    
C87   H22   S    
C53   C54   S    
C1    O27   A    
C44   H43   S    
C22   C35   A    
C59   O17   S    
O30   Zn2   S    
C48   H49   S    
C31   C78   S    
O27   Zn2   S    
O29   Zn1   S    
C41   H36   S    
C67   O8    A    
C36   H110  S    
C79   O24   S    
C14   O14   S    
C77   H119  S    
C13   O13   S    
C38   H26   S    
C71   H105  S    
C87   H23   S    
C51   H57   S    
C44   H42   S    
C5    H66   S    
C82   O25   S    
C45   O4    A    
C64   H90   S    
C72   O21   S    
C75   O22   S    
C16   O16   S    
C85   O26   S    
C73   C74   S    
N3    Zn3   S    
C12   O12   A    
C37   H24   S    
C59   H76   S    
C52   O15   S    
C42   H37   S    
C22   O22   S    
C19   O19   S    
C21   O21   S    
C47   C48   S    
C52   H61   S    
C62   O18   S    
C49   H53   S    
C25   O25   S    
C36   C37   S    
C39   O10   S    
C63   H85   S    
C70   C71   S    
C51   H59   S    
C71   H104  S    
C8    N3    A    
C56   O2    A    
C3    N2    A    
C66   H94   S    
C6    H77   S    
C59   C60   S    
C8    H99   S    
C88   N2    A    
C34   O29   A    
O28   Zn2   S    
C17   C30   A    
C82   H10   S    
C27   C34   S    
C54   H65   S    
C4    H55   S    
C75   H114  S    
C50   H56   S    
C15   C29   A    
C10   C21   A    
C55   H68   S    
C21   C32   A    
C17   C24   A    
C65   O19   S    
C3    H44   S    
C60   H79   S    
C67   O5    A    
C86   H21   S    
C76   C77   S    
C18   O18   S    
C77   H120  S    
C11   O11   S    
C39   C40   S    
C49   O14   S    
C81   H8    S    
C13   C19   A    
C86   C87   S    
C72   C73   S    
C15   C26   A    
C54   H64   S    
C6    N3    A    
C65   H91   S    
C51   H58   S    
O31   Zn1   S    
C16   C29   A    
C85   C86   S    
C82   C83   S    
C60   H78   S    
C4    N1    A    
C63   C64   S    
C73   H109  S    
C60   C61   S    
C41   H34   S    
C75   C76   S    
C37   C38   S    
C24   O24   S    
C78   O7    A    
C46   H46   S    
C38   H28   S    
C26   O26   S    
C9    C20   A    
C83   C84   S    
C69   H100  S    
C11   C27   A    
C7    H88   S    
C62   C63   S    
C50   C51   S    
C13   C28   A    
C43   H39   S    
C23   C28   S    
C74   H111  S    
C64   H87   S    
O1    Zn1   S    
C45   O32   A    
C79   H4    S    
C74   H113  S    
C56   O3    A    
C32   C67   S    
O12   Zn2   S    
C40   C41   S    
C40   H32   S    
C66   H93   S    
C74   H112  S    
C68   H97   S    
C65   C66   S    
C83   H12   S    
C55   C57   S    
C43   C44   S    
C1    O1    A    
C53   H62   S    
C84   H16   S    
C69   O20   S    
C84   H17   S    
C42   C43   S    
N2    Zn2   S    
C42   H38   S    
C23   O31   A    
C85   H18   S    
C35   C45   S    
N1    Zn1   S    
C54   H67   S    
C76   H117  S    
C70   H102  S    
C63   H86   S    
C2    H33   S    
C36   H2    S    
C5    N4    A    
C46   C47   S    
C68   H96   S    
C2    N1    A    
C16   C22   A    
C48   H51   S    
C47   H47   S    
C79   H3    S    
O8    Zn3   S    
C86   H20   S    
C80   C81   S    
C12   C29   S    
C17   O17   S    
C43   H40   S    
C5    C8    A    
O2    Zn4   S    
C76   H116  S    
C6    C7    A    
C4    C88   A    
C65   H92   S    
C38   H27   S    
O4    Zn4   S    
C39   H30   S    
C62   H84   S    
C24   C33   A    
C75   H115  S    
C48   H50   S    
C25   C33   A    
C61   H80   S    
O6    Zn3   S    
C41   H35   S    
C52   C53   S    
C2    C3    A    
C44   H41   S    
C14   C30   A    
O32   Zn3   S    
C39   H29   S    
C77   H118  S    
C78   O6    A    
C46   H45   S    
C72   H106  S    
C64   H89   S    
C57   C58   S    
C81   H9    S    
C33   C56   S    
C81   H7    S    
C36   O9    S    
C1    C30   S    
C46   O13   S    
C14   C25   A    
C57   H71   S    
C69   C70   S    
C87   H25   S    
C59   H75   S    
C10   O10   S    
C79   C80   S    
C9    O9    S    
C26   C35   A    
C55   H69   S    
C40   H31   S    
C18   C32   A    
C88   H1    S    
C9    C28   A    
C52   H60   S    
C49   C50   S    
C49   H52   S    
C15   O15   S    
C53   H63   S    
C84   H15   S    
O7    Zn4   S    
C58   H72   S    
C61   H82   S    
C71   H103  S    
C80   H5    S    
C85   H19   S    
C58   H73   S    
C80   H6    S    
C69   H98   S    
O23   Zn1   S    
C42   O11   S    
C70   H101  S    
C23   O28   A    
C20   C31   A    
C58   H74   S    
