data_mof_unit_48412.cif
_audit_creation_date              2012-10-26T19:44:25-0400
_audit_creation_method            fapswitch 2.2
_symmetry_space_group_name_H-M    P1
_symmetry_Int_Tables_number       1
_space_group_crystal_system       triclinic
_cell_length_a                    10.957933
_cell_length_b                    11.719635
_cell_length_c                    10.443336
_cell_angle_alpha                 89.675869
_cell_angle_beta                  90.341435
_cell_angle_gamma                 88.982866
_cell_volume                      1340.90686936

loop_
_atom_site_label
_atom_site_type_symbol
_atom_type_description
_atom_site_fract_x
_atom_site_fract_y
_atom_site_fract_z
_atom_type_partial_charge
C1    C     C_R   0.499855 0.283289 0.500296 0.531059
C2    C     C_R   0.503707 0.716626 0.500020 0.500597
C3    C     C_1   0.499577 0.161953 0.500818 -0.044280
C4    C     C_3   0.071152 0.440814 0.619640 -0.006462
C5    C     C_3   0.073140 0.441049 0.378883 -0.000269
C6    C     C_3   0.929324 0.448985 0.628432 -0.009936
C7    C     C_3   0.932191 0.425726 0.388875 -0.005266
C8    C     C_1   0.499548 0.059731 0.500749 -0.060556
C9    C     C_3   0.064668 0.640353 0.494529 0.311408
C10   C     C_3   0.916266 0.634238 0.485985 0.304253
C11   C     C_3   0.192044 0.362628 0.803814 -0.279784
C12   C     C_3   0.120302 0.510914 0.497980 0.044894
C13   C     C_3   0.155000 0.407075 0.159873 -0.301193
C14   C     C_3   0.849755 0.430983 0.851184 -0.294195
C15   C     C_3   0.818174 0.328593 0.214851 -0.289724
C16   C     C_3   0.187175 0.788479 0.626785 -0.301455
C17   C     C_3   0.226974 0.724086 0.340882 -0.273121
C18   C     C_3   0.880706 0.824822 0.604241 -0.307714
C19   C     C_3   0.790362 0.771507 0.338584 -0.270444
C20   C     C_3   0.877208 0.503785 0.500536 0.033018
C21   C     C_1   0.501262 0.838105 0.500064 -0.067499
C22   C     C_1   0.500059 0.940310 0.500364 -0.064346
C23   C     C_R   0.258720 0.505338 0.499615 0.582338
C24   C     C_R   0.740563 0.495922 0.500179 0.582296
C25   C     C_1   0.500037 0.499982 0.071993 0.068690
C26   C     C_1   0.500056 0.499992 0.928014 0.069850
Cu1   Cu    Cu3+1 0.500000 0.500000 0.625300 0.961315
Cu2   Cu    Cu3+1 0.500000 0.500000 0.374700 0.957048
H1    H     H_    0.090075 0.349422 0.596079 0.080973
H2    H     H_    0.200357 0.454929 0.082259 0.130630
H3    H     H_    0.076403 0.361171 0.118921 0.129150
H4    H     H_    0.222632 0.345007 0.200711 0.163412
H5    H     H_    0.912987 0.582372 0.770862 0.256630
H6    H     H_    0.801372 0.482707 0.924489 0.136227
H7    H     H_    0.932527 0.391959 0.895828 0.128427
H8    H     H_    0.787337 0.363053 0.819066 0.158747
H9    H     H_    0.894267 0.489307 0.195930 0.253250
H10   H     H_    0.763198 0.347831 0.127451 0.132813
H11   H     H_    0.757564 0.288208 0.286270 0.162811
H12   H     H_    0.114778 0.353700 0.388394 0.102987
H13   H     H_    0.893441 0.268212 0.190036 0.112543
H14   H     H_    0.063863 0.671250 0.699050 0.250085
H15   H     H_    0.170329 0.834345 0.717953 0.115228
H16   H     H_    0.176590 0.852563 0.548953 0.142810
H17   H     H_    0.281153 0.752945 0.631832 0.177718
H18   H     H_    0.055065 0.786377 0.373853 0.248835
H19   H     H_    0.239333 0.811522 0.301702 0.098607
H20   H     H_    0.249316 0.664049 0.262806 0.196822
H21   H     H_    0.289454 0.713502 0.421061 0.185358
H22   H     H_    0.770216 0.684522 0.612988 0.277634
H23   H     H_    0.896444 0.359312 0.630416 0.103441
H24   H     H_    0.912089 0.839979 0.703808 0.143131
H25   H     H_    0.795060 0.875396 0.589151 0.121035
H26   H     H_    0.949793 0.857037 0.537285 0.162924
H27   H     H_    0.918402 0.652741 0.279612 0.242015
H28   H     H_    0.844356 0.850626 0.339516 0.109438
H29   H     H_    0.717813 0.775559 0.410463 0.176623
H30   H     H_    0.745359 0.765111 0.243396 0.139898
H31   H     H_    0.921353 0.336127 0.423321 0.077485
H32   H     H_    0.100762 0.520037 0.805216 0.249872
H33   H     H_    0.253732 0.391645 0.880978 0.135978
H34   H     H_    0.248640 0.313444 0.734728 0.166173
H35   H     H_    0.122112 0.306093 0.845080 0.107164
H36   H     H_    0.074193 0.559917 0.220045 0.254627
N1    N     N_1   0.500000 0.499990 0.186410 -0.195518
N2    N     N_2   0.868904 0.672452 0.359264 -0.483890
N3    N     N_1   0.500000 0.499990 0.813590 -0.191944
N4    N     N_2   0.134117 0.460812 0.741819 -0.469437
N5    N     N_2   0.114100 0.486921 0.256325 -0.484211
N6    N     N_2   0.882593 0.503689 0.744623 -0.481113
N7    N     N_2   0.867315 0.433196 0.265535 -0.466061
N8    N     N_2   0.101025 0.696644 0.614505 -0.488731
N9    N     N_2   0.102984 0.710363 0.383528 -0.534857
N10   N     N_2   0.858063 0.703671 0.587981 -0.506671
O1    O     O_R   0.500000 0.337200 0.605810 -0.502720
O2    O     O_R   0.500000 0.337200 0.394190 -0.501149
O3    O     O_R   0.317690 0.499990 0.605810 -0.463022
O4    O     O_R   0.317690 0.499990 0.394190 -0.490473
O5    O     O_R   0.682310 0.499990 0.605810 -0.488953
O6    O     O_R   0.682310 0.499990 0.394190 -0.444909
O7    O     O_R   0.500000 0.662810 0.605810 -0.500283
O8    O     O_R   0.500000 0.662810 0.394190 -0.508078

loop_
_geom_bond_atom_site_label_1
_geom_bond_atom_site_label_2
_ccdc_geom_bond_type
C19   H28   S    
C13   H4    S    
C16   N8    S    
C17   H20   S    
C11   H34   S    
C18   H24   S    
C19   H29   S    
C12   C23   S    
C26   N3    T    
C11   H35   S    
H22   N10   S    
C7    N7    S    
C19   N2    S    
C5    N5    S    
C18   H25   S    
C24   O6    A    
C20   C24   S    
C10   C20   S    
C8    C22   S    
C9    N8    S    
C6    H23   S    
C4    C12   S    
Cu2   O4    S    
C9    C10   S    
C16   H16   S    
C4    H1    S    
C18   N10   S    
C21   C22   T    
C17   N9    S    
C14   N6    S    
C9    N9    S    
Cu1   O1    S    
C7    H31   S    
C10   N2    S    
C19   H30   S    
Cu2   O8    S    
C1    O1    A    
C13   H2    S    
Cu1   O7    S    
C25   N1    T    
C15   H13   S    
C5    C12   S    
C4    C6    S    
C3    C8    T    
C17   H21   S    
C14   H7    S    
C5    C7    S    
Cu1   O3    S    
C25   C26   S    
C1    C3    S    
C15   H10   S    
C24   O5    A    
C2    C21   S    
H14   N8    S    
H36   N5    S    
C23   O3    A    
C16   H15   S    
C15   H11   S    
H5    N6    S    
H9    N7    S    
C2    O8    A    
Cu2   O2    S    
H27   N2    S    
C6    C20   S    
C11   N4    S    
C4    N4    S    
C6    N6    S    
C1    O2    A    
C13   H3    S    
C17   H19   S    
C11   H33   S    
C16   H17   S    
C14   H6    S    
C15   N7    S    
Cu1   O5    S    
Cu2   N1    S    
C14   H8    S    
C10   N10   S    
C13   N5    S    
C23   O4    A    
Cu2   O6    S    
C9    C12   S    
Cu1   N3    S    
C18   H26   S    
H32   N4    S    
C7    C20   S    
C5    H12   S    
Cu1   Cu2   S    
C2    O7    A    
H18   N9    S    
