data_mof_unit_42312.cif
_audit_creation_date              2012-10-26T21:01:05-0400
_audit_creation_method            fapswitch 2.2
_symmetry_space_group_name_H-M    P1
_symmetry_Int_Tables_number       1
_space_group_crystal_system       triclinic
_cell_length_a                    10.905236
_cell_length_b                    10.854287
_cell_length_c                    9.596249
_cell_angle_alpha                 90.305601
_cell_angle_beta                  89.667296
_cell_angle_gamma                 90.362772
_cell_volume                      1135.83633426

loop_
_atom_site_label
_atom_site_type_symbol
_atom_type_description
_atom_site_fract_x
_atom_site_fract_y
_atom_site_fract_z
_atom_type_partial_charge
C1    C     C_R   0.496428 0.262799 0.499359 0.558943
C2    C     C_R   0.406163 0.449039 0.075997 -0.006630
C3    C     C_R   0.404290 0.450255 0.927248 0.227710
C4    C     C_R   0.265417 0.501799 0.500203 0.545921
C5    C     C_R   0.604852 0.526732 0.925757 0.111014
C6    C     C_3   0.685103 0.637950 0.912089 0.028935
C7    C     C_3   0.669327 0.656304 0.069233 0.037318
C8    C     C_R   0.498651 0.737515 0.500459 0.542267
C9    C     C_R   0.734576 0.498020 0.499722 0.551046
C10   C     C_2   0.933686 0.501829 0.384408 -0.161632
C11   C     C_2   0.866712 0.489735 0.500927 -0.120368
C12   C     C_R   0.495103 0.129532 0.496554 0.032969
C13   C     C_2   0.067704 0.494678 0.385099 -0.167763
C14   C     C_2   0.133245 0.509628 0.501834 -0.123972
C15   C     C_R   0.549491 0.066384 0.605711 -0.013691
C16   C     C_3   0.186098 0.445358 0.883849 -0.305862
C17   C     C_3   0.887285 0.707086 0.832458 -0.329614
C18   C     C_3   0.469459 0.773235 0.057461 -0.301170
C19   C     C_3   0.262697 0.158059 0.297423 -0.294605
C20   C     C_R   0.446303 0.062212 0.382754 0.113356
C21   C     C_R   0.448665 0.933463 0.385943 -0.158448
C22   C     C_R   0.498260 0.871100 0.499895 -0.021403
C23   C     C_R   0.551872 0.939184 0.607592 -0.000505
C24   C     C_3   0.524134 0.937247 0.760356 -0.274391
C25   C     C_3   0.521803 0.076291 0.757542 -0.261552
C26   C     C_R   0.601254 0.535371 0.071895 0.153819
Cu1   Cu    Cu3+1 0.499990 0.499980 0.640670 0.949018
Cu2   Cu    Cu3+1 0.500010 0.500020 0.359330 0.939779
H1    H     H_    0.889662 0.514989 0.284386 0.143038
H2    H     H_    0.433155 0.895363 0.784046 0.135122
H3    H     H_    0.602073 0.903408 0.822612 0.145812
H4    H     H_    0.429441 0.114889 0.779556 0.135002
H5    H     H_    0.304617 0.297459 0.871992 0.219486
H6    H     H_    0.156564 0.430039 0.993384 0.100544
H7    H     H_    0.117430 0.401349 0.814304 0.136166
H8    H     H_    0.188453 0.545821 0.862094 0.153660
H9    H     H_    0.822036 0.526387 0.819575 0.268607
H10   H     H_    0.983752 0.675898 0.822976 0.130962
H11   H     H_    0.883450 0.783688 0.909619 0.157392
H12   H     H_    0.598246 0.119980 0.816366 0.146026
H13   H     H_    0.856326 0.740400 0.729231 0.148742
H14   H     H_    0.614209 0.804375 0.197776 0.271154
H15   H     H_    0.441924 0.871394 0.055732 0.116681
H16   H     H_    0.408139 0.723105 0.130487 0.174233
H17   H     H_    0.456529 0.735119 0.951359 0.144281
H18   H     H_    0.396549 0.075775 0.175785 0.236622
H19   H     H_    0.204661 0.075191 0.316287 0.127198
H20   H     H_    0.225994 0.208119 0.206249 0.122992
H21   H     H_    0.257813 0.220184 0.389611 0.162464
H22   H     H_    0.330925 0.407906 0.133208 0.126300
H23   H     H_    0.645896 0.708005 0.842323 0.167057
H24   H     H_    0.756808 0.654083 0.128278 0.134943
H25   H     H_    0.907975 0.469919 0.600468 0.089090
H26   H     H_    0.113077 0.478849 0.285551 0.136303
H27   H     H_    0.091111 0.531539 0.601186 0.092403
H28   H     H_    0.404414 0.882388 0.303418 0.123264
N1    N     N_R   0.500780 0.500930 0.147930 -0.254037
N2    N     N_R   0.500780 0.500890 0.852020 -0.237086
N3    N     N_2   0.305346 0.391538 0.857699 -0.455419
N4    N     N_2   0.810781 0.605594 0.877653 -0.550484
N5    N     N_2   0.596223 0.764966 0.102165 -0.531398
N6    N     N_2   0.388053 0.122127 0.269444 -0.493449
O1    O     O_R   0.500000 0.319640 0.618810 -0.498253
O2    O     O_R   0.500010 0.319680 0.381230 -0.464858
O3    O     O_R   0.321940 0.499980 0.618760 -0.462558
O4    O     O_R   0.321950 0.500020 0.381180 -0.519375
O5    O     O_R   0.499990 0.680320 0.618770 -0.511859
O6    O     O_R   0.500000 0.680360 0.381190 -0.507573
O7    O     O_R   0.678050 0.499980 0.618820 -0.509132
O8    O     O_R   0.678060 0.500020 0.381240 -0.500547

loop_
_geom_bond_atom_site_label_1
_geom_bond_atom_site_label_2
_ccdc_geom_bond_type
C21   H28   S    
C8    C22   S    
C23   C24   S    
C18   H17   S    
C18   N5    S    
C6    C7    S    
Cu1   O3    S    
C18   H16   S    
C6    H23   S    
C19   H21   S    
C16   N3    S    
Cu2   O4    S    
Cu1   O7    S    
C12   C15   A    
C14   H27   S    
C25   H12   S    
C12   C20   A    
C25   H4    S    
C15   C23   A    
C2    C3    A    
C2    N1    A    
H5    N3    S    
C19   N6    S    
Cu2   N1    S    
C20   C21   A    
C4    O4    A    
Cu2   O8    S    
C9    C11   S    
H14   N5    S    
C1    O1    A    
C5    C6    S    
C1    C12   S    
Cu1   O1    S    
C5    N2    A    
H18   N6    S    
Cu2   O2    S    
C24   C25   S    
Cu2   O6    S    
C9    O7    A    
C7    H24   S    
C8    O6    A    
C19   H19   S    
C17   H10   S    
C16   H6    S    
C16   H7    S    
C4    C14   S    
C4    O3    A    
C26   N1    A    
C17   H13   S    
C15   C25   S    
C24   H2    S    
Cu1   O5    S    
C10   C11   D    
C17   N4    S    
C5    C26   A    
H9    N4    S    
C3    N2    A    
C10   H1    S    
C9    O8    A    
C8    O5    A    
C13   H26   S    
C17   H11   S    
C6    N4    S    
C18   H15   S    
Cu1   Cu2   S    
C3    N3    S    
C22   C23   A    
C7    N5    S    
C2    H22   S    
C13   C14   D    
C24   H3    S    
C21   C22   A    
C7    C26   S    
C1    O2    A    
C10   C13   S    
C16   H8    S    
C19   H20   S    
C20   N6    S    
Cu1   N2    S    
C11   H25   S    
