data_mof_unit_37217.cif
_audit_creation_date              2012-12-10T17:10:29-0500
_audit_creation_method            fapswitch 2.2
_symmetry_space_group_name_H-M    P1
_symmetry_Int_Tables_number       1
_space_group_crystal_system       triclinic
_cell_length_a                    10.828356
_cell_length_b                    13.005724
_cell_length_c                    11.627152
_cell_angle_alpha                 99.83319
_cell_angle_beta                  94.27401
_cell_angle_gamma                 90.160387
_cell_volume                      1608.71551144

loop_
_atom_site_label
_atom_site_type_symbol
_atom_type_description
_atom_site_fract_x
_atom_site_fract_y
_atom_site_fract_z
_atom_type_partial_charge
C1    C     C_R   0.498171 0.298951 0.478624 0.810693
C2    C     C_R   0.501829 0.701049 0.521376 0.810688
C3    C     C_R   0.502798 0.814395 0.533777 -0.056268
C4    C     C_R   0.497201 0.185605 0.466223 -0.056268
C5    C     C_R   0.487486 0.015123 0.343520 -0.203675
C6    C     C_R   0.512512 0.984876 0.656480 -0.203675
C7    C     C_R   0.488311 0.123203 0.354679 -0.188939
C8    C     C_R   0.511687 0.876797 0.645321 -0.188940
C9    C     C_R   0.505230 0.139279 0.566661 -0.259225
C10   C     C_R   0.494768 0.860721 0.433339 -0.259225
C11   C     C_R   0.504468 0.031276 0.556226 0.172270
C12   C     C_R   0.495530 0.968724 0.443774 0.172270
C13   C     C_R   0.371469 0.413296 0.022048 -0.283769
C14   C     C_R   0.628531 0.586703 0.977952 -0.283797
C15   C     C_R   0.385275 0.420109 0.144303 0.076745
C16   C     C_R   0.614724 0.579891 0.855697 0.076748
C17   C     C_R   0.557244 0.535708 0.156953 0.056071
C18   C     C_R   0.442756 0.464291 0.843046 0.056084
C19   C     C_R   0.547168 0.530997 0.034107 0.085233
C20   C     C_R   0.452831 0.469003 0.965893 0.085249
C21   C     C_R   0.262444 0.513144 0.501161 0.808679
C22   C     C_R   0.737556 0.486859 0.498839 0.808682
C23   C     C_R   0.130797 0.574018 0.718020 -0.222074
C24   C     C_R   0.869207 0.425978 0.281980 -0.222064
C25   C     C_R   0.081944 0.561468 0.822322 0.621254
C26   C     C_R   0.918068 0.438515 0.177681 0.621274
C27   C     C_R   0.971547 0.506128 0.819187 -0.233836
C28   C     C_R   0.028461 0.493856 0.180811 -0.233831
C29   C     C_R   0.905143 0.471020 0.712288 -0.231433
C30   C     C_R   0.094858 0.528977 0.287708 -0.231440
C31   C     C_R   0.947897 0.491752 0.606039 0.079815
C32   C     C_R   0.052102 0.508253 0.393959 0.079815
C33   C     C_R   0.069673 0.530744 0.608282 -0.007820
C34   C     C_R   0.930327 0.469260 0.391716 -0.007826
C35   C     C_R   0.873560 0.473965 0.498388 -0.171492
C36   C     C_R   0.126440 0.526041 0.501611 -0.171493
Cu1   Cu    Cu3+1 0.509250 0.507730 0.615930 0.940653
Cu2   Cu    Cu3+1 0.490750 0.492270 0.384070 0.940654
H1    H     H_    0.064133 0.507999 0.100362 0.207172
H2    H     H_    0.935883 0.491972 0.899636 0.207166
H3    H     H_    0.297691 0.365047 0.972025 0.145819
H4    H     H_    0.702309 0.634953 0.027975 0.145816
H5    H     H_    0.215171 0.619963 0.724358 0.179139
H6    H     H_    0.784833 0.380032 0.275643 0.179138
H7    H     H_    0.822224 0.425051 0.713991 0.194043
H8    H     H_    0.177777 0.574947 0.286003 0.194046
H9    H     H_    0.487916 0.812968 0.346909 0.156867
H10   H     H_    0.512083 0.187032 0.653091 0.156867
H11   H     H_    0.518006 0.842200 0.723906 0.162409
H12   H     H_    0.481992 0.157799 0.276094 0.162409
H13   H     H_    0.480581 0.967976 0.256832 0.142681
H14   H     H_    0.519416 0.032024 0.743168 0.142682
H15   H     H_    0.371140 0.416190 0.789566 0.125328
H16   H     H_    0.628860 0.583809 0.210434 0.125327
H17   H     H_    0.677994 0.622880 0.813122 0.137184
H18   H     H_    0.322006 0.377120 0.186878 0.137183
N1    N     N_R   0.523180 0.519350 0.790130 -0.191473
N2    N     N_R   0.476820 0.480650 0.209870 -0.191470
O1    O     O_R   0.506570 0.354460 0.582000 -0.590584
O2    O     O_R   0.493430 0.645540 0.418000 -0.590583
O3    O     O_R   0.490940 0.341410 0.386200 -0.591032
O4    O     O_R   0.509060 0.658590 0.613800 -0.591033
O5    O     O_R   0.327470 0.506520 0.597900 -0.588540
O6    O     O_R   0.672530 0.493480 0.402100 -0.588541
O7    O     O_R   0.311840 0.493460 0.402100 -0.590308
O8    O     O_R   0.688160 0.506540 0.597900 -0.590311
F1    F     F_    0.143669 0.600801 0.926394 -0.691592
F2    F     F_    0.856359 0.399162 0.073614 -0.691594

loop_
_geom_bond_atom_site_label_1
_geom_bond_atom_site_label_2
_ccdc_geom_bond_type
C23   C33   A    
C11   C12   A    
C31   C33   A    
C22   O8    A    
Cu1   Cu2   S    
C27   C29   A    
C27   H2    S    
C18   N1    A    
C18   C20   A    
C19   C20   A    
C28   H1    S    
Cu2   O7    S    
C17   N2    A    
C14   H4    S    
Cu2   O3    S    
C26   F2    S    
C15   H18   S    
C1    C4    S    
C28   C30   A    
C2    C3    S    
C16   H17   S    
C29   C31   A    
C21   C36   S    
Cu2   N2    S    
Cu1   O8    S    
C30   C32   A    
C22   C35   S    
C9    C11   A    
Cu1   O1    S    
C2    O2    A    
C10   C12   A    
C5    C12   A    
C4    C7    A    
Cu2   O2    S    
C32   C36   A    
C31   C35   A    
C13   H3    S    
Cu1   O5    S    
C1    O1    A    
C24   C26   A    
Cu1   O4    S    
Cu2   O6    S    
C16   N1    A    
C23   C25   A    
C13   C15   A    
Cu1   N1    S    
C24   H6    S    
C15   N2    A    
C14   C16   A    
C21   O5    A    
C25   C27   A    
C22   O6    A    
C6    H14   S    
C10   H9    S    
C33   C36   A    
C23   H5    S    
C3    C8    A    
C9    H10   S    
C5    C7    A    
C34   C35   A    
C5    H13   S    
C6    C11   A    
C3    C10   A    
C17   H16   S    
C14   C19   A    
C17   C19   A    
C6    C8    A    
C13   C20   A    
C21   O7    A    
C4    C9    A    
C18   H15   S    
C26   C28   A    
C8    H11   S    
C30   H8    S    
C24   C34   A    
C2    O4    A    
C7    H12   S    
C29   H7    S    
C25   F1    S    
C1    O3    A    
C32   C34   A    
