data_mof_unit_56951.cif
_audit_creation_date              2012-12-11T15:39:28-0500
_audit_creation_method            fapswitch 2.2
_symmetry_space_group_name_H-M    P1
_symmetry_Int_Tables_number       1
_space_group_crystal_system       triclinic
_cell_length_a                    17.336614
_cell_length_b                    24.461316
_cell_length_c                    14.834474
_cell_angle_alpha                 90.412961
_cell_angle_beta                  125.407108
_cell_angle_gamma                 89.300982
_cell_volume                      5127.09459356

loop_
_atom_site_label
_atom_site_type_symbol
_atom_type_description
_atom_site_fract_x
_atom_site_fract_y
_atom_site_fract_z
_atom_type_partial_charge
C1    C     C_R   0.312301 0.373161 0.906478 -0.168338
C2    C     C_R   0.555296 0.500115 0.730432 0.039076
C3    C     C_R   0.113401 0.815059 0.000661 -0.060323
C4    C     C_3   0.386574 0.364461 0.243219 -0.917473
C5    C     C_3   0.415707 0.336250 0.710977 -0.991229
C6    C     C_3   0.886575 0.864463 0.243219 -0.917498
C7    C     C_3   0.915572 0.836299 0.711010 -0.991278
C8    C     C_R   0.069961 0.000710 0.370938 0.026133
C9    C     C_R   0.055290 0.000113 0.730424 0.039092
C10   C     C_R   0.197369 0.500555 0.631923 0.076262
C11   C     C_R   0.825526 0.500241 0.278153 0.071568
C12   C     C_R   0.697366 0.000555 0.631926 0.076295
C13   C     C_R   0.325526 0.000241 0.278153 0.071569
C14   C     C_R   0.070733 0.551217 0.465781 0.162753
C15   C     C_R   0.976875 0.551312 0.376905 0.158616
C16   C     C_R   0.570731 0.051218 0.465784 0.162748
C17   C     C_R   0.648664 0.348185 0.091946 -0.179582
C18   C     C_R   0.476874 0.051313 0.376907 0.158619
C19   C     C_R   0.117798 0.501881 0.515278 0.033257
C20   C     C_R   0.927974 0.501943 0.334516 0.033502
C21   C     C_R   0.617796 0.001882 0.515281 0.033255
C22   C     C_R   0.427974 0.001944 0.334516 0.033502
C23   C     C_R   0.076803 0.453237 0.455352 -0.201636
C24   C     C_R   0.981682 0.453320 0.364489 -0.199564
C25   C     C_R   0.576802 0.953239 0.455353 -0.201629
C26   C     C_R   0.481682 0.953321 0.364489 -0.199567
C27   C     C_3   0.956076 0.601689 0.417918 -0.520455
C28   C     C_R   0.812300 0.873162 0.906478 -0.168257
C29   C     C_3   0.058748 0.601612 0.514479 -0.522176
C30   C     C_3   0.456073 0.101689 0.417921 -0.520456
C31   C     C_3   0.558745 0.101612 0.514483 -0.522174
C32   C     C_R   0.161660 0.689214 0.899154 -0.165351
C33   C     C_R   0.766704 0.721500 0.048745 -0.190142
C34   C     C_R   0.661641 0.189196 0.899169 -0.165371
C35   C     C_R   0.266705 0.221501 0.048752 -0.190140
C36   C     C_R   0.614803 0.234970 0.899396 -0.200684
C37   C     C_R   0.313595 0.264800 0.044980 -0.178317
C38   C     C_R   0.114835 0.734991 0.899387 -0.200685
C39   C     C_R   0.148674 0.848187 0.091948 -0.179567
C40   C     C_R   0.813593 0.764800 0.044974 -0.178303
C41   C     C_R   0.640073 0.258159 0.999706 0.146132
C42   C     C_R   0.264327 0.313588 0.996612 0.170593
C43   C     C_R   0.140087 0.758166 0.999700 0.146115
C44   C     C_R   0.764326 0.813589 0.996612 0.170587
C45   C     C_R   0.402191 0.624735 0.092655 -0.124038
C46   C     C_R   0.559531 0.650260 0.907715 -0.143704
C47   C     C_R   0.902195 0.124735 0.092658 -0.124040
C48   C     C_R   0.059530 0.150260 0.907715 -0.143706
C49   C     C_R   0.704216 0.230338 0.099003 -0.158218
C50   C     C_R   0.312140 0.637756 0.000218 0.038032
C51   C     C_R   0.167106 0.318637 0.945309 -0.181593
C52   C     C_R   0.204206 0.730334 0.098990 -0.158218
C53   C     C_R   0.667107 0.818638 0.945316 -0.181596
C54   C     C_R   0.253919 0.685374 0.098953 -0.176001
C55   C     C_R   0.619030 0.774207 0.946199 -0.192290
C56   C     C_R   0.753938 0.185381 0.098971 -0.175994
C57   C     C_R   0.119028 0.274206 0.946192 -0.192290
C58   C     C_R   0.238637 0.668052 0.999430 0.147811
C59   C     C_R   0.670139 0.726558 0.999920 0.148238
C60   C     C_R   0.738640 0.168049 0.999445 0.147814
C61   C     C_R   0.624178 0.679479 0.999644 0.048335
C62   C     C_R   0.170138 0.226558 0.999920 0.148241
C63   C     C_R   0.612070 0.549431 0.633961 -0.170362
C64   C     C_R   0.613498 0.549696 0.541469 -0.170310
C65   C     C_R   0.112067 0.049430 0.633959 -0.170364
C66   C     C_R   0.113500 0.049694 0.541469 -0.170309
C67   C     C_R   0.604026 0.500419 0.487240 0.143430
C68   C     C_R   0.599680 0.499958 0.671228 0.143043
C69   C     C_R   0.104029 0.000418 0.487241 0.143431
C70   C     C_R   0.099675 0.999956 0.671222 0.143042
C71   C     C_R   0.612101 0.450734 0.538970 -0.171749
C72   C     C_R   0.812143 0.137758 0.000224 0.038030
C73   C     C_R   0.610376 0.450523 0.631091 -0.166684
C74   C     C_R   0.112103 0.950732 0.538969 -0.171749
C75   C     C_R   0.110374 0.950521 0.631087 -0.166688
C76   C     C_R   0.555042 0.455361 0.307237 -0.079446
C77   C     C_R   0.525877 0.454504 0.757934 -0.140574
C78   C     C_R   0.055044 0.955360 0.307237 -0.079449
C79   C     C_R   0.025867 0.954501 0.757922 -0.140568
C80   C     C_R   0.246397 0.545606 0.695348 -0.159485
C81   C     C_R   0.767316 0.545691 0.247658 -0.144750
C82   C     C_R   0.746396 0.045607 0.695350 -0.159479
C83   C     C_R   0.124177 0.179480 0.999644 0.048338
C84   C     C_R   0.267316 0.045691 0.247657 -0.144753
C85   C     C_R   0.550438 0.545819 0.305173 -0.142411
C86   C     C_R   0.520542 0.545728 0.752456 -0.120777
C87   C     C_R   0.050440 0.045819 0.305174 -0.142409
C88   C     C_R   0.020542 0.045727 0.752456 -0.120775
C89   C     C_R   0.244438 0.454784 0.695795 -0.133605
C90   C     C_R   0.769536 0.454176 0.252084 -0.125709
C91   C     C_R   0.744435 0.954784 0.695797 -0.133666
C92   C     C_R   0.269536 0.954177 0.252084 -0.125708
C93   C     C_R   0.309993 0.624283 0.907624 -0.129095
C94   C     C_R   0.569958 0.500711 0.370937 0.026133
C95   C     C_R   0.651843 0.650059 0.091861 -0.158313
C96   C     C_R   0.809994 0.124285 0.907627 -0.129093
C97   C     C_R   0.151842 0.150060 0.091861 -0.158316
C98   C     C_R   0.403488 0.373795 0.091400 0.183407
C99   C     C_R   0.546016 0.345497 0.909012 0.191685
C100  C     C_R   0.903487 0.873796 0.091400 0.183411
C101  C     C_R   0.046017 0.845496 0.909016 0.191684
C102  C     C_R   0.316623 0.358028 0.998482 -0.021737
C103  C     C_R   0.613387 0.315054 0.000659 -0.060323
C104  C     C_R   0.816621 0.858030 0.998482 -0.021771
H1    H     H_    0.257644 0.363619 0.821044 0.122465
H2    H     H_    0.098100 0.636926 0.513651 0.188228
H3    H     H_    0.408538 0.094211 0.444039 0.201597
H4    H     H_    0.598097 0.136927 0.513657 0.188229
H5    H     H_    0.144153 0.675237 0.820192 0.108000
H6    H     H_    0.804939 0.683626 0.087052 0.123737
H7    H     H_    0.644122 0.175209 0.820208 0.108005
H8    H     H_    0.304941 0.183626 0.087064 0.123736
H9    H     H_    0.566509 0.254880 0.820882 0.134741
H10   H     H_    0.388241 0.260407 0.080062 0.113786
H11   H     H_    0.066563 0.754914 0.820879 0.134681
H12   H     H_    0.690526 0.335469 0.177485 0.100559
H13   H     H_    0.888238 0.760407 0.080051 0.113786
H14   H     H_    0.722655 0.245846 0.177546 0.104074
H15   H     H_    0.129593 0.356469 0.905874 0.124759
H16   H     H_    0.222630 0.745834 0.177533 0.104076
H17   H     H_    0.629595 0.856471 0.905887 0.124761
H18   H     H_    0.309603 0.667794 0.177542 0.108300
H19   H     H_    0.543418 0.776845 0.906628 0.121333
H20   H     H_    0.809639 0.167813 0.177562 0.108295
H21   H     H_    0.043415 0.276844 0.906616 0.121331
H22   H     H_    0.610644 0.588338 0.667980 0.108984
H23   H     H_    0.757643 0.863619 0.821044 0.122466
H24   H     H_    0.612862 0.588750 0.507428 0.106576
H25   H     H_    0.110641 0.088336 0.667977 0.108984
H26   H     H_    0.112866 0.088749 0.507429 0.106575
H27   H     H_    0.609936 0.411723 0.503026 0.106736
H28   H     H_    0.606885 0.411445 0.662003 0.106645
H29   H     H_    0.109940 0.911722 0.503026 0.106736
H30   H     H_    0.106882 0.911443 0.661999 0.106642
H31   H     H_    0.429598 0.630263 0.178480 0.093155
H32   H     H_    0.517903 0.664251 0.822873 0.091894
H33   H     H_    0.929603 0.130261 0.178484 0.093153
H34   H     H_    0.190541 0.835472 0.177487 0.100557
H35   H     H_    0.017902 0.164251 0.822873 0.091895
H36   H     H_    0.581162 0.414654 0.338265 0.098717
H37   H     H_    0.544255 0.412556 0.756133 0.116862
H38   H     H_    0.081162 0.914654 0.338264 0.098720
H39   H     H_    0.044224 0.912551 0.756099 0.116849
H40   H     H_    0.240044 0.586841 0.666121 0.101785
H41   H     H_    0.785859 0.587726 0.251260 0.107844
H42   H     H_    0.740042 0.086842 0.666123 0.101783
H43   H     H_    0.285858 0.087726 0.251259 0.107845
H44   H     H_    0.567610 0.587777 0.332298 0.087499
H45   H     H_    0.936289 0.637275 0.362008 0.189648
H46   H     H_    0.528630 0.587972 0.739891 0.091268
H47   H     H_    0.067614 0.087776 0.332300 0.087497
H48   H     H_    0.028634 0.087971 0.739894 0.091266
H49   H     H_    0.233940 0.412936 0.667529 0.094842
H50   H     H_    0.791655 0.411861 0.263961 0.094629
H51   H     H_    0.733931 0.912936 0.667531 0.094844
H52   H     H_    0.291657 0.911862 0.263964 0.094627
H53   H     H_    0.252164 0.628764 0.821654 0.092084
H54   H     H_    0.694674 0.664194 0.176630 0.097519
H55   H     H_    0.752164 0.128769 0.821658 0.092085
H56   H     H_    0.068869 0.594211 0.594620 0.200579
H57   H     H_    0.194673 0.164194 0.176630 0.097517
H58   H     H_    0.113222 0.414330 0.485502 0.126926
H59   H     H_    0.948426 0.414529 0.328026 0.127767
H60   H     H_    0.613222 0.914331 0.485502 0.126927
H61   H     H_    0.448427 0.914530 0.328024 0.127767
H62   H     H_    0.486370 0.323448 0.228281 0.144748
H63   H     H_    0.432629 0.363133 0.334985 0.243097
H64   H     H_    0.334753 0.330866 0.212968 0.258126
H65   H     H_    0.348819 0.404536 0.217187 0.261577
H66   H     H_    0.446978 0.281936 0.836716 0.166691
H67   H     H_    0.436287 0.137276 0.362012 0.189648
H68   H     H_    0.391211 0.379319 0.695576 0.268822
H69   H     H_    0.352361 0.310724 0.655814 0.250432
H70   H     H_    0.466739 0.328682 0.689790 0.244587
H71   H     H_    0.986365 0.823447 0.228277 0.144752
H72   H     H_    0.932627 0.863128 0.334984 0.243097
H73   H     H_    0.834745 0.830873 0.212957 0.258132
H74   H     H_    0.848831 0.904541 0.217199 0.261584
H75   H     H_    0.947012 0.781913 0.836706 0.166722
H76   H     H_    0.891151 0.879377 0.695743 0.268849
H77   H     H_    0.852160 0.810818 0.655891 0.250428
H78   H     H_    0.568865 0.094211 0.594623 0.200576
H79   H     H_    0.966482 0.828723 0.689645 0.244629
H80   H     H_    0.908541 0.594211 0.444038 0.201598
N1    N     N_R   0.394180 0.396910 0.943210 -0.045381
N2    N     N_R   0.474350 0.471570 0.793850 -0.039362
N3    N     N_R   0.025650 0.971570 0.206150 -0.042057
N4    N     N_R   0.974350 0.971570 0.793850 -0.039388
N5    N     N_R   0.319480 0.528420 0.793810 -0.038828
N6    N     N_R   0.680520 0.528420 0.206190 -0.040006
N7    N     N_R   0.819480 0.028420 0.793810 -0.038823
N8    N     N_R   0.180520 0.028420 0.206190 -0.040006
N9    N     N_R   0.525640 0.528390 0.206120 -0.039974
N10   N     N_R   0.474360 0.528390 0.793880 -0.040193
N11   N     N_R   0.025640 0.028390 0.206120 -0.039975
N12   N     N_R   0.605820 0.396910 0.056790 -0.050472
N13   N     N_R   0.974360 0.028390 0.793880 -0.040190
N14   N     N_R   0.319490 0.471590 0.793840 -0.034323
N15   N     N_R   0.680510 0.471590 0.206160 -0.042071
N16   N     N_R   0.819490 0.971590 0.793840 -0.034330
N17   N     N_R   0.180510 0.971590 0.206160 -0.042071
N18   N     N_R   0.394130 0.603080 0.943110 -0.039546
N19   N     N_R   0.605870 0.603080 0.056890 -0.035681
N20   N     N_R   0.894130 0.103080 0.943110 -0.039545
N21   N     N_R   0.105870 0.103080 0.056890 -0.035680
N22   N     N_R   0.450990 0.396900 0.056840 -0.075005
N23   N     N_R   0.894180 0.896910 0.943210 -0.045362
N24   N     N_R   0.549010 0.396900 0.943160 -0.051681
N25   N     N_R   0.950990 0.896900 0.056840 -0.075004
N26   N     N_R   0.049010 0.896900 0.943160 -0.051669
N27   N     N_2   0.444557 0.358173 0.202585 -0.122796
N28   N     N_2   0.457319 0.321916 0.824730 -0.111078
N29   N     N_2   0.944556 0.858173 0.202584 -0.122795
N30   N     N_2   0.957319 0.821904 0.824762 -0.111094
N31   N     N_R   0.105820 0.896910 0.056790 -0.050468
N32   N     N_R   0.450950 0.603070 0.056740 -0.038778
N33   N     N_R   0.549050 0.603070 0.943260 -0.036601
N34   N     N_R   0.950950 0.103070 0.056740 -0.038777
N35   N     N_R   0.049050 0.103070 0.943260 -0.036600
N36   N     N_R   0.525650 0.471570 0.206150 -0.042056
Ni1   Ni    Ni4+2 0.434860 0.434850 0.869700 0.219142
Ni2   Ni    Ni4+2 0.565140 0.434850 0.130300 0.199846
Ni3   Ni    Ni4+2 0.934860 0.934850 0.869700 0.219117
Ni4   Ni    Ni4+2 0.065140 0.934850 0.130300 0.199852
Ni5   Ni    Ni4+2 0.565130 0.565140 0.130240 0.208999
Ni6   Ni    Ni4+2 0.434870 0.565140 0.869760 0.208492
Ni7   Ni    Ni4+2 0.065130 0.065140 0.130240 0.208998
Ni8   Ni    Ni4+2 0.934870 0.065140 0.869760 0.208492

loop_
_geom_bond_atom_site_label_1
_geom_bond_atom_site_label_2
_ccdc_geom_bond_type
N5    N14   A    
N9    N36   A    
C99   C103  A    
C62   C83   S    
C26   H61   S    
N23   Ni3   S    
C16   C21   A    
C77   N2    A    
C55   C59   A    
C82   N7    A    
C27   C29   S    
N6    Ni5   S    
C5    H70   S    
C12   C91   A    
N5    Ni6   S    
C34   C60   A    
C85   H44   S    
C32   C58   A    
N31   Ni4   S    
N36   Ni2   S    
C44   C104  S    
C75   H30   S    
C57   C62   A    
N18   Ni6   S    
C11   C81   A    
C16   C31   S    
C89   N14   A    
C13   C84   A    
C3    C43   S    
C8    C69   S    
N7    Ni8   S    
C4    N27   S    
H71   N29   S    
C35   C37   A    
N22   Ni2   S    
C2    C68   S    
C78   H38   S    
C9    C88   A    
C57   H21   S    
C30   C31   S    
C30   H3    S    
C43   C52   A    
C66   C69   A    
N3    Ni4   S    
C60   C72   S    
C25   H60   S    
C95   N19   A    
N26   N31   A    
C95   H54   S    
C74   H29   S    
C100  N25   A    
C100  C104  A    
C45   N32   A    
C9    C79   A    
C2    C86   A    
C37   C42   A    
C27   H80   S    
C76   C94   A    
C89   H49   S    
C44   C53   A    
N8    Ni7   S    
C79   H39   S    
C20   C24   A    
C10   C89   A    
C64   H24   S    
C13   C22   S    
C67   C94   S    
C51   H15   S    
C23   C24   A    
C84   N8    A    
C18   C30   S    
C32   C38   A    
N35   Ni8   S    
N20   Ni8   S    
C10   C19   S    
C67   C71   A    
C28   H23   S    
C42   C51   A    
C23   H58   S    
C3    C101  A    
C53   C55   A    
C40   H13   S    
C54   H18   S    
C73   H28   S    
C3    C39   A    
C27   H45   S    
C46   N33   A    
N1    Ni1   S    
C6    H74   S    
C8    C78   A    
C34   H7    S    
C88   H48   S    
C36   C41   A    
C36   H9    S    
C42   C102  S    
C41   C49   A    
C82   H42   S    
C52   C54   A    
N6    N15   A    
C96   N20   A    
C29   H56   S    
C99   N28   S    
C76   H36   S    
C15   C20   A    
C100  N29   S    
C47   N34   A    
C55   H19   S    
C11   C20   S    
C45   H31   S    
C33   C40   A    
C59   C61   S    
C79   N4    A    
C7    H77   S    
C46   C61   A    
C50   C58   S    
C64   C67   A    
N14   Ni1   S    
C9    C70   S    
C32   H5    S    
C71   C73   A    
N19   N33   A    
C37   H10   S    
C80   H40   S    
N24   Ni1   S    
C98   C102  A    
C78   N3    A    
C71   H27   S    
C12   C21   S    
C98   N27   S    
C4    H64   S    
N20   N34   A    
H66   N28   S    
C88   N13   A    
N12   N24   A    
C19   C23   A    
N13   Ni8   S    
C4    H63   S    
C91   H51   S    
H62   N27   S    
C85   C94   A    
C28   C104  A    
C15   C27   S    
C49   H14   S    
C14   C15   A    
C101  N30   S    
N8    N17   A    
C47   H33   S    
C12   C82   A    
C69   C74   A    
C92   H52   S    
N15   Ni2   S    
N7    N16   A    
C93   H53   S    
C93   N18   A    
C51   C57   A    
C91   N16   A    
C52   H16   S    
C16   C18   A    
N2    Ni1   S    
C97   H57   S    
C80   N5    A    
C22   C26   A    
C29   H2    S    
C24   H59   S    
C90   H50   S    
C14   C29   S    
C31   H4    S    
C56   H20   S    
N34   Ni7   S    
N19   Ni5   S    
C54   C58   A    
C84   H43   S    
C31   H78   S    
C28   N23   A    
C5    N28   S    
C21   C25   A    
C63   C68   A    
N21   N35   A    
C10   C80   A    
N26   Ni3   S    
C48   H35   S    
N3    N11   A    
C18   C22   A    
N16   Ni3   S    
C5    H69   S    
C14   C19   A    
N2    N10   A    
N1    N22   A    
C65   H25   S    
C61   C95   A    
C50   C93   A    
C90   N15   A    
C39   N31   A    
C101  N26   A    
C49   C56   A    
C13   C92   A    
N33   Ni6   S    
C81   H41   S    
N32   Ni5   S    
C48   C83   A    
N11   Ni7   S    
C99   N24   A    
C8    C87   A    
C97   N21   A    
C1    N1    A    
N10   Ni6   S    
C86   H46   S    
C25   C26   A    
N9    Ni5   S    
C38   C43   A    
C6    H73   S    
C2    C77   A    
C53   H17   S    
C86   N10   A    
C81   N6    A    
C45   C50   A    
C38   H11   S    
C11   C90   A    
C85   N9    A    
C6    N29   S    
C6    H72   S    
N4    N13   A    
C76   N36   A    
H75   N30   S    
C5    H68   S    
C7    H76   S    
N21   Ni7   S    
C35   C62   A    
C34   C36   A    
C7    H79   S    
C17   C103  A    
C74   C75   A    
C77   H37   S    
C30   H67   S    
C39   H34   S    
C7    N30   S    
C92   N17   A    
C46   H32   S    
C63   C64   A    
C72   C96   A    
N4    Ni3   S    
C41   C103  S    
C63   H22   S    
C40   C44   A    
C96   H55   S    
C56   C60   A    
C47   C72   A    
C17   H12   S    
C33   C59   A    
C65   C66   A    
C83   C97   A    
C70   C75   A    
N23   N25   A    
N25   Ni4   S    
C68   C73   A    
C98   N22   A    
C17   N12   A    
C87   H47   S    
C33   H6    S    
C87   N11   A    
N17   Ni4   S    
N18   N32   A    
C1    C102  A    
N12   Ni2   S    
C35   H8    S    
C65   C70   A    
C4    H65   S    
C1    H1    S    
C66   H26   S    
C48   N35   A    
