data_mof_unit_38728.cif
_audit_creation_date              2012-12-10T18:57:12-0500
_audit_creation_method            fapswitch 2.2
_symmetry_space_group_name_H-M    P1
_symmetry_Int_Tables_number       1
_space_group_crystal_system       triclinic
_cell_length_a                    8.734896
_cell_length_b                    10.801568
_cell_length_c                    9.562215
_cell_angle_alpha                 89.958984
_cell_angle_beta                  97.594177
_cell_angle_gamma                 90.319689
_cell_volume                      894.27332321

loop_
_atom_site_label
_atom_site_type_symbol
_atom_type_description
_atom_site_fract_x
_atom_site_fract_y
_atom_site_fract_z
_atom_type_partial_charge
C1    C     C_R   0.503690 0.262440 0.500468 0.868270
C2    C     C_R   0.612386 0.935955 0.413335 0.281764
C3    C     C_R   0.527084 0.870628 0.506580 -0.242059
C4    C     C_R   0.466795 0.936170 0.611798 0.085210
C5    C     C_3   0.312818 0.926772 0.662886 -0.419213
C6    C     C_3   0.310577 0.067430 0.662444 -0.447581
C7    C     C_R   0.578334 0.589604 0.082649 0.287829
C8    C     C_R   0.411557 0.418663 0.063780 -0.051182
C9    C     C_R   0.411585 0.418624 0.915008 -0.076260
C10   C     C_R   0.577540 0.589908 0.935175 0.262281
C11   C     C_3   0.746083 0.616087 0.947278 -0.499382
C12   C     C_R   0.204159 0.498936 0.464229 0.870571
C13   C     C_3   0.748388 0.612936 0.105669 -0.504440
C14   C     C_R   0.506614 0.737479 0.501043 0.814595
C15   C     C_R   0.796052 0.500021 0.536072 0.876106
C16   C     C_2   0.038810 0.495776 0.445126 -0.352328
C17   C     C_2   0.961843 0.501246 0.556377 -0.369674
C18   C     C_R   0.464894 0.062939 0.611312 0.055093
C19   C     C_R   0.520712 0.129324 0.503886 -0.211079
C20   C     C_R   0.604823 0.066995 0.409012 0.374075
Cu1   Cu    Cu3+1 0.499990 0.499980 0.640670 0.941227
Cu2   Cu    Cu3+1 0.500010 0.500020 0.359330 0.972471
H1    H     H_    0.980458 0.487825 0.338582 0.168512
H2    H     H_    0.342260 0.351153 0.851015 0.137361
H3    H     H_    0.770633 0.709398 0.906147 0.200998
H4    H     H_    0.779756 0.703500 0.156169 0.230987
H5    H     H_    0.020844 0.507536 0.663653 0.172086
H6    H     H_    0.223087 0.884448 0.583599 0.191340
H7    H     H_    0.321177 0.886350 0.770574 0.202116
H8    H     H_    0.219419 0.107091 0.583050 0.193313
H9    H     H_    0.317546 0.108060 0.769904 0.198719
H10   H     H_    0.342205 0.351218 0.111146 0.143423
N1    N     N_R   0.500980 0.500930 0.148050 -0.191572
N2    N     N_R   0.500990 0.500890 0.852140 -0.190978
O1    O     O_R   0.500000 0.319640 0.618810 -0.591353
O2    O     O_R   0.500020 0.319680 0.381230 -0.537939
O3    O     O_R   0.274830 0.499980 0.591380 -0.582825
O4    O     O_R   0.274850 0.500020 0.353800 -0.593252
O5    O     O_R   0.499980 0.680320 0.618770 -0.580073
O6    O     O_R   0.500000 0.680360 0.381190 -0.567682
O7    O     O_R   0.725150 0.499980 0.646200 -0.595492
O8    O     O_R   0.725170 0.500020 0.408620 -0.574316
H11   H     H_    0.812965 0.539297 0.907939 0.221244
H12   H     H_    0.812808 0.532295 0.153853 0.211006
O9    O     O_3   0.678850 0.135985 0.315717 -0.715000
H13   H     H_    0.729549 0.080373 0.253901 0.366423
O10   O     O_3   0.702101 0.875768 0.326618 -0.755915
H14   H     H_    0.739625 0.797735 0.373308 0.322574

loop_
_geom_bond_atom_site_label_1
_geom_bond_atom_site_label_2
_ccdc_geom_bond_type
C8    C9    A    
C7    C10   A    
C9    H2    S    
C11   H11   S    
Cu1   O1    S    
C2    O10   S    
C5    H6    S    
C11   C13   S    
C15   O8    A    
C19   C20   A    
Cu1   O5    S    
Cu2   O6    S    
C2    C3    A    
C4    C18   A    
C10   N2    A    
O9    H13   S    
C7    N1    A    
C15   O7    A    
Cu2   O8    S    
C3    C14   S    
Cu1   O7    S    
C6    H8    S    
C9    N2    A    
C6    H9    S    
C16   H1    S    
C5    H7    S    
C8    N1    A    
C12   O4    A    
C5    C6    S    
C6    C18   S    
C13   H4    S    
C1    C19   S    
C10   C11   S    
C11   H3    S    
C2    C20   A    
C3    C4    A    
C17   H5    S    
C12   C16   S    
C7    C13   S    
Cu1   O3    S    
C1    O1    A    
C18   C19   A    
C20   O9    S    
C12   O3    A    
C15   C17   S    
Cu2   N1    S    
C4    C5    S    
Cu1   N2    S    
C14   O5    A    
Cu1   Cu2   S    
C14   O6    A    
C13   H12   S    
Cu2   O2    S    
O10   H14   S    
C1    O2    A    
C16   C17   D    
Cu2   O4    S    
C8    H10   S    
