data_mof_unit_12530.cif
_audit_creation_date              2012-12-10T16:44:13-0500
_audit_creation_method            fapswitch 2.2
_symmetry_space_group_name_H-M    P1
_symmetry_Int_Tables_number       1
_space_group_crystal_system       triclinic
_cell_length_a                    7.424388
_cell_length_b                    8.694329
_cell_length_c                    13.400914
_cell_angle_alpha                 94.021727
_cell_angle_beta                  77.17535
_cell_angle_gamma                 103.16063
_cell_volume                      821.12317172

loop_
_atom_site_label
_atom_site_type_symbol
_atom_type_description
_atom_site_fract_x
_atom_site_fract_y
_atom_site_fract_z
_atom_type_partial_charge
C1    C     C_R   0.545364 0.800224 0.502993 0.876694
C2    C     C_R   0.417621 0.510457 0.975818 0.088761
C3    C     C_R   0.464558 0.556498 0.872022 0.085762
C4    C     C_R   0.559965 0.550211 0.035192 0.068501
C5    C     C_R   0.739007 0.645809 0.992862 0.116929
C6    C     C_R   0.773890 0.704664 0.894827 -0.234630
C7    C     C_R   0.637891 0.663109 0.835997 -0.202018
C8    C     C_R   0.530506 0.497062 0.135124 -0.295887
C9    C     C_R   0.847449 0.636635 0.150764 0.146090
C10   C     C_R   0.336175 0.495620 0.807045 -0.113674
C11   C     C_2   0.570962 0.968076 0.504438 -0.375608
C12   C     C_R   0.399114 0.497945 0.694574 0.779152
C13   C     C_2   0.429134 0.031903 0.495417 -0.375036
C14   C     C_R   0.454671 0.199776 0.496959 0.892072
C15   C     C_R   0.603077 0.514528 0.305675 0.802899
C16   C     C_R   0.881142 0.684997 0.049549 -0.174259
C17   C     C_R   0.667045 0.544985 0.195002 -0.070788
C18   C     C_R   0.151978 0.414574 0.849662 -0.192738
C19   C     C_R   0.098720 0.384160 0.953621 -0.137477
C20   C     C_R   0.230075 0.427735 0.015836 -0.184196
Cu1   Cu    Cu3+1 0.321300 0.483160 0.488710 0.941359
Cu2   Cu    Cu3+1 0.678700 0.516840 0.511290 0.937594
H1    H     H_    0.292454 0.960481 0.486862 0.178072
H2    H     H_    0.010723 0.617370 0.579461 0.224301
H3    H     H_    0.989274 0.382720 0.420505 0.222020
H4    H     H_    0.907346 0.783477 0.863258 0.143436
H5    H     H_    0.017890 0.756875 0.015246 0.141339
H6    H     H_    0.399741 0.419171 0.169419 0.154627
H7    H     H_    0.050396 0.369995 0.801983 0.162834
H8    H     H_    0.178618 0.397835 0.095251 0.129205
H9    H     H_    0.955818 0.321911 0.985820 0.148929
H10   H     H_    0.669616 0.718574 0.762597 0.162956
H11   H     H_    0.707654 0.039485 0.512973 0.178104
N1    N     N_2   0.947230 0.542220 0.528320 -0.216520
N2    N     N_2   0.052770 0.457780 0.471680 -0.218302
O1    O     O_R   0.383920 0.714220 0.492660 -0.580536
O2    O     O_R   0.685730 0.742660 0.511730 -0.594525
O3    O     O_R   0.275440 0.478800 0.636790 -0.585323
O4    O     O_R   0.577250 0.507240 0.655860 -0.578079
O5    O     O_R   0.314270 0.257340 0.488270 -0.584987
O6    O     O_R   0.616080 0.285780 0.507340 -0.578843
O7    O     O_R   0.422750 0.492760 0.344140 -0.583859
O8    O     O_R   0.724560 0.521200 0.363210 -0.586260
C21   C     C_3   0.002940 0.689388 0.209564 -0.814696
H12   H     H_    0.956444 0.765073 0.276163 0.240127
H13   H     H_    0.040327 0.584873 0.236036 0.238048
H14   H     H_    0.133810 0.759237 0.161599 0.218431

loop_
_geom_bond_atom_site_label_1
_geom_bond_atom_site_label_2
_ccdc_geom_bond_type
C2    C4    A    
C6    C7    A    
Cu1   N2    S    
C15   O7    A    
C8    C17   A    
C1    C11   S    
C21   H14   S    
C1    O2    A    
C4    C8    A    
C19   H9    S    
C12   O4    A    
C2    C3    A    
C15   O8    A    
C18   H7    S    
C20   H8    S    
C13   C14   S    
C11   C13   D    
C6    H4    S    
Cu1   O5    S    
C10   C12   S    
H3    N2    S    
C14   O6    A    
C3    C10   A    
Cu2   O4    S    
C9    C17   A    
C9    C16   A    
C10   C18   A    
C18   C19   A    
C3    C7    A    
C12   O3    A    
C5    C6    A    
Cu2   N1    S    
Cu2   O6    S    
C14   O5    A    
Cu1   O7    S    
C11   H11   S    
C21   H12   S    
C13   H1    S    
C8    H6    S    
C15   C17   S    
N1    N2    D    
C16   H5    S    
Cu1   O1    S    
C9    C21   S    
C7    H10   S    
Cu1   Cu2   S    
Cu2   O2    S    
C2    C20   A    
Cu2   O8    S    
H2    N1    S    
Cu1   O3    S    
C19   C20   A    
C1    O1    A    
C21   H13   S    
C4    C5    A    
C5    C16   A    
