data_mof_unit_49066.cif
_audit_creation_date              2012-12-11T16:24:06-0500
_audit_creation_method            fapswitch 2.2
_symmetry_space_group_name_H-M    P1
_symmetry_Int_Tables_number       1
_space_group_crystal_system       triclinic
_cell_length_a                    14.737427
_cell_length_b                    14.753741
_cell_length_c                    33.302056
_cell_angle_alpha                 96.076384
_cell_angle_beta                  96.353845
_cell_angle_gamma                 61.260997
_cell_volume                      6298.46966253

loop_
_atom_site_label
_atom_site_type_symbol
_atom_type_description
_atom_site_fract_x
_atom_site_fract_y
_atom_site_fract_z
_atom_type_partial_charge
C1    C     C_R   0.390897 0.699723 0.446052 0.550515
C2    C     C_R   0.323156 0.348945 0.309430 0.042451
C3    C     C_R   0.398504 0.262872 0.329667 -0.113206
C4    C     C_R   0.419979 0.272128 0.371347 -0.138213
C5    C     C_R   0.375302 0.231688 0.168708 -0.127289
C6    C     C_R   0.369127 0.213895 0.126987 -0.170512
C7    C     C_R   0.226090 0.388676 0.120296 0.272694
C8    C     C_R   0.234693 0.406446 0.162667 -0.095148
C9    C     C_R   0.306356 0.326564 0.186641 -0.001471
C10   C     C_1   0.308006 0.338829 0.229844 -0.012815
C11   C     C_1   0.312806 0.344284 0.266163 -0.014054
C12   C     C_R   0.405333 0.386514 0.434077 0.537990
C13   C     C_R   0.292485 0.290356 0.102429 0.039367
C14   C     C_R   0.758199 0.373729 0.410315 0.035727
C15   C     C_R   0.780074 0.442850 0.392644 -0.168331
C16   C     C_R   0.810405 0.423375 0.353311 -0.135303
C17   C     C_R   0.820688 0.333739 0.330692 -0.007827
C18   C     C_R   0.810101 0.258922 0.349495 -0.107335
C19   C     C_R   0.777236 0.278627 0.389151 0.268012
C20   C     C_R   0.838144 0.316402 0.205356 0.370049
C21   C     C_R   0.833559 0.323277 0.286902 0.346043
C22   C     C_R   0.834239 0.395910 0.141645 0.268703
C23   C     C_R   0.701247 0.409822 0.447572 0.564491
C24   C     C_R   0.861932 0.381680 0.101557 -0.155513
C25   C     C_R   0.899107 0.201995 0.098877 0.215379
C26   C     C_R   0.874849 0.215223 0.139093 -0.108751
C27   C     C_R   0.846641 0.310088 0.161260 -0.000872
C28   C     C_R   0.902405 0.283427 0.081031 -0.028836
C29   C     C_R   0.370392 0.754300 0.408719 0.022822
C30   C     C_R   0.280907 0.772056 0.383666 -0.176820
C31   C     C_R   0.271805 0.797291 0.343876 -0.139238
C32   C     C_R   0.351748 0.805758 0.328278 -0.011416
C33   C     C_R   0.436290 0.798692 0.354278 -0.095039
C34   C     C_R   0.393686 0.701231 0.561393 0.553583
C35   C     C_R   0.445474 0.774743 0.394564 0.263000
C36   C     C_R   0.351206 0.820964 0.203555 0.357331
C37   C     C_R   0.350242 0.813995 0.284532 0.352394
C38   C     C_R   0.276395 0.812571 0.133215 -0.104765
C39   C     C_R   0.251171 0.847116 0.093626 0.280561
C40   C     C_R   0.375161 0.913454 0.106478 -0.181304
C41   C     C_R   0.397026 0.881523 0.145757 -0.134827
C42   C     C_R   0.344101 0.835434 0.160044 -0.001510
C43   C     C_R   0.298907 0.901261 0.080773 0.044660
C44   C     C_R   0.368407 0.369027 0.584091 -0.020675
C45   C     C_R   0.406908 0.388640 0.548776 0.540296
C46   C     C_R   0.281163 0.449425 0.602012 -0.113485
C47   C     C_R   0.258493 0.442360 0.641023 0.269469
C48   C     C_R   0.321539 0.350817 0.661367 0.049942
C49   C     C_R   0.401783 0.266439 0.641359 -0.173719
C50   C     C_R   0.425261 0.275591 0.603130 -0.163826
C51   C     C_R   0.306593 0.337909 0.785043 0.298919
C52   C     C_R   0.311629 0.346003 0.704566 0.355125
C53   C     C_R   0.201806 0.378069 0.844621 0.202379
C54   C     C_R   0.196431 0.364204 0.884690 -0.117245
C55   C     C_R   0.384361 0.265314 0.893797 0.283465
C56   C     C_R   0.702356 0.413275 0.562534 0.567045
C57   C     C_R   0.391757 0.279974 0.853618 0.274686
C58   C     C_R   0.300086 0.333306 0.828296 -0.021718
C59   C     C_R   0.285564 0.302692 0.908766 -0.087033
C60   C     C_R   0.759447 0.380066 0.602321 -0.063800
C61   C     C_R   0.771027 0.454209 0.629402 -0.158665
C62   C     C_R   0.805958 0.433700 0.669701 0.236972
C63   C     C_R   0.829421 0.337930 0.683598 -0.011705
C64   C     C_R   0.829350 0.258120 0.656005 0.212875
C65   C     C_R   0.790889 0.280565 0.615561 0.300588
C66   C     C_R   0.913261 0.208849 0.819575 -0.107105
C67   C     C_R   0.366971 0.367984 0.392898 0.020336
C68   C     C_R   0.935142 0.195510 0.861086 0.221417
C69   C     C_R   0.860835 0.383397 0.873921 0.235693
C70   C     C_R   0.835340 0.394528 0.831994 -0.096460
C71   C     C_R   0.865904 0.307414 0.805117 -0.045157
C72   C     C_1   0.853220 0.318297 0.762385 0.001390
C73   C     C_1   0.843764 0.326526 0.726489 0.023758
C74   C     C_R   0.914109 0.282695 0.888556 0.042452
C75   C     C_R   0.375912 0.755727 0.602140 -0.021455
C76   C     C_R   0.281246 0.786308 0.619074 -0.170841
C77   C     C_R   0.268869 0.817664 0.660221 0.256500
C78   C     C_R   0.285908 0.451709 0.372680 -0.122993
C79   C     C_R   0.353325 0.814933 0.685005 0.004375
C80   C     C_R   0.445300 0.791585 0.668135 -0.137012
C81   C     C_R   0.456693 0.764193 0.626694 0.254785
C82   C     C_R   0.394613 0.886171 0.832518 -0.107752
C83   C     C_R   0.375367 0.913787 0.873310 -0.120326
C84   C     C_R   0.229020 0.879239 0.863279 -0.092202
C85   C     C_R   0.248443 0.851700 0.822507 -0.098025
C86   C     C_R   0.329472 0.857842 0.806898 0.031997
C87   C     C_1   0.340911 0.842093 0.764153 -0.000142
C88   C     C_1   0.347609 0.830367 0.728125 0.034351
C89   C     C_R   0.264557 0.442238 0.331116 -0.108802
C90   C     C_R   0.290197 0.913911 0.888803 0.024524
C91   C     C_R   0.962017 0.264578 0.045222 0.541301
C92   C     C_R   0.273083 0.259193 0.060077 0.565951
C93   C     C_R   0.259639 0.959130 0.043701 0.570398
C94   C     C_R   0.963153 0.267190 0.930448 0.584964
C95   C     C_R   0.270762 0.264410 0.945409 0.534385
C96   C     C_R   0.256057 0.965007 0.928966 0.555798
Cr1   Cr    Cr6+3 0.576280 0.580550 0.506370 1.066965
Cr2   Cr    Cr6+3 0.346780 0.572400 0.496520 1.008525
Cr3   Cr    Cr6+3 0.576960 0.347070 0.497150 1.057622
Cr4   Cr    Cr6+3 0.087320 0.083240 0.984860 1.068971
Cr5   Cr    Cr6+3 0.087720 0.316210 0.996740 1.051458
Cr6   Cr    Cr6+3 0.317350 0.090340 0.995890 1.030277
H1    H     H_    0.420831 0.137580 0.114275 0.138656
H2    H     H_    0.855340 0.446802 0.086867 0.135009
H3    H     H_    0.820384 0.481603 0.340002 0.153665
H4    H     H_    0.824398 0.186669 0.332938 0.132344
H5    H     H_    0.880621 0.149653 0.153248 0.163455
H6    H     H_    0.220727 0.759481 0.393817 0.143806
H7    H     H_    0.431800 0.169946 0.187128 0.129220
H8    H     H_    0.204352 0.804911 0.324784 0.147580
H9    H     H_    0.498112 0.806749 0.343042 0.147891
H10   H     H_    0.240680 0.770934 0.143586 0.131262
H11   H     H_    0.413133 0.954357 0.097271 0.137702
H12   H     H_    0.451051 0.898521 0.165568 0.145859
H13   H     H_    0.233195 0.519784 0.586503 0.131310
H14   H     H_    0.491098 0.211258 0.589418 0.119025
H15   H     H_    0.120127 0.394341 0.895738 0.171062
H16   H     H_    0.450708 0.195166 0.656228 0.139281
H17   H     H_    0.443826 0.190082 0.312983 0.114986
H18   H     H_    0.936615 0.141434 0.798522 0.130650
H19   H     H_    0.747350 0.531070 0.620098 0.196489
H20   H     H_    0.794162 0.470644 0.820100 0.136712
H21   H     H_    0.481488 0.206068 0.386247 0.109414
H22   H     H_    0.423776 0.940372 0.892105 0.148301
H23   H     H_    0.457658 0.890921 0.820649 0.128673
H24   H     H_    0.510068 0.790615 0.687373 0.144686
H25   H     H_    0.218384 0.780211 0.601029 0.141078
H26   H     H_    0.197791 0.829538 0.802835 0.130733
H27   H     H_    0.163050 0.878304 0.874269 0.149013
H28   H     H_    0.243289 0.526649 0.388389 0.132223
H29   H     H_    0.184728 0.481349 0.176924 0.114280
H30   H     H_    0.205925 0.509082 0.315636 0.115871
H31   H     H_    0.767476 0.515778 0.408254 0.166241
N1    N     N_R   0.847478 0.392033 0.229379 -0.166096
N2    N     N_R   0.268638 0.434237 0.728768 -0.179488
N3    N     N_R   0.353161 0.253440 0.721571 -0.246839
N4    N     N_R   0.350224 0.249450 0.761099 -0.215994
N5    N     N_R   0.844576 0.395820 0.269258 -0.230165
N6    N     N_R   0.825416 0.246697 0.262977 -0.232494
N7    N     N_R   0.828337 0.242947 0.222996 -0.242194
N8    N     N_R   0.281085 0.801790 0.218933 -0.233231
N9    N     N_R   0.280866 0.798002 0.258597 -0.226696
N10   N     N_R   0.421037 0.832340 0.269183 -0.231951
N11   N     N_R   0.421038 0.836464 0.229466 -0.222263
N12   N     N_R   0.265749 0.430414 0.768268 -0.222050
O1    O     O_R   0.679450 0.499830 0.463150 -0.515660
O2    O     O_R   0.356040 0.477400 0.534170 -0.502996
O3    O     O_R   0.495910 0.323070 0.537100 -0.530455
O4    O     O_R   0.663920 0.359620 0.542290 -0.459459
O5    O     O_3   0.500010 0.500010 0.500010 -0.261311
O6    O     O_R   0.170070 0.978950 0.027680 -0.446559
O7    O     O_R   0.001760 0.175230 0.026640 -0.487224
O8    O     O_R   0.984760 0.333570 0.037150 -0.527672
O9    O     O_R   0.183410 0.309240 0.041890 -0.455547
O10   O     O_R   0.340240 0.172500 0.045430 -0.532886
O11   O     O_R   0.309670 0.000990 0.032050 -0.522049
O12   O     O_R   0.480650 0.664000 0.464630 -0.451108
O13   O     O_R   0.168330 0.982130 0.939200 -0.487371
O14   O     O_R   0.000140 0.178170 0.944610 -0.467457
O15   O     O_R   0.983010 0.336750 0.948660 -0.479629
O16   O     O_R   0.181800 0.312190 0.959860 -0.504501
O17   O     O_R   0.338500 0.175680 0.956950 -0.491890
O18   O     O_R   0.308050 0.003930 0.950020 -0.503128
O19   O     O_3   0.164130 0.163270 0.992500 -0.263917
O20   O     O_R   0.323930 0.675950 0.455370 -0.532099
O21   O     O_R   0.354700 0.475360 0.451930 -0.503135
O22   O     O_R   0.494470 0.320860 0.448390 -0.517780
O23   O     O_R   0.662580 0.357570 0.460050 -0.445775
O24   O     O_R   0.680900 0.502040 0.551870 -0.507962
O25   O     O_R   0.481990 0.666040 0.546870 -0.449495
O26   O     O_R   0.325370 0.678160 0.544080 -0.532685
O27   O     O_3   0.767772 0.204774 0.408331 -0.545732
C97   C     C_3   0.700791 0.173293 0.384901 -0.098306
H32   H     H_    0.631525 0.239457 0.370992 0.120901
H33   H     H_    0.672467 0.138473 0.405057 0.145709
H34   H     H_    0.743201 0.112522 0.361307 0.109072
O28   O     O_3   0.788427 0.493880 0.161146 -0.526437
C98   C     C_3   0.855358 0.538017 0.163887 -0.102332
H35   H     H_    0.849878 0.572755 0.135151 0.094827
H36   H     H_    0.937243 0.481390 0.172607 0.103998
H37   H     H_    0.829814 0.601688 0.187881 0.160706
O29   O     O_3   0.923093 0.107472 0.078875 -0.703513
H38   H     H_    0.893177 0.120498 0.050629 0.338922
O30   O     O_3   0.533960 0.760329 0.418208 -0.549616
C99   C     C_3   0.513318 0.854677 0.440027 -0.114820
H39   H     H_    0.449530 0.879165 0.460462 0.108979
H40   H     H_    0.494598 0.916760 0.419301 0.108370
H41   H     H_    0.583937 0.843583 0.459246 0.135926
O31   O     O_3   0.184630 0.825283 0.066312 -0.541283
C100  C     C_3   0.093632 0.845334 0.084130 -0.077811
H42   H     H_    0.065000 0.915691 0.105297 0.157500
H43   H     H_    0.106447 0.776772 0.099698 0.117937
H44   H     H_    0.031556 0.859200 0.059715 0.162781
O32   O     O_3   0.172151 0.521730 0.658733 -0.572680
C101  C     C_3   0.180595 0.613726 0.663513 -0.070647
H45   H     H_    0.158658 0.652812 0.634607 0.122069
H46   H     H_    0.259556 0.599911 0.675596 0.144499
H47   H     H_    0.125252 0.667603 0.685737 0.178773
O33   O     O_3   0.108454 0.430437 0.822341 -0.705800
H48   H     H_    0.118497 0.415169 0.793084 0.346892
O34   O     O_3   0.475504 0.213839 0.917320 -0.626549
H49   H     H_    0.461322 0.235015 0.946145 0.328218
O35   O     O_3   0.490305 0.240762 0.840488 -0.633804
H50   H     H_    0.486807 0.271538 0.815012 0.329950
O36   O     O_3   0.989878 0.095893 0.873932 -0.550120
C102  C     C_3   0.920305 0.055918 0.874463 -0.094734
H51   H     H_    0.888807 0.045804 0.843366 0.117635
H52   H     H_    0.855934 0.105781 0.894274 0.135580
H53   H     H_    0.962965 0.978468 0.887094 0.137326
O37   O     O_3   0.863388 0.158697 0.667310 -0.717806
H54   H     H_    0.898537 0.150163 0.694798 0.312304
O38   O     O_3   0.787714 0.204134 0.588380 -0.524209
C103  C     C_3   0.705623 0.186672 0.596690 -0.052031
H55   H     H_    0.634009 0.259951 0.603801 0.116285
H56   H     H_    0.729387 0.134158 0.621759 0.162631
H57   H     H_    0.685984 0.147772 0.569397 0.130310
O39   O     O_3   0.830278 0.468840 0.901486 -0.546595
C104  C     C_3   0.855372 0.542657 0.889468 -0.093489
H58   H     H_    0.793292 0.594939 0.868076 0.122027
H59   H     H_    0.932101 0.506331 0.876126 0.147322
H60   H     H_    0.859780 0.591178 0.916646 0.146427
O40   O     O_3   0.806488 0.511858 0.696408 -0.553073
C105  C     C_3   0.903753 0.508373 0.696338 -0.088522
H61   H     H_    0.916954 0.523155 0.665961 0.134174
H62   H     H_    0.967948 0.433067 0.706444 0.131017
H63   H     H_    0.905119 0.570233 0.718041 0.160432
O41   O     O_3   0.551567 0.733641 0.611712 -0.539099
C106  C     C_3   0.554511 0.822849 0.602043 -0.108686
H64   H     H_    0.549940 0.874519 0.629515 0.111520
H65   H     H_    0.491526 0.865887 0.578827 0.105361
H66   H     H_    0.629549 0.798500 0.589041 0.137098
O42   O     O_3   0.179227 0.837744 0.677370 -0.593695
C107  C     C_3   0.098579 0.934089 0.665267 -0.104158
H67   H     H_    0.077350 0.931476 0.632224 0.137587
H68   H     H_    0.119175 0.997340 0.673812 0.134456
H69   H     H_    0.028966 0.952599 0.681221 0.166865
O43   O     O_3   0.158026 0.467521 0.095817 -0.547814
C108  C     C_3   0.055131 0.502141 0.105338 -0.106493
H70   H     H_    0.039377 0.436569 0.108373 0.119303
H71   H     H_    0.001892 0.547534 0.080249 0.145559
H72   H     H_    0.036941 0.554432 0.133208 0.090152

loop_
_geom_bond_atom_site_label_1
_geom_bond_atom_site_label_2
_ccdc_geom_bond_type
C7    C13   A    
C66   C68   A    
Cr3   O3    S    
C93   O11   A    
C100  H42   S    
C55   C59   A    
C56   O24   A    
C45   O3    A    
O34   H49   S    
C74   C94   S    
C47   O32   S    
C36   C42   S    
C105  H61   S    
C102  H53   S    
C41   H12   S    
C87   C88   T    
C12   O22   A    
C106  H65   S    
C98   H35   S    
C57   C58   A    
C105  H63   S    
C7    C8    A    
C31   C32   A    
O36   C102  S    
Cr4   O7    S    
C25   C28   A    
Cr3   O4    S    
C108  H72   S    
C26   C27   A    
C94   O14   A    
C89   H30   S    
C80   H24   S    
C46   H13   S    
C69   O39   S    
C5    C6    A    
C91   O8    A    
C95   O16   A    
C12   O21   A    
C91   O7    A    
C39   O31   S    
C102  H52   S    
C103  H57   S    
Cr2   O2    S    
C51   N12   A    
C68   C74   A    
C15   C16   A    
C55   O34   S    
C84   H27   S    
Cr1   O24   S    
O30   C99   S    
C61   H19   S    
C18   C19   A    
C41   C42   A    
C83   C90   A    
O41   C106  S    
O29   H38   S    
C79   C88   S    
C65   O38   S    
C100  H44   S    
C43   C93   S    
C108  H70   S    
C84   C85   A    
C40   C43   A    
C49   H16   S    
Cr5   O15   S    
C98   H37   S    
C16   C17   A    
N2    N12   A    
C100  H43   S    
Cr1   O5    S    
C70   C71   A    
C33   H9    S    
Cr5   O8    S    
C83   H22   S    
C92   O10   A    
C29   C30   A    
C81   O41   S    
C9    C10   S    
C61   C62   A    
C34   O25   A    
C34   C75   S    
C72   C73   T    
C101  H47   S    
C97   H33   S    
O32   C101  S    
O33   H48   S    
C78   C89   A    
C66   H18   S    
O43   C108  S    
C64   O37   S    
O31   C100  S    
C67   C78   A    
C59   C95   S    
C21   N5    A    
C22   O28   S    
C2    C11   S    
C106  H64   S    
C12   C67   S    
C44   C46   A    
Cr3   O22   S    
C54   C59   A    
C103  H56   S    
Cr4   O6    S    
Cr3   O5    S    
C108  H71   S    
C32   C37   S    
C37   N9    A    
Cr6   O18   S    
C53   O33   S    
C47   C48   A    
C7    O43   S    
C76   C77   A    
Cr1   O1    S    
C95   O17   A    
C86   C87   S    
C8    C9    A    
C99   H41   S    
C39   C43   A    
C63   C73   S    
C25   C26   A    
C85   C86   A    
C82   C83   A    
C40   H11   S    
C17   C21   S    
Cr1   O25   S    
C101  H45   S    
C4    H21   S    
C60   C61   A    
C24   H2    S    
Cr1   O12   S    
C14   C23   S    
C2    C89   A    
C75   C76   A    
C18   H4    S    
C82   H23   S    
C5    C9    A    
C62   C63   A    
C23   O23   A    
C70   H20   S    
C104  H59   S    
C66   C71   A    
C1    O20   A    
C30   C31   A    
Cr6   O17   S    
C57   O35   S    
C8    H29   S    
C1    C29   S    
C17   C18   A    
C77   C79   A    
C69   C74   A    
Cr4   O19   S    
C51   C58   S    
C6    H1    S    
C19   O27   S    
C107  H68   S    
Cr2   O21   S    
C3    H17   S    
C16   H3    S    
Cr2   O26   S    
C51   N4    A    
C40   C41   A    
O39   C104  S    
C60   C65   A    
O28   C98   S    
C22   C27   A    
C55   C57   A    
C13   C92   S    
C23   O1    A    
C52   N3    A    
C49   C50   A    
C22   C24   A    
C79   C80   A    
C93   O6    A    
C96   O13   A    
C21   N6    A    
C53   C54   A    
C3    C4    A    
Cr6   O11   S    
O27   C97   S    
N6    N7    A    
C104  H60   S    
Cr3   O23   S    
Cr2   O5    S    
C97   H34   S    
C44   C50   A    
C76   H25   S    
C36   N8    A    
C46   C47   A    
C48   C49   A    
C77   O42   S    
C94   O15   A    
C37   N10   A    
C30   H6    S    
C45   O2    A    
C14   C19   A    
Cr5   O19   S    
C75   C81   A    
C44   C45   S    
C24   C28   A    
C80   C81   A    
C26   H5    S    
N1    N5    A    
C4    C67   A    
C98   H36   S    
C53   C58   A    
C105  H62   S    
C90   C96   S    
C15   H31   S    
C20   C27   S    
C29   C35   A    
C99   H39   S    
C96   O18   A    
C64   C65   A    
C20   N7    A    
Cr5   O16   S    
C2    C3    A    
C35   O30   S    
C71   C72   S    
C82   C86   A    
N8    N9    A    
C32   C33   A    
C6    C13   A    
Cr4   O14   S    
C104  H58   S    
C38   C39   A    
C5    H7    S    
Cr5   O9    S    
C103  H55   S    
C1    O12   A    
O42   C107  S    
C33   C35   A    
C31   H8    S    
C28   C91   S    
C50   H14   S    
C62   O40   S    
C78   H28   S    
C69   C70   A    
O40   C105  S    
C107  H69   S    
C102  H51   S    
Cr2   O20   S    
C99   H40   S    
C10   C11   T    
C84   C90   A    
C97   H32   S    
C63   C64   A    
C38   C42   A    
Cr4   O13   S    
C48   C52   S    
C56   C60   S    
O38   C103  S    
Cr6   O19   S    
O37   H54   S    
C54   H15   S    
C68   O36   S    
C52   N2    A    
C14   C15   A    
N3    N4    A    
C85   H26   S    
C92   O9    A    
O35   H50   S    
C20   N1    A    
C56   O4    A    
C36   N11   A    
C38   H10   S    
Cr6   O10   S    
C106  H66   S    
C34   O26   A    
N10   N11   A    
C107  H67   S    
C101  H46   S    
C25   O29   S    
