data_mof_unit_29656.cif
_audit_creation_date              2012-12-10T16:45:21-0500
_audit_creation_method            fapswitch 2.2
_symmetry_space_group_name_H-M    P1
_symmetry_Int_Tables_number       1
_space_group_crystal_system       triclinic
_cell_length_a                    7.590735
_cell_length_b                    8.718793
_cell_length_c                    15.822846
_cell_angle_alpha                 97.461981
_cell_angle_beta                  75.234291
_cell_angle_gamma                 103.942702
_cell_volume                      980.153731412

loop_
_atom_site_label
_atom_site_type_symbol
_atom_type_description
_atom_site_fract_x
_atom_site_fract_y
_atom_site_fract_z
_atom_type_partial_charge
C1    C     C_R   0.545424 0.800016 0.502907 0.867613
C2    C     C_R   0.454586 0.199984 0.497079 0.867448
C3    C     C_R   0.277988 0.421476 0.079060 -0.230338
C4    C     C_R   0.711107 0.622821 0.927767 -0.232466
C5    C     C_R   0.151119 0.386595 0.026224 -0.226496
C6    C     C_R   0.837183 0.660440 0.981035 -0.225622
C7    C     C_2   0.569424 0.968963 0.504530 -0.364922
C8    C     C_2   0.430607 0.031032 0.495430 -0.365070
C9    C     C_R   0.385807 0.489276 0.665744 0.775035
C10   C     C_R   0.614293 0.511813 0.334380 0.774343
C11   C     C_R   0.318120 0.476423 0.760730 -0.047738
C12   C     C_R   0.682133 0.533351 0.240289 -0.048087
C13   C     C_R   0.076342 0.383361 0.886616 -0.188287
C14   C     C_R   0.915251 0.654555 0.118952 -0.190283
C15   C     C_R   0.131220 0.411256 0.798054 -0.205070
C16   C     C_R   0.864149 0.614497 0.205565 -0.207385
C17   C     C_R   0.447191 0.520579 0.813622 -0.256201
C18   C     C_R   0.554643 0.486769 0.186782 -0.252692
C19   C     C_R   0.395153 0.496177 0.903533 0.086258
C20   C     C_R   0.600139 0.530500 0.100085 0.085232
C21   C     C_R   0.207048 0.422463 0.939046 0.152987
C22   C     C_R   0.784735 0.614699 0.066395 0.150622
C23   C     C_R   0.525534 0.537927 0.958187 0.061788
C24   C     C_R   0.467469 0.495171 0.046631 0.063722
Cu1   Cu    Cu3+1 0.322120 0.483240 0.490330 0.927411
Cu2   Cu    Cu3+1 0.677880 0.516760 0.509670 0.926529
H1    H     H_    0.007453 0.330492 0.054022 0.155469
H2    H     H_    0.977577 0.725976 0.954944 0.152880
H3    H     H_    0.419566 0.417890 0.215427 0.142372
H4    H     H_    0.589481 0.568643 0.781990 0.146867
H5    H     H_    0.964707 0.651640 0.246010 0.153451
H6    H     H_    0.029214 0.376363 0.758306 0.151222
H7    H     H_    0.931950 0.328754 0.913929 0.146566
H8    H     H_    0.056304 0.719156 0.093364 0.146720
H9    H     H_    0.220395 0.391256 0.145793 0.143259
H10   H     H_    0.763780 0.666136 0.863453 0.143528
H11   H     H_    0.701926 0.042505 0.513450 0.176076
H12   H     H_    0.298109 0.957489 0.486505 0.176102
N1    N     N_2   0.945180 0.542040 0.524240 -0.072272
N2    N     N_2   0.054820 0.457960 0.475760 -0.072131
O1    O     O_R   0.384450 0.714270 0.493720 -0.593077
O2    O     O_R   0.615550 0.285730 0.506280 -0.593040
O3    O     O_R   0.684880 0.742590 0.510050 -0.580584
O4    O     O_R   0.315120 0.257410 0.489950 -0.580326
O5    O     O_R   0.265540 0.477900 0.617090 -0.619557
O6    O     O_R   0.734460 0.522100 0.382910 -0.620377
O7    O     O_R   0.565970 0.506210 0.633420 -0.583969
O8    O     O_R   0.434030 0.493790 0.366580 -0.582157
C25   C     C_3   0.985437 0.623132 0.606114 -0.044609
C26   C     C_3   0.917477 0.777923 0.630009 -0.853747
H13   H     H_    0.966993 0.853235 0.573538 0.253656
H14   H     H_    0.764344 0.758223 0.653342 0.269541
H15   H     H_    0.976546 0.844850 0.684875 0.196332
H16   H     H_    0.922756 0.543198 0.660257 0.146610
H17   H     H_    0.133041 0.665121 0.601697 0.214306
C27   C     C_3   0.014560 0.376935 0.393870 -0.044595
C28   C     C_3   0.082584 0.222165 0.369930 -0.853982
H18   H     H_    0.235728 0.241871 0.346652 0.269133
H19   H     H_    0.033035 0.146772 0.426374 0.253522
H20   H     H_    0.023582 0.155295 0.315033 0.196703
H21   H     H_    0.866952 0.334846 0.398336 0.214127
H22   H     H_    0.077007 0.456953 0.339733 0.147648

loop_
_geom_bond_atom_site_label_1
_geom_bond_atom_site_label_2
_ccdc_geom_bond_type
C14   H8    S    
C19   C23   A    
C23   C24   A    
C4    H10   S    
C9    O5    A    
C6    H2    S    
N2    C27   S    
C26   H14   S    
C3    H9    S    
C27   H22   S    
C25   H17   S    
C14   C22   A    
C26   H13   S    
C7    H11   S    
C13   C21   A    
C7    C8    D    
C18   H3    S    
C1    C7    S    
C2    O4    A    
C16   H5    S    
C13   H7    S    
C17   H4    S    
C9    C11   S    
Cu1   O8    S    
C28   H18   S    
C8    H12   S    
Cu2   O7    S    
C2    O2    A    
C10   C12   S    
Cu1   O4    S    
C1    O1    A    
C19   C21   A    
C20   C22   A    
Cu2   O3    S    
C9    O7    A    
C18   C20   A    
C13   C15   A    
Cu1   N2    S    
C10   O8    A    
C14   C16   A    
Cu2   N1    S    
C28   H19   S    
C26   H15   S    
Cu2   O6    S    
Cu1   O1    S    
C25   H16   S    
C6    C22   A    
C17   C19   A    
Cu1   O5    S    
C10   O6    A    
C15   H6    S    
C5    C21   A    
C27   C28   S    
Cu2   O2    S    
C4    C6    A    
C25   C26   S    
C12   C18   A    
N1    N2    D    
C4    C23   A    
C20   C24   A    
C27   H21   S    
C11   C17   A    
C28   H20   S    
N1    C25   S    
Cu1   Cu2   S    
C5    H1    S    
C11   C15   A    
C1    O3    A    
C2    C8    S    
C12   C16   A    
C3    C24   A    
C3    C5    A    
