data_mof_unit_65288.cif
_audit_creation_date              2012-10-26T17:14:08-0400
_audit_creation_method            fapswitch 2.2
_symmetry_space_group_name_H-M    P1
_symmetry_Int_Tables_number       1
_space_group_crystal_system       triclinic
_cell_length_a                    19.124782
_cell_length_b                    18.917525
_cell_length_c                    19.097805
_cell_angle_alpha                 109.398084
_cell_angle_beta                  110.061698
_cell_angle_gamma                 109.634119
_cell_volume                      5273.64563041

loop_
_atom_site_label
_atom_site_type_symbol
_atom_type_description
_atom_site_fract_x
_atom_site_fract_y
_atom_site_fract_z
_atom_type_partial_charge
C1    C     C_R   0.385099 0.381774 0.501762 0.631894
C2    C     C_R   0.601335 0.327585 0.607173 0.297011
C3    C     C_2   0.260741 0.247974 0.574301 -0.086510
C4    C     C_R   0.614704 0.496226 0.617638 0.641135
C5    C     C_2   0.180765 0.191970 0.505770 -0.114004
C6    C     C_2   0.321151 0.321540 0.574856 0.355923
C7    C     C_2   0.324687 0.311446 0.503255 0.370977
C8    C     C_2   0.176588 0.496169 0.250028 0.357452
C9    C     C_2   0.184487 0.508329 0.187098 -0.067085
C10   C     C_2   0.250343 0.508536 0.322558 -0.116431
C11   C     C_2   0.309333 0.490586 0.311870 -0.153163
C12   C     C_R   0.755946 0.575195 0.752683 -0.084949
C13   C     C_2   0.746934 0.824353 0.502710 0.355236
C14   C     C_2   0.818631 0.823059 0.509011 -0.067606
C15   C     C_2   0.686521 0.762804 0.514362 -0.101770
C16   C     C_R   0.613868 0.617634 0.496657 0.584944
C17   C     C_2   0.673478 0.682123 0.488409 -0.156516
C18   C     C_R   0.992531 0.382108 0.875852 0.555690
C19   C     C_R   0.878860 0.500787 0.879962 0.530819
C20   C     C_R   0.000742 0.617999 0.117207 0.547459
C21   C     C_R   0.115401 0.502204 0.116918 0.584137
C22   C     C_R   0.999649 0.117157 0.617319 0.555032
C23   C     C_R   0.811463 0.498495 0.812477 0.018940
C24   C     C_R   0.117188 0.119880 0.502295 0.533307
C25   C     C_R   0.000327 0.882981 0.382759 0.543133
C26   C     C_R   0.882764 0.884894 0.502475 0.574817
C27   C     C_2   0.995196 0.249302 0.677564 -0.130579
C28   C     C_R   0.380017 0.497701 0.381280 0.549684
C29   C     C_2   0.004212 0.185042 0.687187 0.229628
C30   C     C_2   0.012087 0.326749 0.750798 0.275046
C31   C     C_2   0.979516 0.313125 0.800421 -0.028286
C32   C     C_2   0.993906 0.746212 0.313809 -0.116250
C33   C     C_2   0.998198 0.818263 0.312677 0.262852
C34   C     C_R   0.745168 0.417780 0.737207 -0.017693
C35   C     C_2   0.979294 0.672854 0.239554 -0.108741
C36   C     C_2   0.014625 0.687179 0.192551 -0.057296
C37   C     C_R   0.777296 0.655916 0.754452 0.252595
C38   C     C_R   0.837187 0.734580 0.832685 0.453239
C39   C     C_R   0.882728 0.734393 0.907010 0.386509
C40   C     C_R   0.873454 0.656377 0.901944 -0.137416
C41   C     C_R   0.813394 0.576405 0.823190 -0.107630
C42   C     C_3   0.803464 0.647512 0.646280 -0.090251
C43   C     C_3   0.983724 0.116875 0.763961 -0.093540
C44   C     C_3   0.113258 0.422332 0.736835 -0.088952
C45   C     C_R   0.674262 0.413203 0.674619 0.018855
C46   C     C_3   0.039443 0.900913 0.253716 -0.078681
C47   C     C_3   0.497886 0.250496 0.461571 -0.058467
C48   C     C_R   0.681699 0.494247 0.682282 0.005187
C49   C     C_R   0.748310 0.340980 0.724378 -0.105846
C50   C     C_R   0.677231 0.259953 0.661312 -0.161918
C51   C     C_R   0.603122 0.253224 0.606433 -0.094012
Cu1   Cu    Cu3+1 0.500390 0.438990 0.439360 0.978347
Cu2   Cu    Cu3+1 0.499610 0.561010 0.560640 1.078606
Cu3   Cu    Cu3+1 0.935830 0.439030 0.996840 1.022022
Cu4   Cu    Cu3+1 0.057850 0.561040 0.996790 1.013929
Cu5   Cu    Cu3+1 0.061410 0.000010 0.561410 0.970493
Cu6   Cu    Cu3+1 0.938590 0.999990 0.438590 1.032738
F1    F     F_    0.377043 0.398336 0.650848 -0.626667
F2    F     F_    0.279636 0.230843 0.431798 -0.671576
F3    F     F_    0.102474 0.478975 0.251986 -0.602207
F4    F     F_    0.731992 0.886478 0.491965 -0.609232
F5    F     F_    0.854371 0.811308 0.835117 -0.557370
F6    F     F_    0.940901 0.810474 0.982803 -0.581272
H1    H     H_    0.547351 0.188677 0.560313 0.118908
H2    H     H_    0.937932 0.247139 0.783177 0.091124
H3    H     H_    0.995203 0.738147 0.367915 0.102182
H4    H     H_    0.941075 0.607147 0.225149 0.155795
H5    H     H_    0.060259 0.752954 0.212868 0.148420
H6    H     H_    0.913627 0.659356 0.960086 0.175341
H7    H     H_    0.805164 0.342093 0.764141 0.143050
H8    H     H_    0.679242 0.201892 0.655730 0.133237
H9    H     H_    0.280427 0.242989 0.632173 0.159562
H10   H     H_    0.791557 0.580001 0.622687 0.108224
H11   H     H_    0.873213 0.695421 0.694946 0.134248
H12   H     H_    0.158372 0.203248 0.452207 0.162671
H13   H     H_    0.788608 0.658157 0.590733 0.131506
H14   H     H_    0.998324 0.065094 0.738730 0.163014
H15   H     H_    0.913557 0.092655 0.724415 0.116773
H16   H     H_    0.998024 0.131793 0.830249 0.160981
H17   H     H_    0.080051 0.391214 0.665346 0.117393
H18   H     H_    0.156422 0.397876 0.760630 0.139068
H19   H     H_    0.154787 0.493020 0.764067 0.157032
H20   H     H_    0.107010 0.918792 0.295662 0.097917
H21   H     H_    0.027488 0.953737 0.282971 0.160423
H22   H     H_    0.032595 0.894763 0.191572 0.199783
H23   H     H_    0.246784 0.531745 0.191224 0.050533
H24   H     H_    0.449845 0.186347 0.446258 0.134526
H25   H     H_    0.551556 0.246695 0.452888 0.082780
H26   H     H_    0.465319 0.264909 0.412645 0.178712
H27   H     H_    0.253193 0.527909 0.384225 0.170983
H28   H     H_    0.301648 0.462516 0.248162 0.109266
H29   H     H_    0.835560 0.780400 0.528169 0.039350
H30   H     H_    0.649838 0.782706 0.540648 0.171273
H31   H     H_    0.703877 0.659878 0.454330 0.089471
H32   H     H_    0.980269 0.247960 0.616718 0.097913
O1    O     O_R   0.411310 0.359450 0.448800 -0.483553
O2    O     O_R   0.947570 0.089010 0.536620 -0.521562
O3    O     O_R   0.140880 0.089030 0.551840 -0.501832
O4    O     O_R   0.410660 0.462490 0.551220 -0.490571
O5    O     O_R   0.037150 0.089020 0.448130 -0.515516
O6    O     O_R   0.052430 0.910990 0.463380 -0.533019
O7    O     O_R   0.948700 0.910980 0.359670 -0.485813
O8    O     O_R   0.962850 0.910980 0.551870 -0.529945
O9    O     O_R   0.859120 0.910970 0.448160 -0.441957
O10   O     O_R   0.589930 0.448490 0.538390 -0.495874
O11   O     O_R   0.589280 0.551530 0.640800 -0.459571
O12   O     O_R   0.048900 0.462510 0.908320 -0.445080
O13   O     O_R   0.589340 0.537510 0.448780 -0.520553
O14   O     O_R   0.588690 0.640550 0.551200 -0.467827
O15   O     O_R   0.410720 0.448470 0.359200 -0.508048
O16   O     O_R   0.410070 0.551510 0.461610 -0.519200
O17   O     O_R   0.945860 0.359480 0.908360 -0.538156
O18   O     O_3   0.749873 0.659261 0.679256 -0.514910
O19   O     O_3   0.036529 0.193527 0.768692 -0.577070
O20   O     O_3   0.052763 0.410646 0.764476 -0.544988
O21   O     O_3   0.978156 0.820609 0.236456 -0.560270
O22   O     O_3   0.526744 0.315845 0.545596 -0.545574
O23   O     O_R   0.855710 0.448510 0.907250 -0.517362
O24   O     O_R   0.958760 0.551540 0.907200 -0.510091
O25   O     O_R   0.944780 0.537560 0.085320 -0.495435
O26   O     O_R   0.047820 0.640590 0.085270 -0.518077
O27   O     O_R   0.034920 0.448530 0.086440 -0.438796
O28   O     O_R   0.137970 0.551560 0.086390 -0.524297
O29   O     O_R   0.051300 0.089020 0.640330 -0.492227

loop_
_geom_bond_atom_site_label_1
_geom_bond_atom_site_label_2
_ccdc_geom_bond_type
C29   O19   S    
Cu4   O26   S    
C5    H12   S    
C22   C29   S    
Cu3   O25   S    
C27   C29   D    
C6    F1    S    
C27   H32   S    
C35   C36   D    
Cu5   O3    S    
C12   C48   A    
C3    C6    S    
C9    C21   S    
C1    O4    A    
Cu4   O24   S    
Cu2   O4    S    
C43   H15   S    
Cu6   O7    S    
C37   C38   A    
C24   O3    A    
Cu5   O29   S    
C18   O17   A    
Cu5   O6    S    
C44   H19   S    
C43   O19   S    
C30   C31   D    
C26   O8    A    
C25   O7    A    
C37   O18   S    
C43   H16   S    
C12   C37   A    
Cu5   Cu6   S    
C15   C17   D    
C21   O27   A    
C18   O12   A    
C26   O9    A    
Cu2   O11   S    
C44   O20   S    
C8    C9    D    
C34   C49   A    
C35   H4    S    
C46   H22   S    
Cu2   O16   S    
Cu3   O27   S    
C19   O24   A    
C2    C45   A    
C22   O2    A    
C24   O5    A    
C13   C14   D    
C27   C30   S    
C47   H26   S    
C7    F2    S    
C2    O22   S    
C16   O14   A    
C30   O20   S    
C28   O16   A    
Cu4   O28   S    
C42   H11   S    
C40   H6    S    
C32   C35   S    
C44   H17   S    
C19   O23   A    
C44   H18   S    
C10   C11   D    
C39   C40   A    
C16   C17   S    
C28   O15   A    
Cu6   O5    S    
C4    O11   A    
Cu4   O12   S    
C47   H24   S    
C21   O28   A    
C19   C23   S    
C50   H8    S    
C12   C41   A    
C9    H23   S    
C42   O18   S    
Cu1   O15   S    
C23   C34   A    
Cu6   O2    S    
C50   C51   A    
Cu3   O17   S    
C34   C45   A    
C14   C26   S    
C14   H29   S    
C20   O26   A    
C46   H21   S    
C40   C41   A    
Cu1   O10   S    
C49   H7    S    
C13   C15   S    
C20   O25   A    
Cu1   Cu2   S    
C32   H3    S    
C4    C48   S    
C45   C48   A    
Cu2   O14   S    
C31   H2    S    
Cu6   O9    S    
Cu3   Cu4   S    
C33   O21   S    
C1    C7    S    
C51   H1    S    
Cu5   O8    S    
C3    C5    D    
C15   H30   S    
C36   H5    S    
C22   O29   A    
C6    C7    D    
C18   C31   S    
C43   H14   S    
C39   F6    S    
C4    O10   A    
C42   H13   S    
C23   C41   A    
C46   O21   S    
C32   C33   D    
Cu3   O23   S    
C3    H9    S    
C47   H25   S    
C25   O6    A    
C38   C39   A    
C5    C24   S    
C11   C28   S    
C1    O1    A    
C42   H10   S    
Cu1   O1    S    
C2    C51   A    
C16   O13   A    
C46   H20   S    
C20   C36   S    
C11   H28   S    
C47   O22   S    
C13   F4    S    
C10   H27   S    
C8    C10   S    
C49   C50   A    
Cu1   O13   S    
C17   H31   S    
C8    F3    S    
C25   C33   S    
C38   F5    S    
