data_mof_unit_67946.cif
_audit_creation_date              2013-03-05T16:22:15-0500
_audit_creation_method            fapswitch 2.2
_symmetry_space_group_name_H-M    P1
_symmetry_Int_Tables_number       1
_space_group_crystal_system       triclinic
_cell_length_a                    10.565087
_cell_length_b                    10.535632
_cell_length_c                    9.889463
_cell_angle_alpha                 90.056518
_cell_angle_beta                  89.172848
_cell_angle_gamma                 88.62509
_cell_volume                      1100.36224794

loop_
_atom_site_label
_atom_site_type_symbol
_atom_site_description
_atom_site_fract_x
_atom_site_fract_y
_atom_site_fract_z
_atom_type_partial_charge
O1    O     O_R   0.500010 0.313960 0.616610 -0.612817
O2    O     O_R   0.499990 0.686040 0.383390 -0.617727
O3    O     O_R   0.500060 0.313950 0.383350 -0.600459
O4    O     O_R   0.499940 0.686050 0.616650 -0.598210
C1    C     C_R   0.500725 0.257908 0.500183 0.951979
C2    C     C_R   0.499604 0.742007 0.499812 0.950496
O5    O     O_R   0.313930 0.499970 0.616610 -0.593644
O6    O     O_R   0.686070 0.500030 0.383390 -0.601041
O7    O     O_R   0.313980 0.499960 0.383350 -0.579698
O8    O     O_R   0.686020 0.500040 0.616650 -0.567763
C3    C     C_R   0.257873 0.503216 0.501109 0.996118
C4    C     C_R   0.741948 0.498821 0.499022 0.987727
Zn1   Zn    Zn3+2 0.499970 0.500010 0.655740 1.039287
Zn2   Zn    Zn3+2 0.500030 0.499990 0.344260 1.035597
C5    C     C_3   0.037711 0.491680 0.631330 -0.287048
C6    C     C_3   0.961577 0.513344 0.369507 -0.324582
C7    C     C_3   0.962949 0.391803 0.552877 -0.090197
C8    C     C_3   0.036314 0.613708 0.447395 -0.111384
H1    H     H_    0.072850 0.489114 0.736117 0.220610
H2    H     H_    0.924460 0.517334 0.265905 0.219212
C9    C     C_3   0.877121 0.498194 0.497200 -0.178024
C10   C     C_3   0.122247 0.507033 0.503723 -0.169297
C11   C     C_3   0.951111 0.598260 0.573575 0.447743
C12   C     C_3   0.047816 0.407914 0.427943 0.456522
C13   C     C_3   0.535975 0.039273 0.624076 -0.273572
C14   C     C_3   0.464076 0.960296 0.376330 -0.272553
C15   C     C_3   0.618068 0.954046 0.527808 -0.414125
C16   C     C_3   0.381796 0.045503 0.472700 -0.405174
H3    H     H_    0.713297 0.911919 0.545286 0.176665
H4    H     H_    0.286910 0.088532 0.454110 0.196437
H5    H     H_    0.561631 0.074041 0.725679 0.211091
H6    H     H_    0.438403 0.925367 0.274758 0.212483
C17   C     C_3   0.500161 0.877214 0.498623 -0.064237
C18   C     C_3   0.500133 0.122588 0.501476 -0.072956
C19   C     C_3   0.419622 0.960751 0.593017 0.583602
C20   C     C_3   0.580618 0.038489 0.407424 0.577770
C21   C     C_3   0.490095 0.384978 0.049363 -0.327444
C22   C     C_3   0.509606 0.614929 0.950778 -0.320556
C23   C     C_3   0.592775 0.431961 0.951044 -0.095231
C24   C     C_3   0.407076 0.567484 0.048747 -0.074067
H7    H     H_    0.483773 0.288896 0.094704 0.193598
H8    H     H_    0.517621 0.711231 0.906338 0.193800
N1    N     N_3   0.499910 0.500030 0.863290 -0.146849
N2    N     N_3   0.500090 0.499970 0.136710 -0.144341
C25   C     C_3   0.398031 0.454369 0.953867 0.536650
C26   C     C_3   0.602048 0.545266 0.045580 0.533355
C27   C     C_2   0.922263 0.262759 0.596171 0.936808
O9    O     O_2   0.002172 0.180498 0.619538 -0.703641
O10   O     O_R   0.794209 0.233837 0.598573 -0.806010
H9    H     H_    0.780335 0.141624 0.621534 0.330680
C28   C     C_2   0.082169 0.735387 0.389078 0.901605
O11   O     O_2   0.012460 0.799784 0.317805 -0.700646
O12   O     O_R   0.202357 0.777057 0.421027 -0.818604
H10   H     H_    0.220092 0.862634 0.379782 0.333418
O13   O     O_3   0.884326 0.688709 0.655286 -0.617612
C29   C     C_3   0.947987 0.804583 0.658676 0.098445
H11   H     H_    0.934395 0.855692 0.561820 0.169178
H12   H     H_    0.050844 0.789728 0.678058 0.171109
C30   C     C_3   0.890676 0.889277 0.769695 -0.917153
H13   H     H_    0.926357 0.859602 0.869469 0.244411
H14   H     H_    0.918467 0.988810 0.753259 0.254983
H15   H     H_    0.785754 0.885387 0.770793 0.269582
O14   O     O_3   0.113254 0.308551 0.359217 -0.604811
C31   C     C_3   0.029697 0.240607 0.278346 0.108732
H16   H     H_    0.010176 0.294735 0.184514 0.152337
H17   H     H_    0.937664 0.222387 0.330047 0.161915
C32   C     C_3   0.092402 0.112920 0.243416 -0.841780
H18   H     H_    0.094988 0.052554 0.335166 0.269702
H19   H     H_    0.038824 0.063531 0.164827 0.223384
H20   H     H_    0.190537 0.126007 0.205019 0.252668
O15   O     O_3   0.341959 0.905477 0.692530 -0.598562
C33   C     C_3   0.249152 0.994183 0.737701 0.104611
H21   H     H_    0.169694 0.996380 0.665344 0.195957
H22   H     H_    0.286766 0.091674 0.748563 0.153961
C34   C     C_3   0.200068 0.952147 0.875264 -0.814782
H23   H     H_    0.271120 0.973043 0.953276 0.269816
H24   H     H_    0.110471 0.003452 0.901110 0.210078
H25   H     H_    0.181688 0.848783 0.874745 0.279635
O16   O     O_3   0.661696 0.087957 0.307297 -0.606494
C35   C     C_3   0.746558 0.991485 0.260743 0.111637
H26   H     H_    0.705093 0.894945 0.261479 0.161216
H27   H     H_    0.831982 0.990221 0.325037 0.188395
C36   C     C_3   0.785537 0.019928 0.115970 -0.818927
H28   H     H_    0.820286 0.118299 0.108128 0.268544
H29   H     H_    0.862133 0.952513 0.083155 0.210898
H30   H     H_    0.703193 0.008945 0.048818 0.275218
C37   C     C_2   0.697579 0.348662 0.895126 0.999589
O17   O     O_2   0.793766 0.395309 0.849425 -0.645328
O18   O     O_R   0.685380 0.217175 0.898163 -0.839447
H31   H     H_    0.764017 0.170436 0.862784 0.335447
C38   C     C_2   0.298592 0.644949 0.105015 0.995080
O19   O     O_2   0.202177 0.592975 0.142516 -0.644232
O20   O     O_R   0.307299 0.776684 0.111207 -0.841580
H32   H     H_    0.225454 0.819605 0.143291 0.344463
O21   O     O_3   0.284950 0.413464 0.896077 -0.591653
C39   C     C_3   0.233684 0.315609 0.974864 0.053595
H33   H     H_    0.219346 0.345983 0.081920 0.205936
H34   H     H_    0.296494 0.229333 0.970301 0.145907
C40   C     C_3   0.106832 0.281728 0.917212 -0.811660
H35   H     H_    0.120720 0.254056 0.810254 0.293807
H36   H     H_    0.065149 0.202117 0.973525 0.206514
H37   H     H_    0.040176 0.363921 0.923960 0.270102
O22   O     O_3   0.715110 0.590838 0.099667 -0.605395
C41   C     C_3   0.783577 0.656822 0.998973 0.066524
H38   H     H_    0.763187 0.759965 0.010656 0.152642
H39   H     H_    0.759611 0.630470 0.893372 0.213341
C42   C     C_3   0.924582 0.629967 0.015675 -0.715450
H40   H     H_    0.941795 0.527545 0.034570 0.259655
H41   H     H_    0.978265 0.655331 0.922854 0.233747
H42   H     H_    0.960186 0.685586 0.101454 0.280750

loop_
_geom_bond_atom_site_label_1
_geom_bond_atom_site_label_2
_geom_bond_distance
_ccdc_geom_bond_type
C13   H5    1.108682 S    
O13   C29   1.408488 S    
C14   H6    1.109018 S    
C6    C9    1.546306 S    
C15   H3    1.105825 S    
O21   C39   1.406962 S    
C23   C37   1.495589 S    
C37   O17   1.220511 D    
C41   H39   1.114575 S    
C27   O10   1.393777 S    
O12   H10   1.010443 S    
C15   C17   1.532518 S    
O5    C3    1.294322 A    
O20   H32   1.012867 S    
C36   H28   1.110193 S    
O1    C1    1.293334 A    
C22   H8    1.110709 S    
C35   C36   1.516237 S    
C39   C40   1.514338 S    
C28   O11   1.221265 D    
C29   H11   1.108747 S    
O4    Zn1   1.998175 S    
C5    C10   1.546343 S    
C40   H35   1.103737 S    
C16   C19   1.539968 S    
C39   H34   1.112985 S    
C42   H40   1.106514 S    
C6    H2    1.102807 S    
C13   C18   1.543795 S    
C5    C11   1.546372 S    
C16   C18   1.536953 S    
C30   H13   1.104148 S    
C6    C12   1.538122 S    
C1    C18   1.425910 S    
C42   H41   1.108355 S    
O2    C2    1.292948 A    
C33   C34   1.519098 S    
C41   H38   1.108342 S    
N2    C26   1.482496 S    
C8    C28   1.494633 S    
C9    C11   1.532334 S    
C24   C25   1.521729 S    
C30   H14   1.107252 S    
C7    C12   1.528072 S    
C8    C11   1.539142 S    
C31   C32   1.522390 S    
C35   H27   1.111303 S    
C38   O19   1.221171 D    
O7    Zn2   1.997812 S    
C33   H21   1.110746 S    
C23   N1    1.490668 S    
O14   C31   1.407461 S    
C4    C9    1.427818 S    
C20   O16   1.408490 S    
C7    C9    1.532544 S    
C32   H18   1.108852 S    
C32   H19   1.105106 S    
C31   H17   1.112873 S    
C5    H1    1.105948 S    
C34   H23   1.109729 S    
C38   O20   1.394503 S    
C34   H24   1.105323 S    
C14   C17   1.540649 S    
C27   O9    1.219919 D    
C24   N2    1.490217 S    
O6    C4    1.294420 A    
C39   H33   1.112939 S    
C36   H30   1.110238 S    
N1    C25   1.479941 S    
O3    Zn2   1.998175 S    
O8    C4    1.297031 A    
C13   C19   1.532668 S    
C23   C26   1.521418 S    
C33   H22   1.115813 S    
C36   H29   1.108617 S    
C12   O14   1.409303 S    
O7    C3    1.299158 A    
C42   H42   1.106028 S    
C10   C12   1.524930 S    
O4    C2    1.297709 A    
O1    Zn1   1.997603 S    
C21   C25   1.538243 S    
C25   O21   1.408412 S    
Zn1   N1    2.052548 S    
Zn2   N2    2.052548 S    
C14   C20   1.532440 S    
C5    C7    1.545659 S    
C30   H15   1.110152 S    
O6    Zn2   2.008744 S    
C40   H36   1.104149 S    
C8    C10   1.537721 S    
C7    C27   1.496796 S    
C35   H26   1.117047 S    
O3    C1    1.298090 A    
O8    Zn1   1.997811 S    
C2    C17   1.424696 S    
C11   O13   1.417277 S    
C15   C20   1.537593 S    
C13   C15   1.549835 S    
C26   O22   1.410307 S    
C3    C10   1.432361 S    
C14   C16   1.551389 S    
C29   C30   1.523553 S    
C32   H20   1.110746 S    
C31   H16   1.108946 S    
C21   N2    1.493920 S    
C37   O18   1.394669 S    
C22   N1    1.493626 S    
C21   C23   1.537378 S    
C22   C24   1.535764 S    
C16   H4    1.108126 S    
C17   C19   1.519740 S    
C29   H12   1.113578 S    
C18   C20   1.520734 S    
C24   C38   1.491705 S    
C21   H7    1.110641 S    
O2    Zn2   1.997603 S    
C34   H25   1.110780 S    
C22   C26   1.537824 S    
C19   O15   1.407701 S    
O16   C35   1.411479 S    
O5    Zn1   2.008745 S    
C40   H37   1.104331 S    
O15   C33   1.406043 S    
C6    C8    1.546249 S    
O10   H9    1.011542 S    
O22   C41   1.415220 S    
C28   O12   1.393924 S    
O18   H31   1.013297 S    
C41   C42   1.521047 S    
