data_mof_unit_27425.cif
_audit_creation_date              2012-12-11T15:31:58-0500
_audit_creation_method            fapswitch 2.2
_symmetry_space_group_name_H-M    P1
_symmetry_Int_Tables_number       1
_space_group_crystal_system       triclinic
_cell_length_a                    13.586199
_cell_length_b                    13.564026
_cell_length_c                    27.5991
_cell_angle_alpha                 90.473523
_cell_angle_beta                  90.244172
_cell_angle_gamma                 119.921884
_cell_volume                      4407.76365246

loop_
_atom_site_label
_atom_site_type_symbol
_atom_type_description
_atom_site_fract_x
_atom_site_fract_y
_atom_site_fract_z
_atom_type_partial_charge
C1    C     C_R   0.619735 0.897809 0.431547 0.542981
C2    C     C_R   0.625486 0.238788 0.208975 -0.174055
C3    C     C_R   0.613915 0.221316 0.258870 -0.149928
C4    C     C_R   0.666287 0.313819 0.291194 -0.016032
C5    C     C_R   0.689882 0.349011 0.191058 0.043932
C6    C     C_1   0.695657 0.367113 0.139622 -0.011934
C7    C     C_1   0.650889 0.293445 0.342337 -0.072921
C8    C     C_1   0.702205 0.391363 0.097451 0.011127
C9    C     C_1   0.229864 0.861593 0.383169 0.004835
C10   C     C_R   0.192562 0.938554 0.263945 0.296432
C11   C     C_R   0.175435 0.928359 0.213124 -0.097720
C12   C     C_R   0.599807 0.218918 0.431471 0.542095
C13   C     C_R   0.135761 0.733343 0.215489 -0.075352
C14   C     C_R   0.149248 0.741352 0.265723 -0.143867
C15   C     C_R   0.176719 0.842960 0.290057 0.055649
C16   C     C_R   0.149077 0.826682 0.189076 0.013235
C17   C     C_1   0.126092 0.813744 0.137809 -0.024095
C18   C     C_1   0.200757 0.851819 0.341288 -0.002782
C19   C     C_1   0.097960 0.795088 0.095777 0.011771
C20   C     C_1   0.636721 0.863301 0.384622 0.003493
C21   C     C_R   0.581451 0.726595 0.268531 -0.156288
C22   C     C_R   0.586867 0.713994 0.217896 0.291445
C23   C     C_R   0.278932 0.878561 0.430682 0.546063
C24   C     C_R   0.745260 0.908180 0.214950 -0.139025
C25   C     C_R   0.741052 0.919597 0.265274 0.278739
C26   C     C_R   0.659132 0.828060 0.292107 0.007364
C27   C     C_R   0.667225 0.807296 0.191197 0.022660
C28   C     C_1   0.678249 0.796944 0.139789 0.017531
C29   C     C_1   0.647855 0.842986 0.343093 -0.011108
C30   C     C_1   0.694305 0.786946 0.097592 0.015081
C31   C     C_R   0.612001 0.232656 0.622824 0.032951
C32   C     C_R   0.718337 0.302586 0.644468 -0.118386
C33   C     C_R   0.728531 0.307539 0.694951 -0.111191
C34   C     C_R   0.621604 0.899145 0.568471 0.587551
C35   C     C_R   0.633075 0.240066 0.723496 0.064590
C36   C     C_R   0.529401 0.163975 0.701458 -0.062599
C37   C     C_R   0.518688 0.161363 0.651556 -0.118052
C38   C     C_R   0.564227 0.303181 0.793281 0.272609
C39   C     C_R   0.585850 0.349891 0.840165 -0.121647
C40   C     C_R   0.734042 0.302755 0.852803 -0.092984
C41   C     C_R   0.716575 0.259251 0.805652 -0.134987
C42   C     C_R   0.635836 0.264066 0.775370 0.046621
C43   C     C_R   0.673988 0.355377 0.868934 0.012959
C44   C     C_R   0.205414 0.854853 0.610645 -0.005741
C45   C     C_R   0.597420 0.215667 0.570639 0.529366
C46   C     C_R   0.180745 0.935349 0.631908 0.256356
C47   C     C_R   0.132902 0.913181 0.678739 -0.151511
C48   C     C_R   0.111344 0.814719 0.703624 0.006399
C49   C     C_R   0.126266 0.730648 0.679477 0.251684
C50   C     C_R   0.170503 0.750868 0.633155 -0.134101
C51   C     C_R   0.010479 0.698226 0.774794 -0.069709
C52   C     C_R   0.011538 0.679847 0.823813 0.170682
C53   C     C_R   0.123954 0.883772 0.838151 0.221315
C54   C     C_R   0.139651 0.898322 0.787705 -0.142581
C55   C     C_R   0.083044 0.804750 0.755745 -0.047601
C56   C     C_R   0.276902 0.880488 0.567438 0.567002
C57   C     C_R   0.065007 0.772567 0.856720 0.052703
C58   C     C_R   0.645407 0.852725 0.612600 -0.011140
C59   C     C_R   0.553540 0.765165 0.638472 0.234063
C60   C     C_R   0.569937 0.742958 0.686260 0.239605
C61   C     C_R   0.678857 0.800435 0.707226 -0.010971
C62   C     C_R   0.772113 0.873452 0.679213 -0.103131
C63   C     C_R   0.756521 0.900776 0.632320 0.184805
C64   C     C_R   0.736376 0.891890 0.788989 0.284750
C65   C     C_R   0.734701 0.880609 0.839555 -0.117406
C66   C     C_R   0.654365 0.676651 0.830298 -0.128392
C67   C     C_1   0.631691 0.266396 0.384160 -0.019739
C68   C     C_R   0.656055 0.686946 0.780375 -0.116654
C69   C     C_R   0.693546 0.793417 0.759527 0.075385
C70   C     C_R   0.694002 0.773201 0.860242 -0.011382
C71   C     C_R   0.049671 0.761423 0.048156 0.554355
C72   C     C_R   0.714335 0.435646 0.049635 0.545832
C73   C     C_R   0.723819 0.770841 0.049584 0.550522
C74   C     C_R   0.038133 0.752214 0.908664 0.601555
C75   C     C_R   0.705872 0.426114 0.913055 0.559158
C76   C     C_R   0.719446 0.763964 0.910838 0.541512
C77   C     C_R   0.731546 0.424129 0.273524 -0.091512
C78   C     C_R   0.743638 0.442223 0.223504 0.236555
Cr1   Cr    Cr6+3 0.417720 0.831920 0.499820 1.023422
Cr2   Cr    Cr6+3 0.668190 0.085770 0.500360 1.071177
Cr3   Cr    Cr6+3 0.414060 0.082260 0.499840 1.055974
Cr4   Cr    Cr6+3 0.908000 0.821090 0.979770 1.028450
Cr5   Cr    Cr6+3 0.912420 0.571130 0.979880 1.074670
Cr6   Cr    Cr6+3 0.657970 0.566940 0.980940 1.030529
H1    H     H_    0.772057 0.495859 0.298446 0.146319
H2    H     H_    0.810328 0.977972 0.194479 0.124896
H3    H     H_    0.791991 0.354392 0.622513 0.125306
H4    H     H_    0.539165 0.389725 0.853176 0.108359
H5    H     H_    0.809166 0.367099 0.711749 0.136590
H6    H     H_    0.769220 0.226395 0.792062 0.139071
H7    H     H_    0.799786 0.302886 0.875184 0.156067
H8    H     H_    0.455458 0.110590 0.723054 0.132366
H9    H     H_    0.437565 0.101756 0.635235 0.138407
H10   H     H_    0.958235 0.626251 0.751354 0.205568
H11   H     H_    0.112569 0.971933 0.696558 0.089246
H12   H     H_    0.197553 0.981940 0.773831 0.115655
H13   H     H_    0.181880 0.685501 0.615646 0.156366
H14   H     H_    0.583030 0.166577 0.184408 0.111337
H15   H     H_    0.767134 0.955431 0.862698 0.112921
H16   H     H_    0.626253 0.611360 0.757850 0.167393
H17   H     H_    0.627573 0.593793 0.845388 0.139408
H18   H     H_    0.856875 0.913576 0.694825 0.152291
H19   H     H_    0.563013 0.135605 0.272288 0.112295
H20   H     H_    0.181186 0.998425 0.192396 0.099406
H21   H     H_    0.113570 0.653753 0.197261 0.148009
H22   H     H_    0.139417 0.668471 0.285618 0.118584
H23   H     H_    0.516194 0.658318 0.289488 0.104172
O1    O     O_R   0.302900 0.805360 0.446400 -0.518442
O2    O     O_R   0.657980 0.180990 0.549630 -0.490558
O3    O     O_R   0.503420 0.197810 0.553190 -0.525854
O4    O     O_R   0.320350 0.978840 0.548910 -0.448458
O5    O     O_3   0.499990 0.999990 0.500010 -0.267766
O6    O     O_R   0.819150 0.845650 0.033320 -0.510941
O7    O     O_R   0.006060 0.815720 0.028680 -0.495148
O8    O     O_R   0.028100 0.664460 0.032550 -0.501588
O9    O     O_R   0.811290 0.477490 0.029660 -0.492997
O10   O     O_R   0.638120 0.455970 0.034270 -0.510543
O11   O     O_R   0.667540 0.672320 0.030160 -0.482940
O12   O     O_R   0.522090 0.841370 0.450730 -0.509595
O13   O     O_R   0.814460 0.840990 0.926980 -0.529576
O14   O     O_R   0.001710 0.811400 0.930110 -0.490194
O15   O     O_R   0.023410 0.659800 0.926210 -0.456273
O16   O     O_R   0.806940 0.473170 0.931090 -0.453078
O17   O     O_R   0.633420 0.451310 0.927930 -0.539963
O18   O     O_R   0.663190 0.668000 0.931580 -0.497562
O19   O     O_3   0.826130 0.653050 0.980200 -0.257364
O20   O     O_R   0.693280 0.995650 0.447220 -0.491117
O21   O     O_R   0.657260 0.178740 0.451050 -0.496799
O22   O     O_R   0.502640 0.195380 0.446850 -0.508640
O23   O     O_R   0.319630 0.976590 0.450330 -0.482377
O24   O     O_R   0.303680 0.807790 0.552740 -0.518240
O25   O     O_R   0.522820 0.843620 0.549310 -0.470090
O26   O     O_R   0.694060 0.998080 0.553560 -0.444734
O27   O     O_3   0.511107 0.614830 0.193125 -0.547349
C79   C     C_3   0.502193 0.517558 0.215789 -0.001252
H24   H     H_    0.438088 0.489155 0.245050 0.119754
H25   H     H_    0.584940 0.533354 0.231163 0.169488
C80   C     C_3   0.462916 0.421745 0.178515 -0.352689
H26   H     H_    0.524400 0.448488 0.148299 0.190446
H27   H     H_    0.457171 0.345251 0.195610 0.087692
H28   H     H_    0.378054 0.399783 0.163850 0.156279
O28   O     O_3   0.821622 0.017645 0.288704 -0.532175
C81   C     C_3   0.791668 0.102759 0.283340 -0.007117
H29   H     H_    0.705868 0.074528 0.298517 0.129113
H30   H     H_    0.792925 0.125262 0.244531 0.128581
C82   C     C_3   0.877255 0.209054 0.310949 -0.346165
H31   H     H_    0.964227 0.238075 0.297373 0.163966
H32   H     H_    0.857166 0.278175 0.305801 0.114430
H33   H     H_    0.874330 0.190641 0.350227 0.174280
O29   O     O_3   0.485458 0.307160 0.761618 -0.565448
C83   C     C_3   0.394571 0.309411 0.785477 -0.010804
H34   H     H_    0.421737 0.397713 0.797786 0.154539
H35   H     H_    0.363351 0.250112 0.816676 0.129429
C84   C     C_3   0.295619 0.272694 0.750362 -0.371814
H36   H     H_    0.259173 0.181368 0.740878 0.112915
H37   H     H_    0.228573 0.284508 0.767681 0.092765
H38   H     H_    0.324266 0.324517 0.717014 0.182762
Cl1   Cl    Cl    0.824370 0.582716 0.202596 -0.643918
O30   O     O_3   0.198014 0.028701 0.604429 -0.513586
C85   C     C_3   0.221260 0.125278 0.632764 0.000465
H39   H     H_    0.286152 0.142015 0.661223 0.115549
H40   H     H_    0.141875 0.114333 0.649193 0.160664
C86   C     C_3   0.267758 0.229037 0.600477 -0.345715
H41   H     H_    0.205245 0.215443 0.571428 0.181840
H42   H     H_    0.284461 0.304990 0.622375 0.085411
H43   H     H_    0.348342 0.244859 0.583754 0.178887
Cl2   Cl    Cl    0.948808 0.537084 0.840350 -0.658254
O31   O     O_3   0.175014 0.976232 0.869607 -0.547653
C87   C     C_3   0.125843 0.045661 0.862737 -0.006895
H44   H     H_    0.031332 0.995050 0.864837 0.139241
H45   H     H_    0.150455 0.089093 0.827192 0.106805
C88   C     C_3   0.168291 0.136540 0.902356 -0.357910
H46   H     H_    0.262298 0.189413 0.901095 0.152912
H47   H     H_    0.130862 0.192170 0.897050 0.090056
H48   H     H_    0.143035 0.096028 0.938413 0.165549
O32   O     O_3   0.091194 0.625125 0.699394 -0.592007
C89   C     C_3   0.186070 0.620163 0.716973 0.018016
H49   H     H_    0.231205 0.685887 0.745783 0.181246
H50   H     H_    0.245688 0.632202 0.687148 0.204947
C90   C     C_3   0.145322 0.503256 0.738545 -0.355127
H51   H     H_    0.103555 0.436492 0.710014 0.143067
H52   H     H_    0.218161 0.498072 0.753943 0.162077
H53   H     H_    0.083581 0.487346 0.767834 0.199441
O33   O     O_3   0.444238 0.709943 0.619606 -0.512804
C91   C     C_3   0.424434 0.607369 0.597345 0.014671
H54   H     H_    0.436370 0.551989 0.623534 0.156520
H55   H     H_    0.482465 0.624976 0.566144 0.120887
C92   C     C_3   0.302667 0.542481 0.578568 -0.356919
H56   H     H_    0.287968 0.594526 0.551785 0.174344
H57   H     H_    0.286446 0.462020 0.560706 0.087935
H58   H     H_    0.242698 0.521855 0.609079 0.156118
O34   O     O_3   0.772021 0.996657 0.767732 -0.551795
C93   C     C_3   0.885558 0.074854 0.781414 -0.031671
H59   H     H_    0.938496 0.033540 0.785708 0.099484
H60   H     H_    0.886678 0.118038 0.815991 0.131923
C94   C     C_3   0.940104 0.164615 0.742400 -0.364694
H61   H     H_    0.888294 0.205436 0.735200 0.168074
H62   H     H_    0.026246 0.230965 0.754458 0.084018
H63   H     H_    0.947614 0.125066 0.708275 0.179883
Cl3   Cl    Cl    0.449923 0.650283 0.720485 -0.695130
Cl4   Cl    Cl    0.879383 0.996427 0.600529 -0.597775
O35   O     O_3   0.217410 0.037214 0.289545 -0.539684
C95   C     C_3   0.303898 0.135304 0.266951 -0.016810
H64   H     H_    0.266422 0.164385 0.238450 0.133490
H65   H     H_    0.370211 0.120123 0.250668 0.117775
C96   C     C_3   0.361514 0.230032 0.304643 -0.352154
H66   H     H_    0.397392 0.202348 0.334308 0.178653
H67   H     H_    0.431372 0.307007 0.287708 0.092356
H68   H     H_    0.299124 0.251608 0.320041 0.164362

loop_
_geom_bond_atom_site_label_1
_geom_bond_atom_site_label_2
_ccdc_geom_bond_type
C15   C18   S    
C66   C68   A    
C21   C26   A    
C40   C41   A    
C48   C55   S    
C41   C42   A    
C19   C71   S    
C35   C36   A    
C96   H68   S    
C24   C27   A    
Cr4   O13   S    
C95   H64   S    
C68   H16   S    
C91   H54   S    
C79   H24   S    
C61   C69   S    
C77   C78   A    
C90   H51   S    
C95   H65   S    
C76   O13   A    
Cr1   O5    S    
C22   O27   S    
C92   H58   S    
C75   O16   A    
C36   C37   A    
C86   H42   S    
C38   C42   A    
C33   H5    S    
C10   C15   A    
C4    C7    S    
C52   Cl2   S    
C1    O12   A    
C5    C6    S    
C33   C35   A    
C45   O2    A    
C91   H55   S    
C16   C17   S    
Cr1   O25   S    
C44   C50   A    
C81   H29   S    
C81   H30   S    
C58   C63   A    
C73   O6    A    
O33   C91   S    
C92   H57   S    
C87   H44   S    
C83   C84   S    
C35   C42   S    
Cr4   O19   S    
C64   O34   S    
C54   C55   A    
C78   Cl1   S    
C40   C43   A    
C86   H41   S    
C90   H52   S    
Cr6   O10   S    
C89   H50   S    
Cr1   O12   S    
C72   O10   A    
C83   H34   S    
C11   H20   S    
O34   C93   S    
C63   Cl4   S    
Cr4   O14   S    
C84   H37   S    
C93   H59   S    
C88   H48   S    
C36   H8    S    
C41   H6    S    
C34   O25   A    
C59   C60   A    
Cr5   O15   S    
C21   C22   A    
Cr6   O19   S    
C76   O18   A    
C87   H45   S    
C66   H17   S    
C61   C62   A    
C39   H4    S    
C94   H63   S    
C71   O7    A    
C95   C96   S    
C44   C46   A    
C82   H32   S    
C20   C29   T    
C43   C75   S    
C38   C39   A    
C12   C67   S    
C8    C72   S    
C12   O22   A    
C71   O8    A    
C51   C52   A    
C47   C48   A    
Cr3   O4    S    
C86   H43   S    
C24   C25   A    
C65   H15   S    
C84   H38   S    
C13   H21   S    
O35   C95   S    
C81   C82   S    
C30   C73   S    
C53   C57   A    
C96   H66   S    
C68   C69   A    
C91   C92   S    
C6    C8    T    
Cr2   O21   S    
C34   O26   A    
C93   H60   S    
C58   C59   A    
C53   C54   A    
C32   H3    S    
Cr2   O26   S    
C31   C37   A    
C23   O23   A    
C92   H56   S    
C85   H40   S    
C57   C74   S    
Cr2   O2    S    
C85   C86   S    
C62   C63   A    
Cr5   O8    S    
C82   H33   S    
C11   C16   A    
C44   C56   S    
C53   O31   S    
Cr3   O22   S    
O30   C85   S    
C14   C15   A    
Cr3   O5    S    
C89   C90   S    
Cr1   O24   S    
Cr2   O5    S    
C37   H9    S    
C64   C69   A    
C10   O35   S    
Cr4   O7    S    
C84   H36   S    
C21   H23   S    
C79   C80   S    
C80   H27   S    
C94   H62   S    
O32   C89   S    
C74   O15   A    
C49   C50   A    
C23   O1    A    
C22   C27   A    
C70   C76   S    
C87   C88   S    
C2    C5    A    
Cr5   O19   S    
C3    C4    A    
C88   H46   S    
C82   H31   S    
C3    H19   S    
Cr6   O18   S    
C79   H25   S    
C46   C47   A    
O31   C87   S    
C50   H13   S    
C73   O11   A    
C56   O4    A    
C45   O3    A    
C54   H12   S    
Cr5   O9    S    
C31   C32   A    
C9    C23   S    
C1    O20   A    
Cr4   O6    S    
C88   H47   S    
C94   H61   S    
C1    C20   S    
C80   H28   S    
C52   C57   A    
C39   C43   A    
C90   H53   S    
O27   C79   S    
C12   O21   A    
Cr2   O20   S    
Cr6   O17   S    
C72   O9    A    
O29   C83   S    
C10   C11   A    
C32   C33   A    
C28   C30   T    
C2    C3    A    
C25   C26   A    
C4    C77   A    
C85   H39   S    
C93   C94   S    
C25   O28   S    
Cr3   O23   S    
C66   C70   A    
C77   H1    S    
C48   C49   A    
C46   O30   S    
C64   C65   A    
C17   C19   T    
Cr1   O1    S    
C51   C55   A    
C83   H35   S    
C40   H7    S    
C59   O33   S    
C56   O24   A    
C80   H26   S    
C60   Cl3   S    
C51   H10   S    
C7    C67   T    
C9    C18   T    
C14   H22   S    
C74   O14   A    
Cr3   O3    S    
C2    H14   S    
C26   C29   S    
Cr6   O11   S    
C89   H49   S    
C31   C45   S    
C13   C16   A    
C75   O17   A    
C27   C28   S    
C34   C58   S    
C47   H11   S    
O28   C81   S    
C60   C61   A    
Cr5   O16   S    
C5    C78   A    
C13   C14   A    
C96   H67   S    
C24   H2    S    
C38   O29   S    
C49   O32   S    
C65   C70   A    
C62   H18   S    
