data_mof_unit_20865.cif
_audit_creation_date              2012-10-26T18:25:41-0400
_audit_creation_method            fapswitch 2.2
_symmetry_space_group_name_H-M    P1
_symmetry_Int_Tables_number       1
_space_group_crystal_system       triclinic
_cell_length_a                    7.571576
_cell_length_b                    8.681636
_cell_length_c                    11.058976
_cell_angle_alpha                 87.612342
_cell_angle_beta                  71.477099
_cell_angle_gamma                 102.437422
_cell_volume                      668.338770113

loop_
_atom_site_label
_atom_site_type_symbol
_atom_type_description
_atom_site_fract_x
_atom_site_fract_y
_atom_site_fract_z
_atom_type_partial_charge
C1    C     C_R   0.452056 0.200051 0.505939 0.540988
C2    C     C_2   0.575490 0.968439 0.483973 -0.165888
C3    C     C_3   0.321246 0.322149 0.132627 -0.368155
C4    C     C_3   0.678754 0.677851 0.867372 -0.368155
C5    C     C_3   0.905623 0.302277 0.596644 -0.124726
C6    C     C_3   0.094377 0.697723 0.403356 -0.124726
C7    C     C_R   0.547944 0.799949 0.494061 0.540988
C8    C     C_R   0.422468 0.496017 0.742082 0.542415
C9    C     C_R   0.577532 0.503983 0.257918 0.542415
C10   C     C_2   0.377155 0.481059 0.880552 -0.109965
C11   C     C_2   0.622845 0.518941 0.119448 -0.109965
C12   C     C_2   0.511006 0.536548 0.934927 -0.007916
C13   C     C_2   0.488994 0.463452 0.065073 -0.007916
C14   C     C_2   0.424510 0.031561 0.516027 -0.165887
Cu1   Cu    Cu3+1 0.688910 0.517800 0.485820 0.916284
Cu2   Cu    Cu3+1 0.311090 0.482200 0.514180 0.916284
H1    H     H_    0.760686 0.596891 0.064441 0.084744
H2    H     H_    0.660400 0.740467 0.784263 0.151370
H3    H     H_    0.904502 0.219261 0.523701 0.111710
H4    H     H_    0.967934 0.253984 0.663619 0.103874
H5    H     H_    0.761493 0.308917 0.657081 0.147864
H6    H     H_    0.032066 0.746015 0.336381 0.103874
H7    H     H_    0.095498 0.780739 0.476299 0.111710
H8    H     H_    0.238507 0.691083 0.342919 0.147864
H9    H     H_    0.239314 0.403109 0.935559 0.084744
H10   H     H_    0.278600 0.959308 0.552947 0.112087
H11   H     H_    0.721400 0.040691 0.447053 0.112087
H12   H     H_    0.310365 0.231261 0.065936 0.102120
H13   H     H_    0.339600 0.259533 0.215737 0.151370
H14   H     H_    0.185452 0.361816 0.165490 0.145748
H15   H     H_    0.689635 0.768739 0.934064 0.102120
H16   H     H_    0.814548 0.638184 0.834510 0.145748
N1    N     N_2   0.027170 0.455360 0.535550 -0.140667
N2    N     N_2   0.972830 0.544640 0.464450 -0.140667
O1    O     O_R   0.622710 0.286400 0.490790 -0.517704
O2    O     O_R   0.377290 0.713600 0.509210 -0.517703
O3    O     O_R   0.303660 0.256330 0.514730 -0.516637
O4    O     O_R   0.696340 0.743670 0.485270 -0.516637
O5    O     O_R   0.600900 0.509520 0.671740 -0.505329
O6    O     O_R   0.399100 0.490480 0.328260 -0.505329
O7    O     O_R   0.281840 0.479450 0.695690 -0.502216
O8    O     O_R   0.718160 0.520550 0.304310 -0.502216

loop_
_geom_bond_atom_site_label_1
_geom_bond_atom_site_label_2
_ccdc_geom_bond_type
C3    H14   S    
Cu1   O4    S    
C2    H11   S    
C5    H3    S    
C8    O5    A    
Cu2   N1    S    
C4    C12   S    
C9    C11   S    
C7    O2    A    
Cu1   N2    S    
C2    C7    S    
C3    C13   S    
C1    O3    A    
Cu2   O3    S    
C4    H2    S    
N1    N2    D    
C6    H8    S    
C5    H4    S    
C14   H10   S    
C12   C13   S    
C11   C13   D    
Cu1   O5    S    
C9    O8    A    
C4    H16   S    
C10   C12   D    
Cu2   O6    S    
C6    H7    S    
C10   H9    S    
Cu1   O1    S    
C3    H12   S    
C7    O4    A    
C2    C14   D    
C4    H15   S    
Cu1   Cu2   S    
C6    H6    S    
C5    H5    S    
C8    O7    A    
C1    O1    A    
C8    C10   S    
C3    H13   S    
C11   H1    S    
C1    C14   S    
Cu2   O7    S    
C9    O6    A    
Cu2   O2    S    
C6    N2    S    
Cu1   O8    S    
C5    N1    S    
