data_mof_unit_52894.cif
_audit_creation_date              2012-12-10T19:09:33-0500
_audit_creation_method            fapswitch 2.2
_symmetry_space_group_name_H-M    P1
_symmetry_Int_Tables_number       1
_space_group_crystal_system       triclinic
_cell_length_a                    9.59367
_cell_length_b                    10.882985
_cell_length_c                    17.082547
_cell_angle_alpha                 90.588621
_cell_angle_beta                  94.158255
_cell_angle_gamma                 90.289958
_cell_volume                      1778.73150505

loop_
_atom_site_label
_atom_site_type_symbol
_atom_type_description
_atom_site_fract_x
_atom_site_fract_y
_atom_site_fract_z
_atom_type_partial_charge
C1    C     C_R   0.499503 0.262924 0.501061 0.825960
C2    C     C_R   0.650104 0.465340 0.779218 -0.243184
C3    C     C_R   0.570571 0.468319 0.139578 -0.159575
C4    C     C_R   0.577069 0.460247 0.220682 -0.219548
C5    C     C_R   0.458072 0.528961 0.098980 0.374117
C6    C     C_R   0.472260 0.511414 0.263300 -0.042631
C7    C     C_R   0.360570 0.572323 0.223206 -0.230824
C8    C     C_R   0.352990 0.580018 0.141494 -0.188644
C9    C     C_R   0.619776 0.063783 0.508092 0.042575
C10   C     C_R   0.497225 0.130384 0.503134 -0.058817
C11   C     C_R   0.370540 0.063556 0.499864 -0.192331
C12   C     C_R   0.517700 0.499876 0.650728 0.808076
C13   C     C_R   0.372073 0.934526 0.500421 -0.191775
C14   C     C_R   0.499743 0.870134 0.502718 -0.103334
C15   C     C_R   0.622210 0.939762 0.506342 0.044548
C16   C     C_3   0.779655 0.937111 0.511353 0.357866
C17   C     C_3   0.773624 0.078911 0.514397 -0.474187
C18   C     C_R   0.066106 0.551013 0.439275 0.227907
C19   C     C_R   0.081950 0.458672 0.562599 -0.022062
C20   C     C_R   0.933703 0.459383 0.562795 0.013215
C21   C     C_R   0.919204 0.541423 0.436932 0.210385
C22   C     C_3   0.913689 0.486759 0.355337 0.190151
C23   C     C_R   0.500434 0.737239 0.501218 0.799578
C24   C     C_3   0.068118 0.514704 0.355148 -0.545657
C25   C     C_R   0.482328 0.503977 0.349220 0.799074
C26   C     C_R   0.527969 0.503676 0.736602 -0.027847
C27   C     C_R   0.414903 0.546184 0.776368 -0.218903
C28   C     C_R   0.422971 0.549826 0.857757 -0.171667
C29   C     C_R   0.543614 0.507882 0.901295 0.336325
C30   C     C_R   0.658285 0.465389 0.861439 -0.007316
Cu1   Cu    Cu3+1 0.640670 0.499980 0.500000 1.032876
Cu2   Cu    Cu3+1 0.359330 0.500020 0.500000 0.975774
H1    H     H_    0.663642 0.412594 0.249585 0.229727
H2    H     H_    0.273733 0.885427 0.498800 0.177065
H3    H     H_    0.811918 0.122051 0.571261 0.228158
H4    H     H_    0.810332 0.124071 0.462087 0.262889
H5    H     H_    0.142835 0.421945 0.612610 0.130735
H6    H     H_    0.885219 0.424410 0.613276 0.113555
H7    H     H_    0.849046 0.539676 0.311175 0.084846
H8    H     H_    0.134581 0.433808 0.344811 0.250726
H9    H     H_    0.653240 0.426057 0.109018 0.169617
H10   H     H_    0.089108 0.594872 0.318371 0.148860
H11   H     H_    0.737574 0.431788 0.748529 0.150767
H12   H     H_    0.281527 0.616784 0.254988 0.145287
H13   H     H_    0.334510 0.585626 0.886321 0.153648
H14   H     H_    0.265974 0.627067 0.111255 0.142837
H15   H     H_    0.320425 0.578087 0.744497 0.165100
H16   H     H_    0.270832 0.110134 0.496798 0.186782
N1    N     N_2   0.553760 0.506745 0.984584 -0.264408
N2    N     N_2   0.445635 0.537417 0.015941 -0.268862
N3    N     N_R   0.147870 0.500930 0.499500 -0.169945
N4    N     N_R   0.851960 0.500890 0.499500 -0.149762
O1    O     O_R   0.618810 0.319640 0.500000 -0.538088
O2    O     O_R   0.381230 0.319680 0.499990 -0.582370
O3    O     O_R   0.631790 0.498830 0.613930 -0.584177
O4    O     O_R   0.394210 0.498870 0.613920 -0.598453
O5    O     O_R   0.618770 0.680320 0.500010 -0.544963
O6    O     O_R   0.381190 0.680360 0.500000 -0.585953
O7    O     O_R   0.605790 0.501130 0.386080 -0.568239
O8    O     O_R   0.368210 0.501170 0.386070 -0.593464
S1    S     S_3+6 0.853313 0.875183 0.602409 -0.006116
O9    O     O_2   0.994312 0.932363 0.623084 -0.310120
O10   O     O_2   0.758926 0.903136 0.666771 -0.283114
O11   O     O_3   0.871434 0.722672 0.594280 -0.527636
H17   H     H_    0.902382 0.695355 0.647858 0.358725
C31   C     C_R   0.847070 0.891277 0.438378 0.088560
C32   C     C_R   0.769815 0.832182 0.375190 -0.125931
C33   C     C_R   0.833396 0.800819 0.306740 -0.145071
C34   C     C_R   0.974336 0.827870 0.300131 -0.121309
C35   C     C_R   0.052127 0.886291 0.362017 -0.130250
C36   C     C_R   0.988824 0.918379 0.430441 -0.073981
H18   H     H_    0.659775 0.812548 0.377100 0.113624
H19   H     H_    0.772907 0.756055 0.258524 0.138134
H20   H     H_    0.023224 0.803715 0.246980 0.127349
H21   H     H_    0.161080 0.908313 0.356496 0.133750
H22   H     H_    0.049126 0.967995 0.476513 0.160234
S2    S     S_3+6 0.888111 0.322427 0.349290 -0.023329
O12   O     O_2   0.987839 0.259740 0.407837 -0.337735
O13   O     O_2   0.741365 0.287390 0.364583 -0.277006
O14   O     O_3   0.918690 0.273914 0.258327 -0.534746
H23   H     H_    0.021719 0.273677 0.257023 0.347388
C37   C     C_R   0.787151 0.419747 0.904824 0.119746
C38   C     C_R   0.918515 0.467784 0.889289 -0.153017
C39   C     C_R   0.039740 0.425908 0.930828 -0.126818
C40   C     C_R   0.031143 0.335683 0.987878 -0.093782
C41   C     C_R   0.901289 0.286300 0.003081 -0.125041
C42   C     C_R   0.779809 0.327495 0.961519 -0.125309
H24   H     H_    0.926919 0.538552 0.845721 0.133700
H25   H     H_    0.140377 0.463560 0.918962 0.134861
H26   H     H_    0.125142 0.303807 0.020108 0.137866
H27   H     H_    0.894737 0.215899 0.046985 0.154071
H28   H     H_    0.680195 0.287151 0.973393 0.140268

loop_
_geom_bond_atom_site_label_1
_geom_bond_atom_site_label_2
_ccdc_geom_bond_type
C23   O6    A    
C18   C21   A    
C24   H10   S    
C19   C20   A    
Cu2   O6    S    
Cu1   N4    S    
C7    C8    A    
C29   N1    S    
S2    O12   D    
C26   C27   A    
C38   C39   A    
C18   C24   S    
C28   C29   A    
C41   H27   S    
C36   H22   S    
C6    C25   S    
C15   C16   S    
C32   H18   S    
Cu1   O7    S    
S1    O10   D    
C1    O1    A    
C19   H5    S    
Cu1   Cu2   S    
C33   C34   A    
C35   C36   A    
C17   H4    S    
C9    C10   A    
C31   C32   A    
C21   C22   S    
C11   H16   S    
C34   C35   A    
Cu2   O2    S    
C18   N3    A    
S2    O13   D    
C28   H13   S    
C32   C33   A    
C39   C40   A    
C4    C6    A    
C41   C42   A    
C16   C17   S    
C33   H19   S    
C40   C41   A    
C12   C26   S    
C14   C23   S    
C30   C37   S    
S1    O11   S    
C1    O2    A    
Cu2   N3    S    
C29   C30   A    
C20   H6    S    
C31   C36   A    
C2    H11   S    
C34   H20   S    
C2    C26   A    
C7    H12   S    
Cu1   O1    S    
C12   O4    A    
C9    C17   S    
C25   O8    A    
N1    N2    D    
C22   C24   S    
C5    N2    S    
C16   C31   S    
C16   S1    S    
Cu2   O8    S    
C3    C4    A    
C27   C28   A    
C42   H28   S    
S2    O14   S    
C27   H15   S    
C23   O5    A    
C4    H1    S    
C3    H9    S    
C1    C10   S    
C22   S2    S    
O14   H23   S    
C3    C5    A    
C5    C8    A    
C40   H26   S    
C6    C7    A    
C25   O7    A    
C2    C30   A    
O11   H17   S    
Cu1   O5    S    
C9    C15   A    
C13   H2    S    
C20   N4    A    
C11   C13   A    
C22   H7    S    
C24   H8    S    
C38   H24   S    
S1    O9    D    
C8    H14   S    
C12   O3    A    
C10   C11   A    
C19   N3    A    
C37   C38   A    
C39   H25   S    
C35   H21   S    
C14   C15   A    
C17   H3    S    
Cu1   O3    S    
C13   C14   A    
Cu2   O4    S    
C21   N4    A    
C37   C42   A    
