data_mof_unit_61764.cif
_audit_creation_date              2012-12-10T17:11:49-0500
_audit_creation_method            fapswitch 2.2
_symmetry_space_group_name_H-M    P1
_symmetry_Int_Tables_number       1
_space_group_crystal_system       triclinic
_cell_length_a                    21.644406
_cell_length_b                    21.6369
_cell_length_c                    22.187583
_cell_angle_alpha                 59.752743
_cell_angle_beta                  119.398463
_cell_angle_gamma                 90.912141
_cell_volume                      7441.67951032

loop_
_atom_site_label
_atom_site_type_symbol
_atom_type_description
_atom_site_fract_x
_atom_site_fract_y
_atom_site_fract_z
_atom_type_partial_charge
C1    C     C_R   0.620150 0.500425 0.500430 0.860044
C2    C     C_R   0.822340 0.326762 0.719784 -0.177056
C3    C     C_R   0.878022 0.310101 0.710667 0.209602
C4    C     C_R   0.418681 0.581619 0.337439 0.890571
C5    C     C_R   0.870609 0.358131 0.633195 0.153760
C6    C     C_R   0.814021 0.428822 0.570815 0.011017
C7    C     C_R   0.753534 0.438904 0.576508 0.073196
C8    C     C_R   0.688451 0.499043 0.505575 -0.058456
C9    C     C_R   0.685870 0.554295 0.434679 -0.212495
C10   C     C_R   0.748432 0.550350 0.433251 -0.189941
C11   C     C_R   0.812964 0.488875 0.500912 -0.102834
C12   C     C_3   0.290013 0.710882 0.082232 0.148689
C13   C     C_3   0.712851 0.207999 0.028724 -0.199474
C14   C     C_3   0.690051 0.294921 0.971836 -0.149359
C15   C     C_1   0.626524 0.373004 0.751574 -0.181108
C16   C     C_R   0.378171 0.501287 0.496450 0.867359
C17   C     C_1   0.874971 0.124824 0.248449 -0.181535
C18   C     C_3   0.732587 0.202541 0.972785 -0.164279
C19   C     C_3   0.710702 0.288733 0.917622 0.159520
C20   C     C_3   0.812700 0.200992 0.027528 0.227287
C21   C     C_3   0.792956 0.206460 0.082364 0.184579
C22   C     C_3   0.790799 0.287406 0.970914 -0.171665
C23   C     C_3   0.190791 0.726399 0.973051 -0.188060
C24   C     C_3   0.770900 0.292654 0.026828 -0.198508
C25   C     C_1   0.664727 0.334743 0.826681 -0.058724
C26   C     C_1   0.837959 0.161577 0.173357 -0.059295
C27   C     C_R   0.250791 0.485182 0.375370 -0.154212
C28   C     C_R   0.581253 0.418374 0.662544 0.893036
C29   C     C_R   0.193354 0.468439 0.325386 -0.119510
C30   C     C_R   0.134949 0.455642 0.335613 -0.124066
C31   C     C_R   0.132331 0.462213 0.393727 -0.146503
C32   C     C_R   0.188633 0.481997 0.442801 0.111067
C33   C     C_R   0.250538 0.489439 0.436860 0.100611
C34   C     C_3   0.207552 0.793022 0.917686 0.162752
C35   C     C_R   0.309802 0.502043 0.492010 -0.099161
C36   C     C_R   0.306150 0.511273 0.548091 -0.187525
C37   C     C_R   0.244302 0.507328 0.551236 -0.159149
C38   C     C_R   0.185619 0.493672 0.498671 -0.073615
C39   C     C_R   0.999563 0.879811 0.500464 0.859959
C40   C     C_3   0.289947 0.747528 0.971742 -0.147222
C41   C     C_R   0.081075 0.918582 0.662547 0.886398
C42   C     C_R   0.999591 0.120663 0.498455 0.855371
C43   C     C_R   0.918944 0.081233 0.337467 0.884091
C44   C     C_R   0.005283 0.620884 0.499356 0.905829
C45   C     C_3   0.207801 0.756419 0.027881 0.206485
C46   C     C_R   0.879639 0.494713 0.500404 0.921554
C47   C     C_R   0.008502 0.379673 0.500628 0.907244
C48   C     C_R   0.120075 0.496953 0.499762 0.887838
C49   C     C_R   0.944248 0.895617 0.344475 -0.210873
C50   C     C_R   0.931041 0.902410 0.273192 -0.206755
C51   C     C_R   0.957727 0.840009 0.279363 0.197649
C52   C     C_3   0.306625 0.777567 0.026705 -0.192385
C53   C     C_R   0.993851 0.769002 0.356952 0.130553
C54   C     C_R   0.993507 0.759398 0.425108 0.011003
C55   C     C_R   0.977298 0.824394 0.421456 0.072883
C56   C     C_3   0.223384 0.823971 0.970961 -0.186219
C57   C     C_R   0.995988 0.816543 0.495663 -0.054192
C58   C     C_R   0.020543 0.746701 0.569365 -0.216313
C59   C     C_R   0.025962 0.683152 0.570011 -0.190326
C60   C     C_R   0.011183 0.688459 0.498274 -0.104445
C61   C     C_R   0.088648 0.104291 0.656457 -0.159580
C62   C     C_R   0.142527 0.095926 0.730796 -0.164788
C63   C     C_R   0.165331 0.157126 0.728037 -0.143605
C64   C     C_1   0.373832 0.626918 0.248373 -0.162558
C65   C     C_R   0.130816 0.228131 0.651793 0.170535
C66   C     C_R   0.066955 0.240060 0.577900 0.072400
C67   C     C_1   0.335944 0.665013 0.173241 -0.029601
C68   C     C_R   0.052236 0.175813 0.579153 0.079835
C69   C     C_R   0.002758 0.184493 0.502500 -0.060721
C70   C     C_R   0.962386 0.254932 0.427025 -0.208033
C71   C     C_R   0.968248 0.318305 0.427089 -0.183973
C72   C     C_R   0.017913 0.312053 0.502156 -0.112588
C73   C     C_1   0.125141 0.874853 0.751599 -0.180908
C74   C     C_3   0.274028 0.680141 0.028738 -0.196987
C75   C     C_3   0.942240 0.239034 0.783061 -0.857658
C76   C     C_3   0.882741 0.147252 0.059969 -0.901845
C77   C     C_1   0.162332 0.837982 0.826716 -0.050542
C78   C     C_R   0.758927 0.388268 0.652107 -0.217843
H1    H     H_    0.354888 0.797709 0.050209 0.150095
H2    H     H_    0.294461 0.495625 0.364375 0.151622
H3    H     H_    0.194503 0.464784 0.279033 0.142044
H4    H     H_    0.091203 0.441115 0.297953 0.139309
H5    H     H_    0.086467 0.450626 0.400346 0.143562
H6    H     H_    0.241614 0.516312 0.593865 0.163887
H7    H     H_    0.034884 0.741551 0.626232 0.142794
H8    H     H_    0.927251 0.946134 0.338645 0.145226
H9    H     H_    0.904046 0.957268 0.214121 0.165695
H10   H     H_    0.201703 0.883620 0.945750 0.151410
H11   H     H_    0.040775 0.629730 0.626773 0.171137
H12   H     H_    0.746484 0.596196 0.379284 0.169353
H13   H     H_    0.925063 0.260743 0.368168 0.138475
H14   H     H_    0.075579 0.054622 0.659874 0.133770
H15   H     H_    0.170276 0.040869 0.789753 0.149054
H16   H     H_    0.213427 0.148135 0.784529 0.160941
H17   H     H_    0.932186 0.372362 0.368150 0.171622
H18   H     H_    0.142460 0.706310 0.949619 0.154863
H19   H     H_    0.295575 0.620485 0.053904 0.150114
H20   H     H_    0.635330 0.600605 0.380510 0.145780
H21   H     H_    0.714979 0.396864 0.659963 0.143322
H22   H     H_    0.826193 0.289728 0.778093 0.157726
H23   H     H_    0.638636 0.334490 0.947226 0.145258
H24   H     H_    0.988119 0.236782 0.774219 0.262358
H25   H     H_    0.965714 0.236035 0.841962 0.230448
H26   H     H_    0.922564 0.189506 0.790566 0.256540
H27   H     H_    0.882510 0.156141 0.006032 0.246751
H28   H     H_    0.932677 0.157661 0.098629 0.248020
H29   H     H_    0.884557 0.088410 0.099051 0.246972
H30   H     H_    0.681623 0.174912 0.053835 0.150508
H31   H     H_    0.787140 0.328830 0.050378 0.145560
H32   H     H_    0.822218 0.320196 0.945891 0.140392
H33   H     H_    0.716663 0.166265 0.949331 0.149060
H34   H     H_    0.351821 0.520763 0.590329 0.159538
H35   H     H_    0.322915 0.744674 0.947041 0.144415
I1    I     I_    0.913277 0.306416 0.595705 -0.359152
I2    I     I_    0.945303 0.858782 0.169839 -0.297428
I3    I     I_    0.077028 0.693557 0.380126 -0.291793
I4    I     I_    0.200212 0.298019 0.649775 -0.389438
I5    I     I_    0.143029 0.762677 0.073704 -0.334601
O1    O     O_R   0.591660 0.448290 0.500000 -0.609469
O2    O     O_R   0.034730 0.556800 0.569600 -0.629080
O3    O     O_R   0.873600 0.534810 0.430420 -0.620479
O4    O     O_R   0.591590 0.551700 0.500020 -0.622686
O5    O     O_R   0.943150 0.465220 0.569550 -0.607105
O6    O     O_R   0.965270 0.443220 0.430400 -0.638841
O7    O     O_R   0.034830 0.373630 0.569530 -0.582520
O8    O     O_R   0.056850 0.534790 0.430450 -0.611088
O9    O     O_R   0.126400 0.465210 0.569580 -0.605458
O10   O     O_R   0.438430 0.509910 0.376770 -0.626053
O11   O     O_R   0.438360 0.613320 0.376790 -0.607475
O12   O     O_R   0.948250 0.908380 0.499990 -0.621566
O13   O     O_R   0.408410 0.448300 0.499980 -0.625089
O14   O     O_R   0.408340 0.551710 0.500000 -0.611434
O15   O     O_R   0.561640 0.386680 0.623210 -0.611335
O16   O     O_R   0.561570 0.490090 0.623230 -0.615614
O17   O     O_R   0.051700 0.908270 0.500000 -0.609258
O18   O     O_R   0.113330 0.938270 0.623230 -0.613287
O19   O     O_R   0.009880 0.938380 0.623210 -0.612597
O20   O     O_R   0.051750 0.091470 0.500010 -0.615065
O21   O     O_R   0.948300 0.091580 0.500000 -0.612008
O22   O     O_R   0.990120 0.061470 0.376790 -0.613393
O23   O     O_R   0.886670 0.061580 0.376770 -0.615338
O24   O     O_R   0.965170 0.626380 0.430470 -0.600841
Zn1   Zn    Zn3+2 0.500040 0.430950 0.499990 0.978748
Zn2   Zn    Zn3+2 0.499960 0.569050 0.500010 0.983052
Zn3   Zn    Zn3+2 0.069070 0.999850 0.500010 0.984492
Zn4   Zn    Zn3+2 0.930930 1.000000 0.499990 0.981871
Zn5   Zn    Zn3+2 0.953560 0.546470 0.407100 1.001178
Zn6   Zn    Zn3+2 0.046440 0.453550 0.592900 1.006301

loop_
_geom_bond_atom_site_label_1
_geom_bond_atom_site_label_2
_ccdc_geom_bond_type
C45   I5    S    
O14   Zn2   S    
C66   C68   A    
C21   C26   S    
C63   C65   A    
O21   Zn4   S    
C34   C56   S    
C9    H20   S    
C23   C45   S    
C12   C74   S    
C5    I1    S    
O12   Zn4   S    
C1    C8    S    
O1    Zn1   S    
C47   O6    A    
C70   H13   S    
O4    Zn2   S    
C57   C58   A    
C7    C8    A    
O11   Zn2   S    
C39   O17   A    
C53   C54   A    
C27   C33   A    
C63   H16   S    
C37   C38   A    
C13   C18   S    
C34   C40   S    
C17   C26   T    
C36   C37   A    
C34   C77   S    
C59   H11   S    
C30   C31   A    
C56   H10   S    
C71   H17   S    
C44   O2    A    
O20   Zn3   S    
C39   C57   S    
C31   H5    S    
C23   H18   S    
C20   C76   S    
C18   C19   S    
C1    O1    A    
C14   C24   S    
C16   O13   A    
C73   C77   T    
C1    O4    A    
C66   C72   A    
C35   C36   A    
C45   C56   S    
C8    C9    A    
C22   H32   S    
C36   H34   S    
C75   H24   S    
O3    Zn5   S    
C37   H6    S    
C70   C71   A    
C32   C38   A    
C52   H1    S    
C3    C75   S    
C9    C10   A    
C38   C48   S    
O18   Zn3   S    
C53   I3    S    
O9    Zn6   S    
C48   O8    A    
C2    H22   S    
C59   C60   A    
C13   C14   S    
C75   H25   S    
C61   C62   A    
C13   H30   S    
C19   C25   S    
C49   H8    S    
C12   C52   S    
C47   O7    A    
C74   H19   S    
C12   C67   S    
O15   Zn1   S    
C4    O10   A    
C28   O15   A    
C64   C67   T    
O19   Zn4   S    
C41   O18   A    
C19   C22   S    
C18   H33   S    
C27   H2    S    
C6    C11   A    
C14   C19   S    
C68   C69   A    
C14   H23   S    
C54   C60   A    
O17   Zn3   S    
C58   C59   A    
C49   C55   A    
O16   Zn2   S    
C42   C69   S    
C51   I2    S    
C51   C53   A    
C30   H4    S    
C17   C43   S    
C29   H3    S    
C62   C63   A    
C2    C78   A    
C40   H35   S    
C29   C30   A    
C23   C34   S    
C50   C51   A    
C13   C21   S    
C43   O22   A    
C46   O3    A    
O5    Zn6   S    
C6    C7    A    
O23   Zn4   S    
C7    C78   A    
C50   H9    S    
C20   C22   S    
O2    Zn6   S    
C76   H29   S    
C55   C57   A    
C75   H26   S    
C22   C24   S    
C46   O5    A    
C43   O23   A    
C21   C24   S    
C23   C74   S    
C58   H7    S    
O13   Zn1   S    
C54   C55   A    
C76   H28   S    
C42   O21   A    
C41   O19   A    
O24   Zn5   S    
C31   C32   A    
C24   H31   S    
C12   C45   S    
C3    C5    A    
O7    Zn6   S    
O22   Zn3   S    
O8    Zn5   S    
C61   H14   S    
C4    O11   A    
C39   O12   A    
C4    C64   S    
C32   C33   A    
C2    C3    A    
C71   C72   A    
C16   C35   S    
C40   C52   S    
C48   O9    A    
C61   C68   A    
C15   C28   S    
C5    C6    A    
C27   C29   A    
C44   C60   S    
C33   C35   A    
C40   C74   S    
C18   C20   S    
C65   C66   A    
C69   C70   A    
C16   O14   A    
O10   Zn1   S    
C47   C72   S    
C15   C25   T    
C10   C11   A    
C41   C73   S    
C28   O16   A    
C20   C21   S    
C10   H12   S    
C44   O24   A    
C49   C50   A    
C62   H15   S    
C78   H21   S    
C65   I4    S    
C11   C46   S    
C42   O20   A    
C76   H27   S    
O6    Zn5   S    
C52   C56   S    
