data_mof_unit_46999.cif
_audit_creation_date              2012-12-10T17:44:33-0500
_audit_creation_method            fapswitch 2.2
_symmetry_space_group_name_H-M    P1
_symmetry_Int_Tables_number       1
_space_group_crystal_system       triclinic
_cell_length_a                    9.904762
_cell_length_b                    10.777003
_cell_length_c                    15.421138
_cell_angle_alpha                 91.509554
_cell_angle_beta                  68.306859
_cell_angle_gamma                 88.661993
_cell_volume                      1528.02467399

loop_
_atom_site_label
_atom_site_type_symbol
_atom_type_description
_atom_site_fract_x
_atom_site_fract_y
_atom_site_fract_z
_atom_type_partial_charge
C1    C     C_R   0.500313 0.739910 0.495182 0.886745
C2    C     C_R   0.397978 0.554152 0.919856 0.045372
C3    C     C_R   0.257493 0.512190 0.973511 0.101339
C4    C     C_R   0.493451 0.591317 0.964213 0.034808
C5    C     C_R   0.453333 0.571958 0.060182 -0.008635
C6    C     C_R   0.306038 0.551057 0.114862 0.040855
C7    C     C_R   0.212353 0.509356 0.071440 0.149204
C8    C     C_R   0.627541 0.647817 0.916637 -0.197155
C9    C     C_R   0.724835 0.671722 0.960653 -0.235363
C10   C     C_R   0.695497 0.631789 0.050735 0.160059
C11   C     C_R   0.562612 0.574871 0.098295 0.135700
C12   C     C_R   0.409129 0.501057 0.676093 0.840144
C13   C     C_R   0.795877 0.647094 0.094589 -0.198236
C14   C     C_R   0.764785 0.603355 0.184232 -0.175421
C15   C     C_R   0.546532 0.513571 0.179572 -0.217527
C16   C     C_R   0.246663 0.896302 0.486893 -0.133818
C17   C     C_R   0.113334 0.961993 0.518717 -0.144616
C18   C     C_R   0.098373 0.074678 0.567731 -0.169547
C19   C     C_R   0.220312 0.127618 0.575738 -0.133679
C20   C     C_R   0.359520 0.067706 0.534375 0.057656
C21   C     C_R   0.367812 0.943564 0.503651 0.088427
C22   C     C_R   0.496521 0.873333 0.492613 -0.157057
C23   C     C_R   0.496633 0.260777 0.508280 0.896961
C24   C     C_R   0.619862 0.931430 0.494239 -0.280346
C25   C     C_R   0.621484 0.058246 0.502934 0.205996
C26   C     C_R   0.491369 0.128107 0.520274 -0.192403
C27   C     C_R   0.789098 0.669681 0.619217 -0.177588
C28   C     C_R   0.825949 0.754094 0.675942 -0.249111
C29   C     C_R   0.964235 0.749781 0.678348 -0.180156
C30   C     C_R   0.068105 0.663896 0.621442 -0.164273
C31   C     C_R   0.036646 0.581474 0.559654 0.153571
C32   C     C_R   0.892246 0.582553 0.559208 0.189257
C33   C     C_R   0.963572 0.422612 0.442373 -0.099491
C34   C     C_R   0.590336 0.503779 0.324225 0.877971
C35   C     C_R   0.106255 0.421446 0.443202 -0.075119
C36   C     C_R   0.351982 0.508469 0.778078 -0.049370
C37   C     C_R   0.641319 0.533348 0.225828 -0.075520
C38   C     C_R   0.163292 0.477219 0.928030 -0.180330
C39   C     C_R   0.210066 0.476149 0.830985 -0.225977
C40   C     C_R   0.443512 0.548281 0.822529 -0.239497
H1    H     H_    0.895108 0.696038 0.061103 0.148007
H2    H     H_    0.718267 0.878731 0.487026 0.184232
H3    H     H_    0.253041 0.811271 0.446879 0.194302
H4    H     H_    0.020784 0.923670 0.507475 0.157511
H5    H     H_    0.993517 0.123081 0.597074 0.137281
H6    H     H_    0.204461 0.215193 0.614749 0.154508
H7    H     H_    0.939094 0.361934 0.393736 0.153382
H8    H     H_    0.678736 0.675759 0.625155 0.202530
H9    H     H_    0.745532 0.821789 0.719767 0.149712
H10   H     H_    0.455581 0.453984 0.209758 0.174014
H11   H     H_    0.991575 0.813804 0.724131 0.153332
H12   H     H_    0.172161 0.665284 0.626922 0.206063
H13   H     H_    0.188566 0.357820 0.396261 0.154568
H14   H     H_    0.833740 0.627584 0.222004 0.163346
H15   H     H_    0.825408 0.716661 0.922814 0.147206
H16   H     H_    0.053374 0.450109 0.967042 0.178361
H17   H     H_    0.136821 0.446995 0.797386 0.158277
H18   H     H_    0.552967 0.569641 0.779443 0.154094
H19   H     H_    0.657399 0.678689 0.846599 0.152008
N1    N     N_R   0.856800 0.501200 0.500850 -0.116425
N2    N     N_R   0.142390 0.501280 0.500880 -0.119111
O1    O     O_R   0.385310 0.683220 0.500000 -0.644684
O2    O     O_R   0.614640 0.683250 0.500010 -0.638670
O3    O     O_R   0.319840 0.499980 0.632240 -0.643551
O4    O     O_R   0.549160 0.500000 0.632250 -0.632560
O5    O     O_R   0.385360 0.316750 0.499990 -0.629206
O6    O     O_R   0.614690 0.316780 0.500000 -0.574941
O7    O     O_R   0.450840 0.500000 0.367750 -0.588126
O8    O     O_R   0.680160 0.500020 0.367760 -0.614069
Zn1   Zn    Zn3+2 0.346880 0.499980 0.499990 0.933146
Zn2   Zn    Zn3+2 0.653120 0.500020 0.500010 0.944088
N3    N     N_2   0.076388 0.458550 0.125338 -0.307049
H20   H     H_    0.026540 0.497696 0.191322 0.258036
C41   C     C_3   0.080390 0.324448 0.127989 -0.795288
H21   H     H_    0.969028 0.292160 0.166312 0.239258
H22   H     H_    0.152269 0.293268 0.164669 0.244385
H23   H     H_    0.120429 0.281615 0.056281 0.249732
N4    N     N_2   0.752981 0.113237 0.498718 -0.274546
H24   H     H_    0.788422 0.081591 0.549451 0.210429
C42   C     C_3   0.867662 0.105906 0.407046 -0.767141
H25   H     H_    0.896935 0.007677 0.382111 0.234602
H26   H     H_    0.966410 0.148715 0.410518 0.226725
H27   H     H_    0.832795 0.156194 0.356443 0.247633
I1    I     I_    0.212684 0.625653 0.255899 -0.469235

loop_
_geom_bond_atom_site_label_1
_geom_bond_atom_site_label_2
_ccdc_geom_bond_type
C27   H8    S    
N2    Zn1   S    
C16   C21   A    
C42   H25   S    
C35   H13   S    
C34   C37   S    
C24   H2    S    
C31   N2    A    
C19   C20   A    
C4    C8    A    
C1    O1    A    
C13   H1    S    
C19   H6    S    
C41   H22   S    
C23   O5    A    
C28   C29   A    
C5    C11   A    
C3    C7    A    
C8    H19   S    
C5    C6    A    
C12   O3    A    
N4    C42   S    
C23   C26   S    
C39   H17   S    
O1    Zn1   S    
C18   C19   A    
C15   H10   S    
C23   O6    A    
O8    Zn2   S    
C15   C37   A    
C11   C15   A    
C3    C38   A    
C8    C9    A    
C41   H23   S    
C9    H15   S    
O3    Zn1   S    
C12   C36   S    
C9    C10   A    
C1    C22   S    
C21   C22   A    
C42   H27   S    
C1    O2    A    
C38   C39   A    
C40   H18   S    
C41   H21   S    
C25   N4    S    
C36   C40   A    
C6    I1    S    
C24   C25   A    
N3    C41   S    
C34   O7    A    
C7    N3    S    
N4    H24   S    
C16   C17   A    
N1    Zn2   S    
C25   C26   A    
O4    Zn2   S    
C2    C4    A    
C29   C30   A    
C28   H9    S    
C31   C32   A    
C34   O8    A    
C30   C31   A    
C17   C18   A    
C35   N2    A    
C16   H3    S    
C42   H26   S    
C14   H14   S    
O2    Zn2   S    
C33   N1    A    
C33   H7    S    
C22   C24   A    
C32   N1    A    
C18   H5    S    
C29   H11   S    
C30   H12   S    
C27   C32   A    
C36   C39   A    
N3    H20   S    
C10   C13   A    
C6    C7    A    
C12   O4    A    
C2    C3    A    
C17   H4    S    
C14   C37   A    
O5    Zn1   S    
C20   C26   A    
C33   C35   A    
O6    Zn2   S    
C10   C11   A    
C2    C40   A    
C4    C5    A    
C38   H16   S    
C20   C21   A    
O7    Zn1   S    
C27   C28   A    
C13   C14   A    
