data_mof_unit_60731.cif
_audit_creation_date              2013-03-05T16:11:25-0500
_audit_creation_method            fapswitch 2.2
_symmetry_space_group_name_H-M    P1
_symmetry_Int_Tables_number       1
_space_group_crystal_system       triclinic
_cell_length_a                    18.125387
_cell_length_b                    18.127253
_cell_length_c                    22.132404
_cell_angle_alpha                 114.165254
_cell_angle_beta                  114.273178
_cell_angle_gamma                 90.001683
_cell_volume                      5922.97628613

loop_
_atom_site_label
_atom_site_type_symbol
_atom_site_description
_atom_site_fract_x
_atom_site_fract_y
_atom_site_fract_z
_atom_type_partial_charge
Zn1   Zn    Zn3+2 0.307090 0.219220 0.438420 0.972597
Zn2   Zn    Zn3+2 0.692910 0.780780 0.561580 0.972597
Zn3   Zn    Zn3+2 0.280820 0.192930 0.561610 1.031450
Zn4   Zn    Zn3+2 0.719180 0.807070 0.438390 1.031450
Zn5   Zn    Zn3+2 0.131340 0.219220 0.438450 1.018870
Zn6   Zn    Zn3+2 0.868660 0.780780 0.561550 1.018870
Zn7   Zn    Zn3+2 0.280790 0.368660 0.561580 1.037444
Zn8   Zn    Zn3+2 0.719210 0.631340 0.438420 1.037444
O1    O     O_3   0.250010 0.250010 0.500010 -0.508344
O2    O     O_3   0.749990 0.749990 0.499990 -0.508345
O3    O     O_R   0.332200 0.393690 0.664400 -0.607583
O4    O     O_R   0.667800 0.606310 0.335600 -0.607583
O5    O     O_R   0.229300 0.167820 0.335610 -0.636541
O6    O     O_R   0.770700 0.832180 0.664390 -0.636541
O7    O     O_R   0.358130 0.123520 0.543120 -0.649723
O8    O     O_R   0.641870 0.876480 0.456880 -0.649723
O9    O     O_R   0.080390 0.314990 0.456920 -0.642741
O10   O     O_R   0.919610 0.685010 0.543080 -0.642741
O11   O     O_R   0.185040 0.123520 0.543150 -0.612681
O12   O     O_R   0.814960 0.876480 0.456850 -0.612681
O13   O     O_R   0.358080 0.419590 0.543080 -0.647751
O14   O     O_R   0.641920 0.580410 0.456920 -0.647752
O15   O     O_R   0.080420 0.141920 0.456950 -0.642420
O16   O     O_R   0.919580 0.858080 0.543050 -0.642420
O17   O     O_R   0.376490 0.315000 0.456880 -0.640204
O18   O     O_R   0.623510 0.685000 0.543120 -0.640205
O19   O     O_R   0.376520 0.141930 0.456900 -0.639986
O20   O     O_R   0.623480 0.858070 0.543100 -0.639986
O21   O     O_R   0.184990 0.419580 0.543110 -0.612193
O22   O     O_R   0.815010 0.580420 0.456890 -0.612193
O23   O     O_R   0.332220 0.270690 0.664420 -0.615746
O24   O     O_R   0.667780 0.729310 0.335580 -0.615746
O25   O     O_R   0.106290 0.167820 0.335630 -0.629031
O26   O     O_R   0.893710 0.832180 0.664370 -0.629031
C1    C     C_R   0.349616 0.349625 0.699282 0.847992
C2    C     C_R   0.650384 0.650375 0.300718 0.847990
C3    C     C_R   0.150166 0.150264 0.300502 0.823401
C4    C     C_R   0.849834 0.849735 0.699498 0.823402
C5    C     C_R   0.391751 0.108274 0.500072 0.775714
C6    C     C_R   0.608249 0.891726 0.499928 0.775714
C7    C     C_R   0.108266 0.391483 0.500156 0.893561
C8    C     C_R   0.891734 0.608517 0.499844 0.893560
C9    C     C_R   0.108310 0.108664 0.500197 0.893482
C10   C     C_R   0.891690 0.891335 0.499802 0.893481
C11   C     C_R   0.391698 0.391811 0.500032 0.776805
C12   C     C_R   0.608302 0.608189 0.499968 0.776807
C13   C     C_3   0.471475 0.543209 0.548570 -0.121669
C14   C     C_3   0.528525 0.456791 0.451430 -0.121669
C15   C     C_3   0.460035 0.554834 0.480019 -0.178235
C16   C     C_3   0.539965 0.445166 0.519981 -0.178235
H1    H     H_    0.428308 0.600783 0.463595 0.145118
H2    H     H_    0.571692 0.399217 0.536405 0.145118
H3    H     H_    0.447179 0.577868 0.588433 0.165443
H4    H     H_    0.552821 0.422132 0.411567 0.165443
C17   C     C_3   0.551046 0.550676 0.499785 0.043165
C18   C     C_3   0.448954 0.449323 0.500215 0.043165
C19   C     C_3   0.563374 0.539874 0.568295 -0.166257
C20   C     C_3   0.436626 0.460126 0.431705 -0.166257
H5    H     H_    0.616342 0.573625 0.624276 0.152281
H6    H     H_    0.383658 0.426375 0.375724 0.152281
C21   C     C_3   0.016897 0.051190 0.975358 -0.145655
C22   C     C_3   0.983103 0.948810 0.024642 -0.145655
C23   C     C_3   0.971827 0.069310 0.024574 -0.148071
C24   C     C_3   0.028173 0.930690 0.975426 -0.148071
H7    H     H_    0.949118 0.126764 0.045700 0.164677
H8    H     H_    0.050882 0.873236 0.954299 0.164677
H9    H     H_    0.850019 0.964941 0.953545 0.162432
H10   H     H_    0.149980 0.035059 0.046454 0.162432
C25   C     C_1   0.110277 0.110503 0.220980 -0.108630
C26   C     C_1   0.889723 0.889496 0.779020 -0.108630
C27   C     C_3   0.082048 0.018984 0.024984 -0.146711
C28   C     C_3   0.917951 0.981016 0.975016 -0.146711
C29   C     C_3   0.036346 0.036472 0.072935 0.167142
C30   C     C_3   0.963654 0.963528 0.927065 0.167142
C31   C     C_1   0.076864 0.077090 0.154158 -0.043117
C32   C     C_1   0.923136 0.922910 0.845842 -0.043117
C33   C     C_3   0.033954 0.500986 0.565423 0.365702
C34   C     C_3   0.966046 0.499014 0.434577 0.365702
C35   C     C_3   0.940465 0.476530 0.514205 -0.284261
C36   C     C_3   0.059535 0.523470 0.485795 -0.284261
C37   C     C_3   0.948995 0.551732 0.499810 -0.110048
C38   C     C_3   0.051005 0.448268 0.500190 -0.110049
C39   C     C_3   0.042579 0.577095 0.552713 -0.227939
C40   C     C_3   0.957421 0.422904 0.447287 -0.227939
C41   C     C_3   0.565210 0.556008 0.024345 0.259084
C42   C     C_3   0.434789 0.443992 0.975654 0.259083
C43   C     C_3   0.553781 0.462742 0.974429 -0.366656
C44   C     C_3   0.446219 0.537258 0.025571 -0.366656
H11   H     H_    0.598238 0.432827 0.954585 0.214900
H12   H     H_    0.401762 0.567173 0.045414 0.214900
C45   C     C_1   0.389164 0.389153 0.778342 -0.049298
C46   C     C_1   0.610836 0.610847 0.221658 -0.049298
C47   C     C_3   0.475862 0.555612 0.975725 0.263488
C48   C     C_3   0.524138 0.444388 0.024275 0.263488
C49   C     C_3   0.462825 0.462887 0.925738 -0.105477
C50   C     C_3   0.537175 0.537113 0.074261 -0.105477
C51   C     C_1   0.422430 0.422442 0.844894 0.162707
C52   C     C_1   0.577570 0.577558 0.155106 0.162708
C53   C     C_3   0.059466 0.962279 0.485699 -0.284348
C54   C     C_3   0.940534 0.037721 0.514301 -0.284347
C55   C     C_3   0.965963 0.935654 0.434535 0.361972
C56   C     C_3   0.034037 0.064346 0.565465 0.361972
C57   C     C_3   0.948953 0.948084 0.499774 -0.109341
C58   C     C_3   0.051047 0.051916 0.500225 -0.109341
C59   C     C_3   0.042555 0.975479 0.552625 -0.227266
C60   C     C_3   0.957445 0.024521 0.447375 -0.227266
H13   H     H_    0.076902 0.956241 0.596499 0.195929
H14   H     H_    0.923098 0.043759 0.403501 0.195929
C61   C     C_3   0.472662 0.006518 0.549567 -0.123701
C62   C     C_3   0.527338 0.993482 0.450433 -0.123700
C63   C     C_3   0.564154 0.029121 0.567946 -0.169794
C64   C     C_3   0.435846 0.970879 0.432054 -0.169794
H15   H     H_    0.617773 0.051951 0.623632 0.149575
H16   H     H_    0.382227 0.948048 0.376367 0.149575
C65   C     C_3   0.551005 0.949069 0.499749 0.045453
C66   C     C_3   0.448995 0.050931 0.500251 0.045453
C67   C     C_3   0.460397 0.925600 0.481324 -0.176394
C68   C     C_3   0.539603 0.074400 0.518676 -0.176394
H17   H     H_    0.428983 0.863585 0.466026 0.144541
H18   H     H_    0.571017 0.136415 0.533974 0.144541
N1    N     N_R   0.635698 0.618152 0.048965 0.251308
O27   O     O_R   0.651962 0.627552 0.000240 -0.321533
O28   O     O_R   0.682777 0.664136 0.119268 -0.311661
N2    N     N_R   0.364302 0.381848 0.951035 0.251308
O29   O     O_R   0.348038 0.372448 0.999760 -0.321533
O30   O     O_R   0.317223 0.335864 0.880731 -0.311661
N3    N     N_R   0.548448 0.381010 0.048807 0.249919
O31   O     O_R   0.533106 0.304589 0.000031 -0.318505
O32   O     O_R   0.585705 0.400180 0.119096 -0.335743
N4    N     N_R   0.451552 0.618990 0.951193 0.249919
O33   O     O_R   0.466894 0.695411 0.999969 -0.318505
O34   O     O_R   0.414295 0.599820 0.880904 -0.335743
N5    N     N_R   0.929339 0.864710 0.361457 0.221260
O35   O     O_R   0.948724 0.863218 0.310614 -0.346758
O36   O     O_R   0.879040 0.801951 0.347027 -0.345099
N6    N     N_R   0.070661 0.135290 0.638543 0.221260
O37   O     O_R   0.051276 0.136782 0.689386 -0.346757
O38   O     O_R   0.120960 0.198049 0.652973 -0.345099
H19   H     H_    0.107694 0.931469 0.472792 0.180892
H20   H     H_    0.892306 0.068531 0.527208 0.180892
H21   H     H_    0.449385 0.012699 0.590280 0.162832
H22   H     H_    0.550615 0.987301 0.409720 0.162832
H23   H     H_    0.030341 0.092818 0.954172 0.166060
H24   H     H_    0.969659 0.907181 0.045828 0.166060
H25   H     H_    0.892183 0.458591 0.527045 0.181195
H26   H     H_    0.107817 0.541409 0.472955 0.181195
N7    N     N_R   0.070473 0.502962 0.638450 0.219940
O39   O     O_R   0.051046 0.552228 0.689288 -0.355105
O40   O     O_R   0.120697 0.454547 0.652824 -0.352195
N8    N     N_R   0.929527 0.497038 0.361550 0.219940
O41   O     O_R   0.948954 0.447771 0.310712 -0.355105
O42   O     O_R   0.879303 0.545453 0.347176 -0.352195
H27   H     H_    0.076942 0.640168 0.596650 0.196081
H28   H     H_    0.923058 0.359832 0.403350 0.196081

loop_
_geom_bond_atom_site_label_1
_geom_bond_atom_site_label_2
_geom_bond_distance
_ccdc_geom_bond_type
C14   C17   1.535554 S    
C23   H7    1.110098 S    
Zn7   O21   1.938986 S    
C3    C25   1.433532 S    
Zn2   O20   1.939077 S    
N7    O39   1.300239 A    
C62   C68   1.546696 S    
C58   C60   1.544646 S    
C46   C52   1.199741 T    
C35   H25   1.110169 S    
C48   N3    1.457026 S    
C14   H4    1.110252 S    
C59   H13   1.110100 S    
C30   C32   1.464198 S    
C63   C68   1.547470 S    
O24   C2    1.279920 A    
N2    O30   1.300178 A    
N7    O40   1.300257 A    
C67   H17   1.110142 S    
C64   C67   1.547470 S    
C56   C58   1.526543 S    
C41   C50   1.538627 S    
C42   C44   1.550587 S    
C19   H5    1.110180 S    
C6    C65   1.468722 S    
Zn5   O9    1.939907 S    
O20   C6    1.273504 A    
C20   H6    1.110180 S    
C43   C48   1.550566 S    
O15   C9    1.268757 A    
C56   C59   1.536529 S    
C21   C23   1.549316 S    
H9    C28   1.110116 S    
C24   C27   1.549300 S    
C62   H22   1.110144 S    
C9    C58   1.461677 S    
C22   C24   1.549316 S    
C42   C48   1.530228 S    
C62   C64   1.546703 S    
O12   C10   1.270362 A    
C40   H28   1.110169 S    
C21   H23   1.110094 S    
C11   C18   1.468642 S    
O19   C5    1.273504 A    
C15   H1    1.110262 S    
C50   C52   1.457370 S    
C12   C17   1.468642 S    
C16   H2    1.110262 S    
C22   C29   1.536277 S    
Zn3   O11   1.938998 S    
O4    C2    1.279950 A    
C54   H20   1.110113 S    
C33   N7    1.457645 S    
O5    C3    1.282005 A    
C61   C66   1.535583 S    
C13   H3    1.110252 S    
O21   C7    1.270298 A    
C2    C46   1.425195 S    
C33   C35   1.536944 S    
C53   C58   1.542554 S    
C47   C49   1.538695 S    
Zn1   O17   1.939142 S    
C29   C31   1.464198 S    
C53   H19   1.110113 S    
C8    C37   1.461796 S    
C41   C47   1.530228 S    
O13   C11   1.271679 A    
Zn6   O10   1.939904 S    
C64   H16   1.110118 S    
C37   C39   1.544632 S    
C10   C57   1.461677 S    
O11   C9    1.270362 A    
Zn7   O3    1.914145 S    
C68   H18   1.110142 S    
C41   C43   1.550587 S    
C53   C59   1.558322 S    
O9    C7    1.268757 A    
C61   C67   1.546696 S    
Zn1   O1    1.943370 S    
C28   C30   1.536340 S    
C66   C68   1.533540 S    
C27   C29   1.536340 S    
C23   C29   1.536280 S    
C65   C67   1.533540 S    
Zn7   O13   1.939985 S    
C54   C57   1.542554 S    
C16   C18   1.533606 S    
C15   C20   1.547493 S    
Zn6   O26   1.915041 S    
C43   C49   1.555919 S    
C44   C50   1.555917 S    
C24   H8    1.110098 S    
Zn4   O8    1.940141 S    
N4    O34   1.300203 A    
N3    O32   1.300203 A    
Zn5   O1    1.939652 S    
Zn3   O1    1.941714 S    
O6    C4    1.282003 A    
Zn8   O14   1.939992 S    
Zn5   O15   1.939924 S    
Zn8   O4    1.914141 S    
Zn6   O16   1.939922 S    
C54   C56   1.536927 S    
C22   C28   1.549304 S    
C63   H15   1.110118 S    
C45   C51   1.199741 T    
C48   C50   1.538695 S    
C14   C16   1.546740 S    
C13   C18   1.535554 S    
O7    C5    1.271716 A    
N1    O27   1.300257 A    
Zn4   O24   1.914010 S    
O8    C6    1.271716 A    
C36   C38   1.542646 S    
C4    C26   1.433532 S    
O14   C12   1.271676 A    
C44   H12   1.110076 S    
C38   C40   1.544632 S    
C17   C19   1.533604 S    
C42   N2    1.457128 S    
N5    O35   1.300230 A    
O16   C10   1.268759 A    
C57   C59   1.544646 S    
N8    O42   1.300257 A    
Zn1   O5    1.913133 S    
Zn4   O2    1.941712 S    
C47   N4    1.457026 S    
Zn2   O2    1.943367 S    
O17   C11   1.273417 A    
C64   C66   1.533521 S    
Zn3   O7    1.940140 S    
C34   N8    1.457645 S    
N6    O38   1.300193 A    
C36   C39   1.558344 S    
C55   C60   1.536529 S    
Zn7   O1    1.941485 S    
C44   C47   1.550565 S    
C53   C55   1.536927 S    
O26   C4    1.282180 A    
C16   C19   1.547493 S    
Zn8   O2    1.941486 S    
C33   C39   1.536528 S    
C22   H24   1.110094 S    
N6    O37   1.300230 A    
Zn2   O18   1.939143 S    
Zn6   O2    1.939651 S    
C63   C65   1.533521 S    
C49   C51   1.457370 S    
C14   C20   1.546783 S    
C39   H27   1.110169 S    
C55   N5    1.457640 S    
C21   C30   1.536277 S    
C13   C15   1.546740 S    
C54   C60   1.558322 S    
Zn8   O22   1.938985 S    
C41   N1    1.457128 S    
O10   C8    1.268759 A    
N4    O33   1.300208 A    
C15   C17   1.533606 S    
Zn3   O23   1.914011 S    
C26   C32   1.204606 T    
C34   C37   1.526579 S    
C21   C27   1.549304 S    
C35   C40   1.558344 S    
C60   H14   1.110100 S    
C33   C38   1.526579 S    
H10   C27   1.110116 S    
C7    C38   1.461796 S    
C61   C63   1.546703 S    
O23   C1    1.279919 A    
O3    C1    1.279948 A    
C43   H11   1.110076 S    
C18   C20   1.533604 S    
O25   C3    1.282180 A    
C25   C31   1.204606 T    
C34   C36   1.536944 S    
Zn5   O25   1.915037 S    
C35   C37   1.542646 S    
Zn2   O6    1.913135 S    
C56   N6    1.457640 S    
N1    O28   1.300178 A    
C42   C49   1.538627 S    
O18   C12   1.273415 A    
Zn4   O12   1.939000 S    
C34   C40   1.536528 S    
C23   C28   1.549300 S    
C55   C57   1.526543 S    
C5    C66   1.468722 S    
C13   C19   1.546783 S    
Zn1   O19   1.939076 S    
N5    O36   1.300193 A    
C24   C30   1.536280 S    
N8    O41   1.300239 A    
O22   C8    1.270300 A    
C61   H21   1.110144 S    
C36   H26   1.110169 S    
C62   C65   1.535583 S    
N3    O31   1.300208 A    
N2    O29   1.300257 A    
C1    C45   1.425195 S    
