data_mof_unit_45658.cif
_audit_creation_date              2012-12-10T19:12:57-0500
_audit_creation_method            fapswitch 2.2
_symmetry_space_group_name_H-M    P1
_symmetry_Int_Tables_number       1
_space_group_crystal_system       triclinic
_cell_length_a                    8.746414
_cell_length_b                    16.017692
_cell_length_c                    14.784064
_cell_angle_alpha                 90.166674
_cell_angle_beta                  96.925371
_cell_angle_gamma                 89.755054
_cell_volume                      2056.07221374

loop_
_atom_site_label
_atom_site_type_symbol
_atom_type_description
_atom_site_fract_x
_atom_site_fract_y
_atom_site_fract_z
_atom_type_partial_charge
C1    C     C_R   0.500270 0.341016 0.499857 0.853832
C2    C     C_R   0.499764 0.658995 0.500119 0.866948
C3    C     C_R   0.494709 0.501171 0.902427 -0.163936
C4    C     C_R   0.494744 0.504040 0.096906 -0.163135
C5    C     C_R   0.376956 0.459495 0.943168 0.356398
C6    C     C_R   0.609487 0.547646 0.055990 0.276449
C7    C     C_1   0.497649 0.500009 0.802353 0.437479
C8    C     C_1   0.498510 0.501489 0.197425 0.396031
C9    C     C_R   0.204113 0.497856 0.478017 0.871275
C10   C     C_R   0.795904 0.502372 0.521911 0.860757
C11   C     C_2   0.042855 0.481545 0.470237 0.107411
C12   C     C_2   0.957003 0.519304 0.529201 0.047134
C13   C     C_R   0.381936 0.956487 0.537663 -0.169849
C14   C     C_R   0.615592 0.043606 0.460185 -0.172028
C15   C     C_R   0.500505 0.912639 0.500231 -0.074206
C16   C     C_R   0.497316 0.087432 0.497889 -0.068449
C17   C     C_R   0.619516 0.955437 0.463194 0.261121
C18   C     C_R   0.377715 0.044639 0.534312 0.346596
C19   C     C_1   0.500378 0.822739 0.500460 0.145636
C20   C     C_1   0.498468 0.177308 0.498624 0.166935
C21   C     C_1   0.499716 0.252208 0.499343 -0.016739
C22   C     C_1   0.499848 0.747825 0.500386 0.013732
C23   C     C_R   0.612535 0.543487 0.959542 -0.154020
C24   C     C_R   0.378348 0.460386 0.040227 -0.156380
Cu1   Cu    Cu3+1 0.500040 0.500000 0.589220 1.116267
Cu2   Cu    Cu3+1 0.499960 0.500000 0.410780 1.158523
N1    N     N_1   0.500050 0.499980 0.276720 -0.109265
N2    N     N_1   0.499950 0.500020 0.723280 -0.115145
O1    O     O_R   0.500070 0.380310 0.575330 -0.579241
O2    O     O_R   0.499930 0.619690 0.424670 -0.568641
O3    O     O_R   0.500000 0.380310 0.424640 -0.548012
O4    O     O_R   0.500000 0.619690 0.575360 -0.557405
O5    O     O_R   0.274870 0.500000 0.557960 -0.552927
O6    O     O_R   0.725130 0.500000 0.442040 -0.526049
O7    O     O_R   0.274790 0.500000 0.407270 -0.527617
O8    O     O_R   0.725210 0.500000 0.592730 -0.587634
S1    S     S_3+6 0.978100 0.396796 0.396834 0.045800
O9    O     O_2   0.875328 0.340222 0.443294 -0.306069
O10   O     O_2   0.890603 0.430609 0.310897 -0.197648
O11   O     O_3   0.129963 0.341349 0.369664 -0.512028
H1    H     H_    0.084821 0.295548 0.330063 0.398789
S2    S     S_3+6 0.020192 0.607016 0.598569 0.072040
O12   O     O_2   0.108746 0.577736 0.686237 -0.231461
O13   O     O_2   0.122427 0.661790 0.549647 -0.223339
O14   O     O_3   0.867974 0.664102 0.622395 -0.495986
H2    H     H_    0.839344 0.641071 0.680085 0.391155
S3    S     S_3+6 0.221423 0.102561 0.572654 0.038918
O15   O     O_2   0.079120 0.050461 0.573510 -0.241724
O16   O     O_2   0.271970 0.133757 0.667484 -0.262985
O17   O     O_3   0.174967 0.184727 0.504000 -0.499042
H3    H     H_    0.108819 0.220685 0.537796 0.408722
S4    S     S_3+6 0.774794 0.897320 0.423858 0.067822
O18   O     O_2   0.720950 0.863646 0.330544 -0.210918
O19   O     O_2   0.916052 0.949369 0.418797 -0.230549
O20   O     O_3   0.825573 0.816465 0.493527 -0.433795
H4    H     H_    0.859039 0.842208 0.553628 0.379202
C25   C     C_2   0.267491 0.910357 0.584855 0.539976
H5    H     H_    0.236978 0.933078 0.649539 0.116762
O21   O     O_2   0.204431 0.847764 0.551392 -0.452362
C26   C     C_2   0.729847 0.089888 0.413038 0.547208
H6    H     H_    0.758396 0.068068 0.347574 0.119069
O22   O     O_2   0.794648 0.151690 0.447302 -0.473260
S5    S     S_3+6 0.749928 0.608645 0.125341 0.059575
O23   O     O_2   0.891708 0.556040 0.148736 -0.181681
O24   O     O_2   0.792725 0.684735 0.074772 -0.252399
O25   O     O_3   0.687116 0.641047 0.222772 -0.464153
H7    H     H_    0.602856 0.681067 0.203520 0.363602
S6    S     S_3+6 0.226490 0.404532 0.874537 0.019579
O26   O     O_2   0.250081 0.312537 0.890832 -0.268420
O27   O     O_2   0.073745 0.429869 0.903280 -0.294653
O28   O     O_3   0.220366 0.422115 0.762137 -0.495936
H8    H     H_    0.132471 0.388679 0.733433 0.389129
C27   C     C_2   0.744573 0.580576 0.919119 0.523764
H9    H     H_    0.860218 0.575544 0.954645 0.156027
O29   O     O_2   0.725544 0.618584 0.847160 -0.539077
C28   C     C_2   0.257453 0.414293 0.082678 0.489831
H10   H     H_    0.214998 0.354929 0.055062 0.143627
O30   O     O_2   0.201370 0.442985 0.147902 -0.474956

loop_
_geom_bond_atom_site_label_1
_geom_bond_atom_site_label_2
_ccdc_geom_bond_type
O20   H4    S    
S5    O24   D    
C1    C21   S    
C27   H9    S    
C3    C23   A    
C4    C8    S    
C18   S3    S    
S3    O16   D    
O14   H2    S    
Cu1   N2    S    
C15   C19   S    
Cu2   N1    S    
C13   C18   A    
C26   O22   D    
C28   O30   D    
S1    O11   S    
C3    C7    S    
C4    C24   A    
C25   O21   D    
C13   C25   S    
C1    O3    A    
C2    O4    A    
C11   S1    S    
C12   S2    S    
Cu2   O6    S    
S6    O26   D    
C2    C22   S    
S4    O20   S    
Cu1   O4    S    
O25   H7    S    
S5    O25   S    
Cu2   O3    S    
C9    O5    A    
C27   O29   D    
C14   C17   A    
S2    O13   D    
C23   C27   S    
C5    S6    S    
C17   S4    S    
S4    O19   D    
S3    O17   S    
Cu1   O1    S    
C19   C22   T    
C28   H10   S    
C4    C6    A    
C24   C28   S    
Cu1   Cu2   S    
C7    N2    T    
C26   H6    S    
S2    O14   S    
C6    S5    S    
S1    O9    D    
S3    O15   D    
C16   C20   S    
C1    O1    A    
O17   H3    S    
C10   O6    A    
C9    C11   S    
C10   C12   S    
S6    O27   D    
O11   H1    S    
Cu2   O2    S    
C13   C15   A    
C14   C16   A    
S2    O12   D    
S4    O18   D    
C15   C17   A    
C3    C5    A    
C11   C12   D    
C14   C26   S    
C2    O2    A    
O28   H8    S    
S1    O10   D    
C25   H5    S    
C5    C24   A    
S6    O28   S    
C6    C23   A    
Cu1   O8    S    
S5    O23   D    
Cu2   O7    S    
C20   C21   T    
C16   C18   A    
C9    O7    A    
C8    N1    T    
C10   O8    A    
Cu1   O5    S    
