data_mof_unit_56565.cif
_audit_creation_date              2012-12-10T16:38:08-0500
_audit_creation_method            fapswitch 2.2
_symmetry_space_group_name_H-M    P1
_symmetry_Int_Tables_number       1
_space_group_crystal_system       triclinic
_cell_length_a                    28.497236
_cell_length_b                    18.587567
_cell_length_c                    16.996594
_cell_angle_alpha                 90.000119
_cell_angle_beta                  61.042314
_cell_angle_gamma                 89.999849
_cell_volume                      7877.42136335

loop_
_atom_site_label
_atom_site_type_symbol
_atom_type_description
_atom_site_fract_x
_atom_site_fract_y
_atom_site_fract_z
_atom_type_partial_charge
C1    C     C_R   0.706309 0.277630 0.672910 0.913007
C2    C     C_R   0.097529 0.500008 0.503722 0.051915
C3    C     C_R   0.193715 0.208633 0.905670 -0.002708
C4    C     C_R   0.614006 0.314942 0.046696 -0.182071
C5    C     C_R   0.385920 0.685002 0.953399 -0.182070
C6    C     C_R   0.385947 0.314969 0.953371 -0.182074
C7    C     C_R   0.613976 0.685101 0.046716 -0.182067
C8    C     C_R   0.113994 0.814930 0.046703 -0.182080
C9    C     C_R   0.885949 0.185026 0.953361 -0.182056
C10   C     C_R   0.885919 0.815002 0.953392 -0.182053
C11   C     C_R   0.114012 0.185062 0.046678 -0.182081
C12   C     C_R   0.640307 0.291762 0.093482 -0.198249
C13   C     C_R   0.402144 0.000008 0.497263 0.051948
C14   C     C_R   0.359617 0.708178 0.906619 -0.198208
C15   C     C_R   0.359649 0.291782 0.906585 -0.198210
C16   C     C_R   0.640267 0.708307 0.093513 -0.198236
C17   C     C_R   0.140286 0.791728 0.093500 -0.198279
C18   C     C_R   0.859648 0.208206 0.906576 -0.198212
C19   C     C_R   0.859613 0.791828 0.906616 -0.198210
C20   C     C_R   0.140307 0.208256 0.093468 -0.198249
C21   C     C_R   0.775817 0.281831 0.765311 0.635626
C22   C     C_R   0.224093 0.718066 0.234819 0.635481
C23   C     C_R   0.224120 0.281898 0.234779 0.635530
C24   C     C_R   0.597620 0.999993 0.503447 0.051915
C25   C     C_R   0.775793 0.718193 0.765350 0.635671
C26   C     C_R   0.275803 0.781808 0.765337 0.635652
C27   C     C_R   0.724129 0.218109 0.234770 0.635568
C28   C     C_R   0.724101 0.781924 0.234812 0.635504
C29   C     C_R   0.275833 0.218154 0.765293 0.635596
C30   C     C_R   0.803701 0.262988 0.810715 -0.275676
C31   C     C_R   0.196212 0.736906 0.189400 -0.275910
C32   C     C_R   0.196240 0.263054 0.189361 -0.275835
C33   C     C_R   0.803673 0.737038 0.810758 -0.275608
C34   C     C_R   0.303680 0.762959 0.810750 -0.275670
C35   C     C_R   0.100378 0.371008 0.487139 -0.037336
C36   C     C_R   0.696244 0.236950 0.189361 -0.275769
C37   C     C_R   0.696214 0.763086 0.189402 -0.275842
C38   C     C_R   0.303713 0.236999 0.810706 -0.275729
C39   C     C_R   0.072046 0.102803 0.936385 0.891215
C40   C     C_R   0.927936 0.897213 0.063632 0.891152
C41   C     C_R   0.927944 0.102794 0.063624 0.891160
C42   C     C_R   0.072040 0.897191 0.936392 0.891241
C43   C     C_R   0.572036 0.602812 0.936395 0.891235
C44   C     C_R   0.427941 0.397209 0.063628 0.891152
C45   C     C_R   0.427935 0.602785 0.063633 0.891140
C46   C     C_R   0.899194 0.629010 0.514032 -0.036643
C47   C     C_R   0.572042 0.397193 0.936390 0.891225
C48   C     C_R   0.550387 0.130117 0.493591 -0.185647
C49   C     C_R   0.449309 0.869883 0.507326 -0.185641
C50   C     C_R   0.449394 0.130134 0.507088 -0.185698
C51   C     C_R   0.550301 0.869869 0.493831 -0.185711
C52   C     C_R   0.050185 0.630132 0.494187 -0.185693
C53   C     C_R   0.949260 0.369865 0.507501 -0.185705
C54   C     C_R   0.949177 0.630118 0.507735 -0.185611
C55   C     C_R   0.050264 0.369885 0.493963 -0.185620
C56   C     C_R   0.525464 0.195778 0.495449 0.539810
C57   C     C_R   0.899269 0.370957 0.513840 -0.036603
C58   C     C_R   0.474219 0.804222 0.505525 0.539715
C59   C     C_R   0.474351 0.195790 0.505148 0.539659
C60   C     C_R   0.525333 0.804213 0.495828 0.539748
C61   C     C_R   0.025211 0.695787 0.496213 0.539818
C62   C     C_R   0.974216 0.304210 0.505571 0.539590
C63   C     C_R   0.974089 0.695780 0.505939 0.539642
C64   C     C_R   0.025335 0.304224 0.495852 0.539873
C65   C     C_R   0.475010 0.065035 0.501761 -0.043305
C66   C     C_R   0.524660 0.934967 0.499258 -0.043300
C67   C     C_R   0.524704 0.065030 0.499132 -0.043324
C68   C     C_R   0.100311 0.629024 0.487308 -0.037275
C69   C     C_R   0.474966 0.934973 0.501887 -0.043321
C70   C     C_R   0.974824 0.565028 0.502333 -0.043334
C71   C     C_R   0.024567 0.434971 0.499560 -0.043334
C72   C     C_R   0.024525 0.565035 0.499680 -0.043326
C73   C     C_R   0.974867 0.434966 0.502211 -0.043308
C74   C     C_R   0.950171 0.499994 0.501974 0.103609
C75   C     C_R   0.049253 0.500005 0.499802 0.103614
C76   C     C_R   0.450309 0.000006 0.501540 0.103609
C77   C     C_R   0.549379 0.999996 0.499412 0.103614
C78   C     C_R   0.877537 0.434485 0.497223 -0.035026
C79   C     C_R   0.600390 0.870970 0.487097 -0.037147
C80   C     C_R   0.122128 0.565510 0.503760 -0.034994
C81   C     C_R   0.122155 0.434511 0.503689 -0.035108
C82   C     C_R   0.877506 0.565492 0.497304 -0.035153
C83   C     C_R   0.377594 0.934508 0.497043 -0.035150
C84   C     C_R   0.622223 0.065491 0.503490 -0.035123
C85   C     C_R   0.622193 0.934489 0.503571 -0.035007
C86   C     C_R   0.377623 0.065513 0.496965 -0.035036
C87   C     C_R   0.833430 0.435794 0.478872 -0.232482
C88   C     C_R   0.166444 0.564206 0.521557 -0.232400
C89   C     C_R   0.166457 0.435805 0.521520 -0.232432
C90   C     C_R   0.399376 0.129038 0.513541 -0.036799
C91   C     C_R   0.833414 0.564194 0.478917 -0.232512
C92   C     C_R   0.333448 0.935805 0.478803 -0.232494
C93   C     C_R   0.666484 0.064195 0.521429 -0.232426
C94   C     C_R   0.666468 0.935794 0.521472 -0.232392
C95   C     C_R   0.333462 0.064205 0.478763 -0.232458
C96   C     C_R   0.815524 0.499997 0.462478 0.515860
C97   C     C_R   0.184460 0.500003 0.537728 0.515921
C98   C     C_R   0.315521 0.000003 0.462442 0.515866
C99   C     C_R   0.684470 0.999997 0.537667 0.515925
C100  C     C_R   0.399304 0.870994 0.513728 -0.036852
C101  C     C_R   0.293662 0.722323 0.327124 0.913247
C102  C     C_R   0.600464 0.128999 0.486904 -0.037189
C103  C     C_R   0.721916 0.270905 0.953169 0.021869
C104  C     C_R   0.277995 0.728969 0.046939 0.021875
C105  C     C_R   0.278025 0.270986 0.046903 0.021866
C106  C     C_R   0.721885 0.729133 0.953205 0.021865
C107  C     C_R   0.221893 0.770872 0.953197 0.021872
C108  C     C_R   0.778030 0.229022 0.046898 0.021872
C109  C     C_R   0.777995 0.771026 0.046937 0.021879
C110  C     C_R   0.221924 0.229081 0.953160 0.021860
C111  C     C_R   0.777407 0.253327 0.904726 -0.049406
C112  C     C_R   0.293669 0.277665 0.327115 0.913180
C113  C     C_R   0.222507 0.746554 0.095381 -0.049278
C114  C     C_R   0.222536 0.253403 0.095344 -0.049323
C115  C     C_R   0.777375 0.746709 0.904766 -0.049451
C116  C     C_R   0.277380 0.753291 0.904761 -0.049425
C117  C     C_R   0.722539 0.246605 0.095344 -0.049355
C118  C     C_R   0.722505 0.753444 0.095384 -0.049300
C119  C     C_R   0.277414 0.246660 0.904721 -0.049374
C120  C     C_R   0.805334 0.230666 0.951609 0.107346
C121  C     C_R   0.194588 0.769231 0.048485 0.107366
C122  C     C_R   0.194617 0.230729 0.048449 0.107359
C123  C     C_R   0.706303 0.722379 0.672917 0.912934
C124  C     C_R   0.805299 0.769374 0.951650 0.107330
C125  C     C_R   0.305301 0.730625 0.951650 0.107335
C126  C     C_R   0.694615 0.269272 0.048456 0.107357
C127  C     C_R   0.694579 0.730779 0.048493 0.107367
C128  C     C_R   0.305334 0.269329 0.951613 0.107349
C129  C     C_R   0.640234 0.316705 0.952274 0.111049
C130  C     C_R   0.359688 0.683200 0.047814 0.111031
C131  C     C_R   0.359712 0.316769 0.047789 0.111035
C132  C     C_R   0.640211 0.683323 0.952296 0.111044
C133  C     C_R   0.140222 0.816693 0.952286 0.111047
C134  C     C_R   0.206306 0.777625 0.672914 0.912947
C135  C     C_R   0.859719 0.183239 0.047779 0.111026
C136  C     C_R   0.859691 0.816794 0.047807 0.111029
C137  C     C_R   0.140245 0.183281 0.952260 0.111052
C138  C     C_R   0.615382 0.343635 0.901898 -0.134969
C139  C     C_R   0.384559 0.656290 0.098165 -0.134925
C140  C     C_R   0.384575 0.343689 0.098149 -0.134939
C141  C     C_R   0.615366 0.656383 0.901911 -0.134989
C142  C     C_R   0.115374 0.843627 0.901905 -0.134984
C143  C     C_R   0.884583 0.156321 0.098140 -0.134938
C144  C     C_R   0.884563 0.843704 0.098159 -0.134924
C145  C     C_R   0.793674 0.222342 0.327110 0.913216
C146  C     C_R   0.115392 0.156351 0.901886 -0.134972
C147  C     C_R   0.637403 0.327570 0.812078 -0.293555
C148  C     C_R   0.362535 0.672331 0.187987 -0.293536
C149  C     C_R   0.362550 0.327646 0.187971 -0.293521
C150  C     C_R   0.637390 0.672448 0.812090 -0.293536
C151  C     C_R   0.137396 0.827560 0.812086 -0.293523
C152  C     C_R   0.862560 0.172371 0.187961 -0.293525
C153  C     C_R   0.862541 0.827658 0.187979 -0.293538
C154  C     C_R   0.137416 0.172408 0.812065 -0.293528
C155  C     C_R   0.688162 0.298749 0.766164 -0.083977
C156  C     C_R   0.793666 0.777671 0.327120 0.913284
C157  C     C_R   0.311775 0.701148 0.233909 -0.084048
C158  C     C_R   0.311791 0.298824 0.233890 -0.084034
C159  C     C_R   0.688147 0.701272 0.766181 -0.083961
C160  C     C_R   0.188154 0.798736 0.766174 -0.083973
C161  C     C_R   0.811801 0.201191 0.233880 -0.084022
C162  C     C_R   0.811781 0.798840 0.233902 -0.084042
C163  C     C_R   0.188174 0.201230 0.766151 -0.083990
C164  C     C_R   0.719570 0.289338 0.810915 -0.064898
C165  C     C_R   0.280346 0.710536 0.189191 -0.064969
C166  C     C_R   0.280370 0.289426 0.189160 -0.064965
C167  C     C_R   0.206315 0.222360 0.672903 0.913013
C168  C     C_R   0.719548 0.710691 0.810944 -0.064886
C169  C     C_R   0.219557 0.789317 0.810934 -0.064918
C170  C     C_R   0.780380 0.210589 0.189149 -0.064955
C171  C     C_R   0.780353 0.789452 0.189183 -0.064958
C172  C     C_R   0.219585 0.210639 0.810899 -0.064925
C173  C     C_R   0.694621 0.128521 0.523290 0.951419
C174  C     C_R   0.305362 0.871481 0.476768 0.951540
C175  C     C_R   0.305369 0.128523 0.476745 0.951543
C176  C     C_R   0.694613 0.871475 0.523316 0.951425
C177  C     C_R   0.194606 0.628525 0.523339 0.951380
C178  C     C_R   0.902033 0.499991 0.497603 0.051942
C179  C     C_R   0.805362 0.371478 0.476770 0.951604
C180  C     C_R   0.805354 0.628517 0.476798 0.951594
C181  C     C_R   0.194614 0.371478 0.523315 0.951373
C182  C     C_R   0.693703 0.291347 0.905684 -0.002727
C183  C     C_R   0.306208 0.708525 0.094419 -0.002666
C184  C     C_R   0.306236 0.291434 0.094388 -0.002678
C185  C     C_R   0.693677 0.708686 0.905713 -0.002738
C186  C     C_R   0.193687 0.791324 0.905704 -0.002718
C187  C     C_R   0.806245 0.208579 0.094379 -0.002681
C188  C     C_R   0.806213 0.791465 0.094413 -0.002672
F1    F     F_    0.049475 0.240214 0.491797 -0.626679
F2    F     F_    0.220743 0.500000 0.568228 -0.627686
F3    F     F_    0.279397 0.999999 0.431598 -0.627751
F4    F     F_    0.720723 0.999999 0.568218 -0.627729
F5    F     F_    0.805444 0.301785 0.678427 -0.686097
F6    F     F_    0.194455 0.698192 0.321753 -0.685795
F7    F     F_    0.194481 0.301793 0.321700 -0.685843
F8    F     F_    0.805420 0.698221 0.678478 -0.686185
F9    F     F_    0.305436 0.801768 0.678456 -0.686053
F10   F     F_    0.694498 0.198200 0.321681 -0.685909
F11   F     F_    0.694469 0.801807 0.321739 -0.685835
F12   F     F_    0.949973 0.759798 0.509937 -0.626687
F13   F     F_    0.305466 0.198220 0.678397 -0.685991
F14   F     F_    0.950141 0.240181 0.509441 -0.626723
F15   F     F_    0.049312 0.759806 0.492279 -0.626711
F16   F     F_    0.549422 0.740192 0.491925 -0.626724
F17   F     F_    0.450273 0.259815 0.509023 -0.626719
F18   F     F_    0.450099 0.740204 0.509528 -0.626678
F19   F     F_    0.549596 0.259791 0.491418 -0.626688
F20   F     F_    0.779489 0.500001 0.431443 -0.627772
H1    H     H_    0.120033 0.320431 0.466556 0.280615
H2    H     H_    0.384235 0.658729 0.223650 0.197371
H3    H     H_    0.384245 0.341256 0.223640 0.197383
H4    H     H_    0.615705 0.658823 0.776408 0.197388
H5    H     H_    0.115710 0.841181 0.776406 0.197402
H6    H     H_    0.884256 0.158763 0.223630 0.197364
H7    H     H_    0.884241 0.841260 0.223642 0.197354
H8    H     H_    0.115726 0.158791 0.776389 0.197395
H9    H     H_    0.572114 0.329097 0.085990 0.165591
H10   H     H_    0.427821 0.670898 0.914104 0.165628
H11   H     H_    0.427845 0.329085 0.914082 0.165599
H12   H     H_    0.879629 0.679666 0.534120 0.280972
H13   H     H_    0.572083 0.670948 0.085997 0.165543
H14   H     H_    0.072104 0.829085 0.085987 0.165558
H15   H     H_    0.927846 0.170902 0.914071 0.165621
H16   H     H_    0.927818 0.829112 0.914094 0.165647
H17   H     H_    0.072117 0.170924 0.085964 0.165567
H18   H     H_    0.616965 0.293724 0.165708 0.157925
H19   H     H_    0.382975 0.706269 0.834392 0.157992
H20   H     H_    0.383009 0.293687 0.834356 0.157925
H21   H     H_    0.616910 0.706391 0.165740 0.157847
H22   H     H_    0.116939 0.793670 0.165725 0.157825
H23   H     H_    0.879736 0.320276 0.533886 0.280841
H24   H     H_    0.882999 0.206275 0.834348 0.157979
H25   H     H_    0.882964 0.793749 0.834392 0.158039
H26   H     H_    0.116953 0.206333 0.165693 0.157873
H27   H     H_    0.846656 0.259456 0.770153 0.183349
H28   H     H_    0.153259 0.740470 0.229958 0.183180
H29   H     H_    0.153287 0.259493 0.229921 0.183257
H30   H     H_    0.846628 0.740563 0.770199 0.183421
H31   H     H_    0.346634 0.759426 0.770191 0.183386
H32   H     H_    0.653288 0.240498 0.229921 0.183290
H33   H     H_    0.653261 0.759521 0.229970 0.183215
H34   H     H_    0.119944 0.679620 0.466744 0.280504
H35   H     H_    0.346668 0.240544 0.770144 0.183304
H36   H     H_    0.619990 0.820350 0.466669 0.280570
H37   H     H_    0.379820 0.179697 0.533713 0.280747
H38   H     H_    0.379721 0.820357 0.533932 0.280868
H39   H     H_    0.620093 0.179595 0.466444 0.280694
H40   H     H_    0.615714 0.341187 0.776401 0.197374
O1    O     O_R   0.746490 0.236330 0.638080 -0.570645
O2    O     O_R   0.325830 0.813840 0.483730 -0.644605
O3    O     O_R   0.325830 0.186160 0.483730 -0.644594
O4    O     O_R   0.674170 0.813840 0.516270 -0.644398
O5    O     O_R   0.174170 0.686160 0.516270 -0.644309
O6    O     O_R   0.825830 0.313840 0.483730 -0.644672
O7    O     O_R   0.825830 0.686160 0.483730 -0.644684
O8    O     O_R   0.174170 0.313840 0.516270 -0.644327
O9    O     O_R   0.739960 0.127620 0.525000 -0.553370
O10   O     O_R   0.260040 0.872380 0.475000 -0.553397
O11   O     O_R   0.260040 0.127620 0.475000 -0.553427
O12   O     O_R   0.253510 0.763670 0.361920 -0.570664
O13   O     O_R   0.739960 0.872380 0.525000 -0.553394
O14   O     O_R   0.239960 0.627620 0.525000 -0.553408
O15   O     O_R   0.760040 0.372380 0.475000 -0.553474
O16   O     O_R   0.760040 0.627620 0.475000 -0.553446
O17   O     O_R   0.239960 0.372380 0.525000 -0.553381
O18   O     O_R   0.680700 0.294870 0.629350 -0.642768
O19   O     O_R   0.319300 0.705130 0.370650 -0.642753
O20   O     O_R   0.319300 0.294870 0.370650 -0.642743
O21   O     O_R   0.680700 0.705130 0.629350 -0.642760
O22   O     O_R   0.180700 0.794870 0.629350 -0.642725
O23   O     O_R   0.253510 0.236330 0.361920 -0.570647
O24   O     O_R   0.819300 0.205130 0.370650 -0.642759
O25   O     O_R   0.819300 0.794870 0.370650 -0.642765
O26   O     O_R   0.180700 0.205130 0.629350 -0.642737
O27   O     O_R   0.062020 0.072840 0.007170 -0.619622
O28   O     O_R   0.937980 0.927160 0.992830 -0.619626
O29   O     O_R   0.937980 0.072840 0.992830 -0.619622
O30   O     O_R   0.062020 0.927160 0.007170 -0.619629
O31   O     O_R   0.562020 0.572840 0.007170 -0.619599
O32   O     O_R   0.437980 0.427160 0.992830 -0.619626
O33   O     O_R   0.437980 0.572840 0.992830 -0.619631
O34   O     O_R   0.746490 0.763670 0.638080 -0.570634
O35   O     O_R   0.562020 0.427160 0.007170 -0.619616
O36   O     O_R   0.947860 0.073950 0.109290 -0.612275
O37   O     O_R   0.052140 0.926050 0.890710 -0.612194
O38   O     O_R   0.052140 0.073950 0.890710 -0.612214
O39   O     O_R   0.947860 0.926050 0.109290 -0.612291
O40   O     O_R   0.447860 0.573950 0.109290 -0.612287
O41   O     O_R   0.552140 0.426050 0.890710 -0.612221
O42   O     O_R   0.552140 0.573950 0.890710 -0.612207
O43   O     O_R   0.447860 0.426050 0.109290 -0.612271
O44   O     O_R   0.246490 0.736330 0.638080 -0.570645
O45   O     O_R   0.753510 0.263670 0.361920 -0.570616
O46   O     O_R   0.753510 0.736330 0.361920 -0.570625
O47   O     O_R   0.246490 0.263670 0.638080 -0.570659
O48   O     O_R   0.674170 0.186160 0.516270 -0.644415
Zn1   Zn    Zn3+2 0.792340 0.208750 0.507670 1.104789
Zn2   Zn    Zn3+2 0.494040 0.500000 0.919480 0.983838
Zn3   Zn    Zn3+2 0.005960 0.000000 0.080520 0.983641
Zn4   Zn    Zn3+2 0.994040 0.000000 0.919480 0.983901
Zn5   Zn    Zn3+2 0.207660 0.791250 0.492330 1.104947
Zn6   Zn    Zn3+2 0.207660 0.208750 0.492330 1.104946
Zn7   Zn    Zn3+2 0.792340 0.791250 0.507670 1.104789
Zn8   Zn    Zn3+2 0.292340 0.708750 0.507670 1.104853
Zn9   Zn    Zn3+2 0.707660 0.291250 0.492330 1.104866
Zn10  Zn    Zn3+2 0.707660 0.708750 0.492330 1.104869
Zn11  Zn    Zn3+2 0.292340 0.291250 0.507670 1.104853
Zn12  Zn    Zn3+2 0.505960 0.500000 0.080520 0.983701

loop_
_geom_bond_atom_site_label_1
_geom_bond_atom_site_label_2
_ccdc_geom_bond_type
O32   Zn2   S    
C108  C120  A    
O17   Zn11  S    
C79   C85   A    
O5    Zn5   S    
C88   C177  S    
O13   Zn7   S    
O14   Zn8   S    
C50   C59   A    
C41   C143  S    
C52   C61   A    
C180  O16   A    
C96   F20   S    
C12   C126  A    
C54   C63   A    
C40   O28   A    
C58   C60   A    
C43   O42   A    
C45   C139  S    
C61   C63   A    
C26   F9    S    
C95   C175  S    
C62   C64   A    
C131  C140  A    
C91   C96   A    
C179  O6    A    
C179  O15   A    
C50   C90   A    
C162  C171  A    
C170  C187  A    
C70   C74   A    
C30   H27   S    
C4    C12   A    
C147  C155  A    
C24   C85   A    
C112  O20   A    
O8    Zn6   S    
C88   C97   A    
C10   H16   S    
C119  C128  A    
C39   O38   A    
C49   C69   A    
C27   F10   S    
O26   Zn6   S    
O27   Zn3   S    
C109  C118  A    
C173  O48   A    
C11   C20   A    
C150  C159  A    
C165  C183  A    
C137  C146  A    
C37   H33   S    
O15   Zn9   S    
C86   C90   A    
C71   C73   A    
C152  H6    S    
C106  C127  A    
C82   C91   A    
C51   C66   A    
C150  H4    S    
C142  C151  A    
C173  O9    A    
C52   C72   A    
C131  C184  A    
C105  C114  A    
C54   C70   A    
C82   C178  A    
C36   C117  A    
C7    C132  A    
C112  C158  S    
C38   C119  A    
C5    C130  A    
C83   C100  A    
C47   O41   A    
C153  H7    S    
C66   C77   A    
C40   O39   A    
C57   C78   A    
O33   Zn2   S    
C176  O4    A    
C17   H22   S    
O46   Zn10  S    
C15   H20   S    
O36   Zn3   S    
C8    C17   A    
C56   C59   A    
C106  C115  A    
C80   C88   A    
O6    Zn1   S    
C56   F19   S    
C145  C161  S    
O2    Zn8   S    
C93   C173  S    
C84   C93   A    
C105  C184  A    
O7    Zn7   S    
C86   C95   A    
C24   C77   A    
C104  C183  A    
C43   O31   A    
O3    Zn11  S    
C151  H5    S    
O43   Zn12  S    
C2    C81   A    
C55   C71   A    
C2    C75   A    
C78   C87   A    
C134  C160  S    
C84   C102  A    
C67   C77   A    
C38   H35   S    
C133  C142  A    
C45   O40   A    
C123  C159  S    
C130  C183  A    
C99   F4    S    
C7    H13   S    
C1    O1    A    
C32   H29   S    
C3    C110  A    
C90   H37   S    
C16   H21   S    
C69   C76   A    
C85   C94   A    
C103  C126  A    
O40   Zn12  S    
C33   H30   S    
C46   C82   A    
C12   H18   S    
C60   F16   S    
C29   C38   A    
C149  C158  A    
C20   C122  A    
C152  C161  A    
C135  C143  A    
C48   C67   A    
C136  C188  A    
C72   C75   A    
C112  O23   A    
C135  C187  A    
C180  O7    A    
C141  C150  A    
O22   Zn5   S    
C25   C168  A    
C139  C148  A    
C28   F11   S    
C46   H12   S    
C104  C125  A    
C154  H8    S    
C157  C165  A    
C92   C174  S    
C181  O8    A    
C175  O3    A    
C91   C180  S    
C25   F8    S    
C47   O35   A    
C9    C135  A    
C147  H40   S    
C116  C125  A    
O37   Zn4   S    
C118  C127  A    
O20   Zn11  S    
C8    H14   S    
O35   Zn12  S    
C117  C126  A    
C39   O27   A    
C132  C141  A    
C108  C117  A    
C102  H39   S    
C98   F3    S    
C110  C119  A    
C174  O10   A    
C134  O22   A    
C59   F17   S    
C44   O32   A    
C28   C37   A    
C47   C138  S    
C148  C157  A    
C50   C65   A    
C51   C79   A    
C107  C116  A    
C41   O29   A    
C104  C113  A    
C9    C18   A    
C113  C121  A    
C94   C176  S    
C51   C60   A    
C21   F5    S    
C140  C149  A    
C31   C113  A    
C25   C33   A    
O47   Zn11  S    
C129  C182  A    
C36   H32   S    
C44   O43   A    
C73   C74   A    
O42   Zn2   S    
C41   O36   A    
C64   F1    S    
C107  C186  A    
C65   C76   A    
O39   Zn3   S    
C171  C188  A    
C145  O24   A    
C134  O44   A    
C169  C186  A    
C42   O30   A    
C3    C172  A    
C58   F18   S    
O48   Zn9   S    
C63   F12   S    
C103  C111  A    
C62   F14   S    
C1    O18   A    
C65   C67   A    
C160  C169  A    
C3    C137  A    
C93   C99   A    
C81   C89   A    
C123  O21   A    
C8    C133  A    
C101  C157  S    
C44   C140  S    
C21   C164  A    
O19   Zn8   S    
C130  C139  A    
C167  O26   A    
O28   Zn4   S    
O12   Zn5   S    
C33   C115  A    
C29   F13   S    
C53   C57   A    
C132  C185  A    
C177  O14   A    
O29   Zn4   S    
O30   Zn3   S    
C10   C19   A    
C11   H17   S    
C48   C102  A    
C46   C54   A    
C166  C184  A    
C79   H36   S    
C34   H31   S    
C27   C170  A    
C5    C14   A    
O34   Zn7   S    
C181  O17   A    
C17   C121  A    
C7    C16   A    
C15   C128  A    
C43   C141  S    
C107  C121  A    
O16   Zn10  S    
C158  C166  A    
C115  C124  A    
C78   C178  A    
C149  H3    S    
C106  C185  A    
C6    C131  A    
C123  O34   A    
C4    C129  A    
C27   C36   A    
C21   C30   A    
C13   C83   A    
O11   Zn6   S    
O4    Zn10  S    
C156  O46   A    
C153  C162  A    
C23   C32   A    
C11   C137  A    
C136  C144  A    
C110  C122  A    
O31   Zn12  S    
C39   C146  S    
C24   C84   A    
C42   O37   A    
C164  C182  A    
O21   Zn10  S    
C176  O13   A    
C18   H24   S    
O23   Zn6   S    
O18   Zn9   S    
C89   C181  S    
C68   C80   A    
O1    Zn1   S    
C74   C178  A    
C103  C182  A    
C108  C187  A    
C35   C81   A    
C95   C98   A    
C92   C98   A    
C83   C92   A    
C14   C125  A    
O41   Zn2   S    
C10   C136  A    
C57   H23   S    
C66   C69   A    
C34   C116  A    
C101  O12   A    
C159  C168  A    
C144  C153  A    
C1    C155  S    
C6    C15   A    
C22   C165  A    
C26   C34   A    
C129  C138  A    
C5    H10   S    
C26   C169  A    
C68   H34   S    
C146  C154  A    
C13   C86   A    
C42   C142  S    
C52   C68   A    
C101  O19   A    
C156  C162  S    
O38   Zn4   S    
C19   H25   S    
C16   C127  A    
C109  C188  A    
C167  O47   A    
C19   C124  A    
C45   O33   A    
C22   C31   A    
C37   C118  A    
C35   C55   A    
C154  C163  A    
C100  H38   S    
C174  O2    A    
C49   C58   A    
C89   C97   A    
C111  C120  A    
C163  C167  S    
C163  C172  A    
C148  H2    S    
C23   C166  A    
O45   Zn9   S    
C53   C62   A    
C9    H15   S    
C28   C171  A    
C13   C76   A    
C138  C147  A    
C87   C96   A    
C156  O25   A    
C133  C186  A    
C161  C170  A    
C97   F2    S    
C20   H26   S    
C40   C144  S    
C23   F7    S    
C18   C120  A    
O9    Zn1   S    
C48   C56   A    
C143  C152  A    
C168  C185  A    
C105  C128  A    
O10   Zn5   S    
C53   C73   A    
O25   Zn7   S    
C109  C124  A    
C55   C64   A    
C155  C164  A    
C177  O5    A    
C31   H28   S    
C30   C111  A    
C151  C160  A    
C35   H1    S    
C14   H19   S    
C145  O45   A    
C61   F15   S    
C49   C100  A    
C71   C75   A    
C94   C99   A    
O44   Zn8   S    
C29   C172  A    
C2    C80   A    
C87   C179  S    
C6    H11   S    
C114  C122  A    
C4    H9    S    
C22   F6    S    
C70   C72   A    
C32   C114  A    
O24   Zn1   S    
C175  O11   A    
