data_mof_unit_18908.cif
_audit_creation_date              2012-12-11T14:15:37-0500
_audit_creation_method            fapswitch 2.2
_symmetry_space_group_name_H-M    P1
_symmetry_Int_Tables_number       1
_space_group_crystal_system       triclinic
_cell_length_a                    11.136839
_cell_length_b                    12.721291
_cell_length_c                    23.592661
_cell_angle_alpha                 89.797967
_cell_angle_beta                  96.356331
_cell_angle_gamma                 68.755557
_cell_volume                      3092.75448749

loop_
_atom_site_label
_atom_site_type_symbol
_atom_type_description
_atom_site_fract_x
_atom_site_fract_y
_atom_site_fract_z
_atom_type_partial_charge
C1    C     C_R   0.149124 0.617275 0.428878 0.533164
C2    C     C_R   0.589075 0.610677 0.322018 0.258884
C3    C     C_R   0.735660 0.714212 0.318000 -0.178120
C4    C     C_R   0.700060 0.735558 0.259948 0.026486
C5    C     C_R   0.607297 0.695156 0.233030 -0.004088
C6    C     C_R   0.575676 0.710875 0.175023 -0.113084
C7    C     C_R   0.727684 0.806378 0.168712 -0.132229
C8    C     C_R   0.759166 0.792346 0.227871 -0.125715
C9    C     C_1   0.235410 0.161071 0.122966 -0.000491
C10   C     C_2   0.181586 0.232017 0.226222 -0.121690
C11   C     C_2   0.156776 0.165024 0.263704 -0.120551
C12   C     C_R   0.747924 0.605765 0.405058 0.571994
C13   C     C_1   0.133628 0.199804 0.321103 -0.050450
C14   C     C_1   0.210368 0.195709 0.169562 -0.045017
C15   C     C_1   0.116830 0.233128 0.368594 -0.007279
C16   C     C_1   0.167119 0.747536 0.123241 -0.012605
C17   C     C_2   0.149903 0.675930 0.226696 -0.146210
C18   C     C_2   0.218817 0.698411 0.272119 -0.129133
C19   C     C_1   0.208857 0.663486 0.329145 -0.017323
C20   C     C_1   0.156823 0.714675 0.169915 -0.057617
C21   C     C_1   0.190991 0.638659 0.376074 0.006374
C22   C     C_1   0.622494 0.762419 0.863462 0.007028
C23   C     C_R   0.101230 0.282914 0.423309 0.537882
C24   C     C_2   0.688202 0.737657 0.758012 0.052530
C25   C     C_2   0.619587 0.695130 0.719888 -0.160698
C26   C     C_1   0.653402 0.665309 0.663028 -0.008611
C27   C     C_1   0.654324 0.750954 0.815877 -0.030725
C28   C     C_1   0.690250 0.637590 0.617166 0.028186
C29   C     C_R   0.209177 0.175308 0.851636 -0.011158
C30   C     C_R   0.113315 0.214688 0.638680 -0.004235
C31   C     C_R   0.003547 0.185594 0.716673 -0.151773
C32   C     C_R   0.003244 0.205854 0.658725 -0.170160
C33   C     C_R   0.228264 0.190003 0.676083 0.261072
C34   C     C_R   0.148907 0.614491 0.590881 0.562013
C35   C     C_R   0.220002 0.195488 0.734875 0.015470
C36   C     C_R   0.108436 0.185864 0.755221 -0.021230
C37   C     C_R   0.105660 0.172302 0.813700 -0.140073
C38   C     C_R   0.305055 0.208259 0.831724 -0.132483
C39   C     C_R   0.317768 0.210672 0.774091 0.041787
C40   C     C_R   0.149240 0.770955 0.845706 0.075956
C41   C     C_R   0.188329 0.624626 0.650089 0.012397
C42   C     C_R   0.216302 0.542136 0.745077 -0.121628
C43   C     C_R   0.212420 0.530852 0.686963 -0.147150
C44   C     C_R   0.171978 0.730742 0.671213 0.238002
C45   C     C_R   0.749349 0.601900 0.565877 0.548585
C46   C     C_R   0.167197 0.743839 0.729676 0.009378
C47   C     C_R   0.194120 0.648095 0.767253 0.009681
C48   C     C_R   0.192992 0.661366 0.826104 0.265008
C49   C     C_R   0.115376 0.865284 0.807799 -0.143209
C50   C     C_R   0.128071 0.851838 0.750640 -0.134024
C51   C     C_R   0.265725 0.109500 0.069507 0.543096
C52   C     C_R   0.595693 0.776005 0.081962 0.543640
C53   C     C_R   0.189507 0.787441 0.069738 0.547395
C54   C     C_R   0.241938 0.115486 0.907379 0.542004
C55   C     C_R   0.572677 0.777600 0.917740 0.548705
C56   C     C_R   0.100892 0.275795 0.584418 0.546660
C57   C     C_R   0.167040 0.790288 0.905666 0.584324
C58   C     C_R   0.638113 0.762815 0.142444 0.026175
C59   C     C_R   0.684178 0.648686 0.348540 0.029205
C60   C     C_R   0.549297 0.636590 0.263853 -0.141270
Cr1   Cr    Cr6+3 0.189770 0.415650 0.511620 1.041044
Cr2   Cr    Cr6+3 0.930400 0.667320 0.496770 1.038416
Cr3   Cr    Cr6+3 0.879870 0.417010 0.491650 1.019963
Cr4   Cr    Cr6+3 0.149500 0.973980 0.985330 1.036195
Cr5   Cr    Cr6+3 0.457000 0.976510 0.994660 1.041996
Cr6   Cr    Cr6+3 0.411170 0.724270 0.995270 1.005774
H1    H     H_    0.501490 0.681693 0.155071 0.135547
H2    H     H_    0.087731 0.628471 0.231929 0.135250
H3    H     H_    0.540022 0.674328 0.733061 0.100655
H4    H     H_    0.027915 0.152503 0.829236 0.129744
H5    H     H_    0.380481 0.219135 0.861665 0.156013
H6    H     H_    0.918393 0.177971 0.731674 0.138182
H7    H     H_    0.915232 0.219954 0.630144 0.145613
H8    H     H_    0.773506 0.849299 0.143707 0.124461
H9    H     H_    0.086549 0.949999 0.822968 0.142161
H10   H     H_    0.227474 0.469217 0.771881 0.170894
H11   H     H_    0.105172 0.926392 0.722980 0.169724
H12   H     H_    0.217062 0.450298 0.670482 0.202668
H13   H     H_    0.476314 0.608397 0.242200 0.101584
H14   H     H_    0.830678 0.823794 0.248320 0.115768
H15   H     H_    0.810662 0.741723 0.338455 0.139258
H16   H     H_    0.156302 0.082742 0.251814 0.136188
H17   H     H_    0.182852 0.313976 0.238306 0.130999
H18   H     H_    0.278158 0.748408 0.266944 0.142649
O1    O     O_R   0.196340 0.303200 0.448500 -0.514659
O2    O     O_R   0.811960 0.658090 0.547150 -0.479118
O3    O     O_R   0.757930 0.506140 0.547110 -0.515114
O4    O     O_R   0.988670 0.321620 0.556040 -0.515177
O5    O     O_3   0.000020 0.499990 0.500010 -0.259539
O6    O     O_R   0.113660 0.883270 0.047820 -0.500639
O7    O     O_R   0.186930 0.068530 0.043990 -0.494798
O8    O     O_R   0.377770 0.089040 0.054220 -0.509079
O9    O     O_R   0.562800 0.872960 0.056970 -0.495038
O10   O     O_R   0.555390 0.700940 0.062700 -0.522783
O11   O     O_R   0.295020 0.731920 0.049950 -0.505575
O12   O     O_R   0.199310 0.519670 0.454880 -0.501022
O13   O     O_R   0.094290 0.884230 0.921550 -0.513752
O14   O     O_R   0.168980 0.069410 0.926940 -0.505938
O15   O     O_R   0.358400 0.089990 0.927950 -0.515409
O16   O     O_R   0.544850 0.873850 0.939920 -0.478898
O17   O     O_R   0.536020 0.701900 0.936430 -0.529905
O18   O     O_R   0.277070 0.732810 0.932890 -0.499548
O19   O     O_3   0.339220 0.891590 0.991750 -0.257887
O20   O     O_R   0.045660 0.691380 0.441680 -0.521072
O21   O     O_R   0.811930 0.659460 0.430950 -0.523784
O22   O     O_R   0.757900 0.507620 0.421760 -0.477833
O23   O     O_R   0.988630 0.322990 0.439840 -0.502323
O24   O     O_R   0.196380 0.301720 0.573850 -0.451361
O25   O     O_R   0.199350 0.518300 0.571080 -0.513553
O26   O     O_R   0.045700 0.689900 0.567030 -0.458985
C61   C     C_2   0.796291 0.772397 0.744021 0.596908
O27   O     O_2   0.860374 0.800453 0.782263 -0.505084
O28   O     O_R   0.823580 0.776186 0.687780 -0.705289
H19   H     H_    0.896066 0.805198 0.684226 0.354610
C62   C     C_2   0.436361 0.226350 0.758582 0.583220
O29   O     O_2   0.542031 0.171260 0.784802 -0.529504
O30   O     O_R   0.427986 0.306081 0.716044 -0.684374
H20   H     H_    0.515660 0.308893 0.710283 0.335029
O31   O     O_3   0.344606 0.171484 0.654692 -0.502279
C63   C     C_3   0.411830 0.053967 0.653598 -0.009419
H21   H     H_    0.359507 0.017395 0.621538 0.114204
H22   H     H_    0.423748 0.010909 0.696263 0.129260
C64   C     C_3   0.546149 0.031602 0.636371 -0.337211
H23   H     H_    0.602820 0.064247 0.668561 0.192011
H24   H     H_    0.598000 0.939358 0.633598 0.139473
H25   H     H_    0.537958 0.073801 0.594060 0.157259
O32   O     O_3   0.226457 0.569440 0.864476 -0.562143
C65   C     C_3   0.363192 0.513918 0.872717 -0.008529
H26   H     H_    0.415646 0.573917 0.874369 0.155610
H27   H     H_    0.396587 0.455629 0.837980 0.132634
C66   C     C_3   0.401827 0.444194 0.928834 -0.338149
H28   H     H_    0.373702 0.500212 0.964944 0.171547
H29   H     H_    0.352624 0.382228 0.928368 0.154501
H30   H     H_    0.508493 0.397903 0.935139 0.101637
O33   O     O_3   0.138695 0.824378 0.634202 -0.556244
C67   C     C_3   0.251130 0.825165 0.612121 -0.013537
H31   H     H_    0.310162 0.741320 0.596998 0.120378
H32   H     H_    0.312506 0.850870 0.645464 0.115038
C68   C     C_3   0.210449 0.909492 0.561269 -0.358896
H33   H     H_    0.154156 0.995217 0.574696 0.151293
H34   H     H_    0.297700 0.911294 0.543248 0.092485
H35   H     H_    0.149256 0.884479 0.527652 0.176901
O34   O     O_3   0.531916 0.554743 0.354494 -0.545200
C69   C     C_3   0.540100 0.450425 0.331213 -0.000620
H36   H     H_    0.636929 0.404888 0.316720 0.133536
H37   H     H_    0.462634 0.463818 0.294913 0.129002
C70   C     C_3   0.519796 0.375639 0.376770 -0.346560
H38   H     H_    0.422858 0.417031 0.391364 0.173357
H39   H     H_    0.525612 0.293452 0.358993 0.094874
H40   H     H_    0.595803 0.360116 0.413838 0.167262

loop_
_geom_bond_atom_site_label_1
_geom_bond_atom_site_label_2
_ccdc_geom_bond_type
Cr5   O8    S    
C12   O22   A    
C65   C66   S    
C60   H13   S    
C1    C21   S    
Cr3   O4    S    
C53   O11   A    
C68   H34   S    
C6    C58   A    
C35   C36   A    
C9    C51   S    
C24   C27   S    
Cr4   O6    S    
C12   O21   A    
C4    C8    A    
C66   H30   S    
Cr1   O25   S    
C65   H26   S    
Cr1   O12   S    
C7    C8    A    
Cr2   O21   S    
C43   H12   S    
C57   O18   A    
Cr2   O2    S    
C36   C37   A    
C45   O3    A    
C67   C68   S    
C38   C39   A    
Cr1   O1    S    
C68   H35   S    
C2    C60   A    
C64   H24   S    
C29   C54   S    
O34   C69   S    
Cr2   O5    S    
C10   H17   S    
C17   C20   S    
C18   C19   S    
Cr1   O24   S    
Cr6   O18   S    
C16   C53   S    
C56   O24   A    
C70   H38   S    
C51   O7    A    
C38   H5    S    
C12   C59   S    
C61   O27   D    
Cr1   O5    S    
C62   O30   S    
C55   O16   A    
C3    H15   S    
C18   H18   S    
C49   H9    S    
O32   C65   S    
C52   O10   A    
O33   C67   S    
C7    C58   A    
C30   C33   A    
C63   C64   S    
Cr6   O10   S    
Cr3   O3    S    
C44   O33   S    
C15   C23   S    
C23   O23   A    
C37   H4    S    
C2    O34   S    
C41   C43   A    
Cr6   O17   S    
C24   C61   S    
C69   C70   S    
C44   C46   A    
C7    H8    S    
Cr2   O20   S    
C11   H16   S    
C68   H33   S    
C28   C45   S    
C64   H23   S    
C70   H40   S    
C24   C25   D    
Cr5   O15   S    
C69   H37   S    
C10   C14   S    
C32   H7    S    
C2    C59   A    
C69   H36   S    
C64   H25   S    
C25   C26   S    
C30   C56   S    
C29   C38   A    
C35   C39   A    
C9    C14   T    
C34   C41   S    
C51   O8    A    
C47   C48   A    
Cr2   O26   S    
C16   C20   T    
C57   O13   A    
Cr3   O5    S    
C17   C18   D    
C52   O9    A    
C61   O28   S    
Cr3   O22   S    
C1    O20   A    
C52   C58   S    
C67   H32   S    
Cr4   O13   S    
C33   O31   S    
C39   C62   S    
C22   C27   T    
C13   C15   T    
C34   O26   A    
C41   C44   A    
C54   O15   A    
C25   H3    S    
C42   C43   A    
Cr5   O19   S    
Cr3   O23   S    
C3    C4    A    
C50   H11   S    
C63   H21   S    
C63   H22   S    
O28   H19   S    
C40   C48   A    
C46   C50   A    
C46   C47   A    
C31   H6    S    
C17   H2    S    
C40   C57   S    
C5    C60   A    
C70   H39   S    
C26   C28   T    
Cr6   O19   S    
C31   C32   A    
Cr5   O16   S    
C4    C5    A    
C66   H29   S    
C65   H27   S    
O31   C63   S    
C22   C55   S    
C55   O17   A    
C42   H10   S    
C45   O2    A    
C6    H1    S    
O30   H20   S    
C48   O32   S    
C30   C32   A    
C11   C13   S    
C62   O29   D    
C5    C6    A    
C1    O12   A    
Cr4   O14   S    
Cr5   O9    S    
C33   C35   A    
C42   C47   A    
C66   H28   S    
Cr4   O19   S    
C56   O4    A    
C10   C11   D    
C49   C50   A    
C23   O1    A    
C29   C37   A    
C53   O6    A    
C8    H14   S    
C34   O25   A    
C31   C36   A    
C54   O14   A    
Cr4   O7    S    
C67   H31   S    
C40   C49   A    
Cr6   O11   S    
C19   C21   T    
C3    C59   A    
