data_mof_unit_66904.cif
_audit_creation_date              2013-03-05T15:57:26-0500
_audit_creation_method            fapswitch 2.2
_symmetry_space_group_name_H-M    P1
_symmetry_Int_Tables_number       1
_space_group_crystal_system       triclinic
_cell_length_a                    17.195607
_cell_length_b                    18.525749
_cell_length_c                    8.434086
_cell_angle_alpha                 90.151337
_cell_angle_beta                  101.80223
_cell_angle_gamma                 89.772458
_cell_volume                      2629.94978986

loop_
_atom_site_label
_atom_site_type_symbol
_atom_site_description
_atom_site_fract_x
_atom_site_fract_y
_atom_site_fract_z
_atom_type_partial_charge
P1    P     P_3+3 0.834140 0.419320 0.003900 0.960550
P2    P     P_3+3 0.834140 0.580680 0.503900 0.944474
P3    P     P_3+3 0.334140 0.919320 0.003900 0.989969
P4    P     P_3+3 0.334140 0.080680 0.503900 0.956004
O1    O     O_2   0.841960 0.394640 0.833410 -0.498593
O2    O     O_2   0.841960 0.605360 0.333410 -0.466583
O3    O     O_2   0.341960 0.894640 0.833410 -0.454194
O4    O     O_2   0.341960 0.105360 0.333410 -0.492712
O5    O     O_3   0.907950 0.463080 0.102990 -0.475420
O6    O     O_3   0.907950 0.536920 0.602990 -0.480467
O7    O     O_3   0.407950 0.963080 0.102990 -0.504462
O8    O     O_3   0.407950 0.036920 0.602990 -0.478556
O9    O     O_3   0.972780 0.329600 0.629720 -0.462674
O10   O     O_3   0.972780 0.670400 0.129720 -0.465310
O11   O     O_3   0.472780 0.829600 0.629720 -0.470539
O12   O     O_3   0.472780 0.170400 0.129720 -0.472228
O13   O     O_2   0.843514 0.274061 0.702278 -0.495316
O14   O     O_2   0.836209 0.720674 0.181975 -0.465138
O15   O     O_2   0.336360 0.779474 0.685259 -0.476641
O16   O     O_2   0.333679 0.219121 0.176939 -0.464085
O17   O     O_3   0.752960 0.478654 0.975318 -0.674328
O18   O     O_3   0.750184 0.525499 0.465169 -0.711812
O19   O     O_3   0.249989 0.973951 0.963085 -0.643534
O20   O     O_3   0.249911 0.026435 0.479071 -0.681598
O21   O     O_3   0.939759 0.179128 0.635967 -0.589531
O22   O     O_3   0.935280 0.820371 0.150230 -0.603247
O23   O     O_3   0.435072 0.680909 0.643205 -0.598148
O24   O     O_3   0.436501 0.317381 0.155238 -0.601383
H1    H     H_    0.017722 0.168331 0.482101 -0.050976
H2    H     H_    0.012392 0.840380 0.996465 0.035747
H3    H     H_    0.520995 0.665346 0.507031 -0.004338
H4    H     H_    0.553443 0.337896 0.157680 0.117722
C1    C     C_3   0.969139 0.064889 0.529777 -0.370994
C2    C     C_3   0.964080 0.939997 0.072627 -0.335816
C3    C     C_3   0.464374 0.564844 0.550465 -0.356969
C4    C     C_3   0.476845 0.417158 0.017100 -0.427262
H5    H     H_    0.486776 0.554129 0.680907 0.168176
H6    H     H_    0.523490 0.437768 0.955936 0.086608
H7    H     H_    0.007447 0.052335 0.648917 0.104730
H8    H     H_    0.000996 0.968047 0.998447 0.093579
H9    H     H_    0.909385 0.041544 0.525740 0.121061
H10   H     H_    0.991943 0.946076 0.202432 0.118464
H11   H     H_    0.403426 0.542326 0.516176 0.109554
H12   H     H_    0.474516 0.451375 0.124138 0.123227
P5    P     P_3+3 0.165830 0.418670 0.685610 0.965244
P6    P     P_3+3 0.165830 0.581330 0.185610 0.967657
P7    P     P_3+3 0.665830 0.918670 0.685610 0.961132
P8    P     P_3+3 0.665830 0.081330 0.185610 0.965841
P9    P     P_3+3 0.104011 0.266564 0.112898 0.999652
P10   P     P_3+3 0.101374 0.734837 0.614294 0.946676
P11   P     P_3+3 0.602335 0.765457 0.114686 0.950600
P12   P     P_3+3 0.600212 0.235363 0.611191 0.951615
O25   O     O_2   0.157990 0.394030 0.856030 -0.465280
O26   O     O_2   0.157990 0.605970 0.356030 -0.469727
O27   O     O_2   0.657990 0.894030 0.856030 -0.464239
O28   O     O_2   0.657990 0.105970 0.356030 -0.468004
O29   O     O_3   0.027110 0.329490 0.059550 -0.470412
O30   O     O_3   0.027110 0.670510 0.559550 -0.482774
O31   O     O_3   0.527110 0.829490 0.059550 -0.488883
O32   O     O_3   0.527110 0.170510 0.559550 -0.484254
O33   O     O_2   0.164285 0.279437 0.003682 -0.425149
O34   O     O_2   0.159751 0.726236 0.498974 -0.497512
O35   O     O_2   0.663120 0.776887 0.005874 -0.499026
O36   O     O_2   0.657585 0.222224 0.495975 -0.469121
O37   O     O_3   0.248429 0.475713 0.723718 -0.649976
O38   O     O_3   0.248908 0.524412 0.221851 -0.645042
O39   O     O_3   0.749241 0.974414 0.726097 -0.645543
O40   O     O_3   0.748575 0.024020 0.221381 -0.649128
O41   O     O_3   0.063045 0.183213 0.048552 -0.587105
O42   O     O_3   0.057060 0.818941 0.568429 -0.615790
O43   O     O_3   0.561921 0.680607 0.060341 -0.582509
O44   O     O_3   0.555489 0.318134 0.550406 -0.596274
C5    C     C_3   0.010133 0.163133 0.146976 0.318552
C6    C     C_3   0.980224 0.816258 0.601308 0.368763
C7    C     C_3   0.483746 0.679674 0.085886 0.384490
C8    C     C_3   0.476965 0.315928 0.574294 0.369558
H13   H     H_    0.988840 0.208864 0.213185 -0.057040
H14   H     H_    0.939966 0.786269 0.503270 0.084525
H15   H     H_    0.443216 0.705890 0.982217 0.079662
H16   H     H_    0.438901 0.285230 0.474408 0.093851
H17   H     H_    0.039942 0.122141 0.234670 -0.015637
H18   H     H_    0.979589 0.790703 0.720325 -0.084489
H19   H     H_    0.478131 0.707316 0.200341 -0.100024
H20   H     H_    0.472790 0.291328 0.692227 -0.075525
C9    C     C_3   0.937465 0.129890 0.041405 -0.348510
C10   C     C_3   0.949276 0.892488 0.605724 -0.408953
C11   C     C_3   0.458953 0.601797 0.096857 -0.386755
C12   C     C_3   0.445749 0.392152 0.573670 -0.413572
H21   H     H_    0.395715 0.598965 0.107539 0.075116
H22   H     H_    0.382613 0.392141 0.585446 0.075496
H23   H     H_    0.903422 0.172555 0.964545 0.144356
H24   H     H_    0.885810 0.892142 0.615221 0.081650
H25   H     H_    0.956556 0.088054 0.963273 0.118563
H26   H     H_    0.955697 0.919992 0.493069 0.127904
H27   H     H_    0.467376 0.572086 0.987304 0.147346
H28   H     H_    0.451665 0.418537 0.459219 0.135602
C13   C     C_3   0.230894 0.458072 0.284498 0.270159
C14   C     C_3   0.227994 0.543526 0.776375 0.270264
C15   C     C_3   0.729341 0.958119 0.284408 0.269705
C16   C     C_3   0.729307 0.043528 0.772644 0.270473
H29   H     H_    0.240387 0.462843 0.417753 0.030683
H30   H     H_    0.225114 0.539804 0.905723 0.029559
H31   H     H_    0.731930 0.964749 0.415608 0.027349
H32   H     H_    0.736307 0.044872 0.905958 0.020908
H33   H     H_    0.169416 0.439533 0.234632 0.040409
H34   H     H_    0.170939 0.564494 0.704810 0.055593
H35   H     H_    0.670076 0.937586 0.223737 0.049955
H36   H     H_    0.668517 0.061469 0.714589 0.053552
C17   C     C_3   0.287685 0.401713 0.241762 -0.347399
C18   C     C_3   0.292690 0.596434 0.757127 -0.342246
C19   C     C_3   0.790663 0.902445 0.259168 -0.341783
C20   C     C_3   0.786896 0.096147 0.722837 -0.351638
H37   H     H_    0.347830 0.424903 0.254270 0.138454
H38   H     H_    0.351798 0.571357 0.798879 0.127870
H39   H     H_    0.850693 0.926159 0.290849 0.128820
H40   H     H_    0.848332 0.076429 0.764773 0.130187
H41   H     H_    0.290486 0.353904 0.321441 0.073530
H42   H     H_    0.289090 0.646116 0.828597 0.070785
H43   H     H_    0.788443 0.854354 0.335818 0.072774
H44   H     H_    0.779902 0.150347 0.773717 0.087335
H45   H     H_    0.267806 0.384617 0.114379 0.145317
H46   H     H_    0.286398 0.610875 0.627703 0.134838
H47   H     H_    0.779520 0.885801 0.130289 0.141274
H48   H     H_    0.776046 0.099265 0.589522 0.134135
Ba1   Ba    Ba6+2 0.000000 0.447380 0.844850 1.651498
Ba2   Ba    Ba6+2 0.000000 0.552620 0.344850 1.646952
Ba3   Ba    Ba6+2 0.500000 0.947380 0.844850 1.646080
Ba4   Ba    Ba6+2 0.500000 0.052620 0.344850 1.649218
C21   C     C_3   0.744501 0.518521 0.832621 0.325923
C22   C     C_3   0.732411 0.503855 0.302759 0.279820
C23   C     C_3   0.268264 0.043296 0.918123 0.256639
C24   C     C_3   0.248366 0.974599 0.358345 0.302220
H49   H     H_    0.771634 0.493151 0.739885 0.017883
H50   H     H_    0.712694 0.550843 0.222708 0.051155
H51   H     H_    0.267097 0.043463 0.786618 0.036966
H52   H     H_    0.283535 0.989078 0.267328 0.023838
H53   H     H_    0.773599 0.571319 0.861537 -0.034676
H54   H     H_    0.785266 0.477495 0.272092 0.057356
H55   H     H_    0.326591 0.063533 0.985091 0.023850
H56   H     H_    0.272173 0.923503 0.417342 -0.010852
C25   C     C_3   0.655641 0.526615 0.761813 0.215430
C26   C     C_3   0.664356 0.449667 0.277444 0.190938
C27   C     C_3   0.204032 0.092920 0.955688 0.256234
C28   C     C_3   0.161619 0.966246 0.273752 0.228138
H57   H     H_    0.643915 0.533069 0.628015 0.009037
H58   H     H_    0.640878 0.445724 0.145375 0.052263
H59   H     H_    0.146390 0.063284 0.939270 0.034956
H60   H     H_    0.142976 0.015230 0.200539 0.031653
H61   H     H_    0.625307 0.475535 0.781434 0.052154
H62   H     H_    0.614681 0.469121 0.333144 0.038929
H63   H     H_    0.219476 0.107265 0.085435 0.061052
H64   H     H_    0.123093 0.965081 0.365513 0.027753
O45   O     O_3   0.092100 0.536880 0.086720 -0.490850
O46   O     O_3   0.092100 0.463120 0.586720 -0.495259
O47   O     O_3   0.592100 0.036880 0.086720 -0.491255
O48   O     O_3   0.592100 0.963120 0.586720 -0.496144
P13   P     P_3+3 0.897928 0.736035 0.077055 0.962981
P14   P     P_3+3 0.898309 0.264075 0.580121 0.951850
P15   P     P_3+3 0.397553 0.234935 0.077459 0.981593
P16   P     P_3+3 0.396894 0.765565 0.576657 0.956791
C29   C     C_3   0.961054 0.145597 0.501417 0.300733
C30   C     C_3   0.956002 0.860819 0.023950 0.273941
C31   C     C_3   0.461703 0.645128 0.516939 0.301478
C32   C     C_3   0.495201 0.339952 0.072298 0.308674
H65   H     H_    0.916061 0.151540 0.389031 -0.027629
H66   H     H_    0.910809 0.859323 0.911090 -0.018077
H67   H     H_    0.422010 0.651441 0.397649 -0.025276
H68   H     H_    0.501020 0.306613 0.965440 -0.066394
H69   H     H_    0.503301 0.537694 0.478627 0.061563
H70   H     H_    0.418471 0.419864 0.931474 0.124667
H71   H     H_    0.995221 0.039675 0.432990 0.064983
H72   H     H_    0.904468 0.965851 0.051800 0.104994
H73   H     H_    0.496745 0.576203 0.204479 0.096198
H74   H     H_    0.481510 0.422516 0.676094 0.110363
H75   H     H_    0.898902 0.105063 0.116811 0.058614
H76   H     H_    0.984656 0.921953 0.710628 0.116329
C33   C     C_R   0.139261 0.675947 0.923436 -0.290740
C34   C     C_R   0.139678 0.323721 0.424912 -0.286417
C35   C     C_R   0.638292 0.176834 0.922960 -0.275243
C36   C     C_R   0.637696 0.823247 0.425323 -0.284711
C37   C     C_R   0.856462 0.326974 0.271124 -0.227373
C38   C     C_R   0.861495 0.676261 0.765460 -0.264877
C39   C     C_R   0.359226 0.825282 0.266543 -0.276043
C40   C     C_R   0.364698 0.177922 0.764204 -0.241504
C41   C     C_R   0.784982 0.217783 0.304711 -0.072857
C42   C     C_R   0.788822 0.785184 0.800954 -0.122591
C43   C     C_R   0.289110 0.715088 0.300355 -0.112610
C44   C     C_R   0.296818 0.290357 0.795922 -0.054938
C45   C     C_R   0.840913 0.270504 0.368641 -0.030934
C46   C     C_R   0.845928 0.732984 0.862826 -0.023718
C47   C     C_R   0.344021 0.768712 0.363460 -0.015151
C48   C     C_R   0.351299 0.236258 0.859947 0.032725
C49   C     C_R   0.813740 0.334967 0.112200 0.080999
C50   C     C_R   0.817127 0.667199 0.608452 0.043583
C51   C     C_R   0.316504 0.833122 0.108161 0.083571
C52   C     C_R   0.319694 0.168371 0.607895 0.072455
C53   C     C_R   0.753618 0.282549 0.048102 -0.018864
C54   C     C_R   0.757619 0.720182 0.544438 -0.064861
C55   C     C_R   0.257842 0.779639 0.043463 -0.037810
C56   C     C_R   0.260754 0.221790 0.543629 -0.054115
C57   C     C_R   0.244956 0.718848 0.140888 -0.081343
C58   C     C_R   0.249284 0.283872 0.639162 -0.051758
C59   C     C_R   0.740544 0.221861 0.145131 -0.030346
C60   C     C_R   0.743944 0.780637 0.642254 -0.074108
C61   C     C_R   0.184520 0.666603 0.078960 0.051204
C62   C     C_R   0.186447 0.334335 0.578704 0.046619
C63   C     C_R   0.682500 0.167976 0.080136 0.051724
C64   C     C_R   0.683386 0.832798 0.580305 0.053344
C65   C     C_R   0.154334 0.732300 0.825886 -0.003965
C66   C     C_R   0.154889 0.267247 0.327196 -0.035211
C67   C     C_R   0.652257 0.234132 0.826016 -0.023375
C68   C     C_R   0.653316 0.767003 0.327454 0.000858
C69   C     C_R   0.210574 0.785234 0.886502 -0.052521
C70   C     C_R   0.211768 0.214757 0.388438 -0.104197
C71   C     C_R   0.707131 0.287939 0.889930 -0.101273
C72   C     C_R   0.710522 0.714616 0.387331 -0.087649
H77   H     H_    0.281456 0.671000 0.378459 0.106745
H78   H     H_    0.289826 0.335450 0.872616 0.083188
H79   H     H_    0.778395 0.173022 0.381047 0.090945
H80   H     H_    0.779886 0.828736 0.879775 0.113391
H81   H     H_    0.713215 0.333459 0.814706 0.055455
H82   H     H_    0.717833 0.670609 0.308286 0.109674
H83   H     H_    0.216632 0.830144 0.808882 0.120553
H84   H     H_    0.217115 0.169122 0.312760 0.095044
H85   H     H_    0.094256 0.636720 0.874049 0.058261
H86   H     H_    0.093498 0.362259 0.376547 0.057870
H87   H     H_    0.594798 0.136585 0.872093 0.056216
H88   H     H_    0.592463 0.862511 0.376117 0.059015
H89   H     H_    0.900720 0.366605 0.321935 0.050634
H90   H     H_    0.905630 0.636336 0.816383 0.068390
H91   H     H_    0.402322 0.865719 0.318376 0.059947
H92   H     H_    0.407153 0.136885 0.816469 0.044287
O49   O     O_3   0.621619 0.582849 0.838311 -0.640034
C73   C     C_3   0.640001 0.650242 0.778043 0.311092
H93   H     H_    0.645926 0.649010 0.649602 -0.089340
H94   H     H_    0.695480 0.670679 0.854471 0.059676
H95   H     H_    0.591567 0.688952 0.783907 0.130577
O50   O     O_3   0.689813 0.379913 0.332519 -0.675731
C74   C     C_3   0.719383 0.380962 0.500812 0.314717
H96   H     H_    0.678735 0.408830 0.567698 -0.002228
H97   H     H_    0.780576 0.402753 0.529099 0.044894
H98   H     H_    0.726298 0.325965 0.544664 0.102859
O51   O     O_3   0.200470 0.156931 0.865001 -0.649043
C75   C     C_3   0.134323 0.155227 0.736081 0.225444
H99   H     H_    0.079035 0.144545 0.779493 0.112349
H100  H     H_    0.143296 0.114971 0.643390 -0.012770
H101  H     H_    0.125620 0.209105 0.679844 0.071422
O52   O     O_3   0.151152 0.905988 0.169018 -0.677921
C76   C     C_3   0.135008 0.844764 0.254986 0.179120
H102  H     H_    0.081256 0.852589 0.305995 0.115978
H103  H     H_    0.186795 0.831077 0.351542 0.068942
H104  H     H_    0.122065 0.798576 0.171008 0.061654

loop_
_geom_bond_atom_site_label_1
_geom_bond_atom_site_label_2
_geom_bond_distance
_ccdc_geom_bond_type
C24   C28   1.524446 S    
P6    C61   1.880901 S    
C15   H31   1.104852 S    
C12   H28   1.106393 S    
P1    O17   1.751165 S    
P5    C62   1.870447 S    
C14   C18   1.519234 S    
C39   H91   1.082413 S    
C26   H58   1.106750 S    
P3    O19   1.738712 S    
C74   H96   1.109158 S    
C2    H10   1.107256 S    
O4    Ba4   2.867298 S    
C26   H62   1.114010 S    
P4    O4    1.542020 D    
C54   C72   1.408271 A    
C18   H42   1.107327 S    
C9    H23   1.109698 S    
C54   C60   1.436178 A    
C12   H74   1.106203 S    
O8    Ba3   2.845049 S    
C22   H50   1.111616 S    
O52   C76   1.406574 S    
C27   H59   1.118409 S    
O26   Ba2   2.877916 S    
C76   H102  1.105297 S    
C1    H7    1.107682 S    
C73   H94   1.104076 S    
P7    C64   1.873270 S    
C29   H65   1.099569 S    
P1    O1    1.539448 D    
O15   P16   1.541272 D    
O38   C13   1.399635 S    
C3    H5    1.106950 S    
P1    Ba1   3.432850 S    
O37   C14   1.398703 S    
C20   H48   1.103103 S    
P3    O3    1.539448 D    
O29   Ba1   2.816675 S    
P4    O20   1.742951 S    
P3    Ba3   3.432850 S    
C21   C25   1.529466 S    
P7    O48   1.594966 S    
O2    Ba2   2.867298 S    
O31   Ba3   2.816675 S    
O51   C75   1.404006 S    
C35   C67   1.392785 A    
C16   H32   1.106280 S    
P9    O29   1.748491 S    
C75   H99   1.105136 S    
C34   C66   1.386952 A    
O22   P13   1.753631 S    
C19   H43   1.107480 S    
C50   C54   1.439053 A    
C33   C65   1.388491 A    
C36   C68   1.386757 A    
P4    C52   1.883754 S    
P13   C46   1.845624 S    
P12   O32   1.731653 S    
Ba4   O47   2.955724 S    
O23   C31   1.405893 S    
C30   H66   1.099168 S    
C37   C45   1.392520 A    
P11   C68   1.829202 S    
C38   H90   1.082307 S    
C60   C64   1.436395 A    
P10   C65   1.830732 S    
O21   C29   1.404355 S    
O16   P15   1.541762 D    
C11   H27   1.108653 S    
P9    C66   1.839949 S    
P2    O18   1.747288 S    
P12   C67   1.849593 S    
C56   C70   1.410203 A    
C40   C48   1.393792 A    
O41   C5    1.403063 S    
C14   H34   1.110740 S    
C38   C50   1.396559 A    
P4    O8    1.589985 S    
O6    Ba1   2.845049 S    
C3    H11   1.111261 S    
O49   C73   1.410408 S    
C18   H38   1.106170 S    
C43   C47   1.400285 A    
C53   C71   1.411545 A    
C4    H12   1.109047 S    
C28   H60   1.107793 S    
O9    Ba1   2.812824 S    
C33   H85   1.082370 S    
C27   H63   1.103985 S    
C15   C19   1.517579 S    
P9    O41   1.738660 S    
O18   C22   1.399036 S    
O12   P15   1.747637 S    
C8    H20   1.110888 S    
P2    O2    1.542020 D    
P11   O43   1.743132 S    
C6    H18   1.113054 S    
C71   H81   1.074837 S    
C5    H17   1.109622 S    
Ba1   O45   2.846068 S    
C51   C55   1.441157 A    
C10   H26   1.104761 S    
C11   H73   1.108849 S    
C1    H71   1.109853 S    
H3    C31   1.106715 S    
C16   H36   1.109803 S    
C16   C20   1.512405 S    
P9    O33   1.540533 D    
P4    Ba4   3.428344 S    
O10   P13   1.757566 S    
C19   H47   1.107611 S    
C2    H8    1.109593 S    
P10   O30   1.741291 S    
P1    O5    1.592871 S    
C68   C72   1.398693 A    
O32   Ba4   2.812125 S    
C2    H72   1.110811 S    
P11   O35   1.541035 D    
C40   H92   1.082104 S    
P12   O36   1.538120 D    
P14   C45   1.857338 S    
C37   H89   1.082228 S    
C52   C56   1.438925 A    
C20   H44   1.106676 S    
C23   H55   1.111587 S    
O23   P16   1.746823 S    
C40   C52   1.396667 A    
C42   H80   1.074460 S    
O22   C30   1.408678 S    
O24   P15   1.742084 S    
P3    C51   1.880318 S    
O19   C23   1.395521 S    
P2    C50   1.877913 S    
C73   H95   1.105572 S    
C3    C31   1.513455 S    
C42   C46   1.399023 A    
C1    C29   1.516164 S    
C4    C32   1.517208 S    
O42   C6    1.405529 S    
P12   O44   1.743277 S    
C14   H30   1.104479 S    
P8    Ba4   3.435176 S    
C13   C17   1.519079 S    
O20   C24   1.394132 S    
C39   C51   1.394238 A    
C9    H25   1.107470 S    
C33   C61   1.392385 A    
C35   C63   1.396448 A    
C32   H68   1.112290 S    
C31   H67   1.100391 S    
C24   H52   1.104187 S    
O17   C21   1.395469 S    
P6    O26   1.538763 D    
C42   C60   1.404133 A    
O44   C8    1.406160 S    
C74   H97   1.107830 S    
C6    C10   1.510229 S    
P7    Ba3   3.430567 S    
O13   P14   1.542146 D    
O12   Ba4   2.817372 S    
C5    C9    1.510497 S    
O25   Ba1   2.870669 S    
O39   C16   1.399970 S    
C21   H49   1.093578 S    
P2    Ba2   3.428344 S    
C56   C58   1.438470 A    
C7    C11   1.514445 S    
P8    O47   1.597887 S    
C12   H22   1.110250 S    
O30   Ba2   2.812125 S    
C76   H103  1.105959 S    
C44   H78   1.076525 S    
C28   O52   1.410750 S    
C53   C59   1.437507 A    
P5    O37   1.749513 S    
Ba1   Ba2   4.650593 S    
P10   O34   1.541536 D    
C27   O51   1.407139 S    
C17   H41   1.108125 S    
P11   O31   1.743955 S    
C73   H93   1.108789 S    
H2    C30   1.107209 S    
Ba3   O47   2.846068 S    
Ba3   Ba4   4.650593 S    
P2    O6    1.589985 S    
Ba2   O46   2.845018 S    
O9    P14   1.754701 S    
C20   H40   1.104231 S    
C23   C27   1.516260 S    
Ba1   O46   2.958098 S    
O24   C32   1.405967 S    
P7    O27   1.541331 D    
C43   H77   1.075877 S    
C58   C62   1.438965 A    
P8    O28   1.538763 D    
P6    O45   1.597887 S    
C8    C12   1.508323 S    
O50   C74   1.406523 S    
C76   H104  1.103259 S    
C57   C61   1.439735 A    
C41   H79   1.071613 S    
C55   C69   1.408469 A    
C4    H70   1.111249 S    
P15   C48   1.844414 S    
P6    Ba2   3.435176 S    
C36   H88   1.082309 S    
C8    H16   1.111940 S    
P16   C47   1.842449 S    
C17   H45   1.104640 S    
C2    C30   1.521378 S    
C39   C47   1.388877 A    
Ba3   O48   2.958098 S    
O27   Ba3   2.870669 S    
C19   H39   1.104583 S    
P6    O38   1.748494 S    
C41   C45   1.400790 A    
P5    O46   1.594966 S    
C17   H37   1.106341 S    
C24   H56   1.107838 S    
C15   H35   1.110782 S    
C43   C57   1.404487 A    
C23   H51   1.105210 S    
O5    Ba2   2.846097 S    
O10   Ba2   2.817372 S    
C75   H101  1.102681 S    
P8    O40   1.748381 S    
C44   C48   1.400764 A    
C1    H9    1.110458 S    
C26   O50   1.411669 S    
C4    H6    1.108154 S    
C67   C71   1.403986 A    
P10   O42   1.741014 S    
O40   C15   1.400373 S    
C13   H33   1.110246 S    
O11   P16   1.755268 S    
C28   H64   1.117238 S    
O14   P13   1.542177 D    
C10   H24   1.110545 S    
C18   H46   1.108068 S    
O43   C7    1.404439 S    
C69   H83   1.078476 S    
C7    H19   1.112901 S    
C25   H61   1.111302 S    
C59   C63   1.440288 A    
C49   C53   1.442451 A    
H4    C32   1.108092 S    
P8    C63   1.888285 S    
C44   C58   1.410110 A    
C25   H57   1.111682 S    
C9    H75   1.110050 S    
C3    H69   1.108951 S    
C75   H100  1.111983 S    
O7    Ba4   2.846097 S    
C74   H98   1.082615 S    
C10   H76   1.109415 S    
P5    Ba1   3.430567 S    
O28   Ba4   2.877916 S    
C35   H87   1.082078 S    
C22   C26   1.526042 S    
C65   C69   1.400326 A    
C34   H86   1.082232 S    
C72   H82   1.074959 S    
P3    O7    1.592871 S    
Ba4   O48   2.845018 S    
P5    O25   1.541331 D    
Ba2   O45   2.955724 S    
C21   H53   1.104221 S    
C25   O49   1.410611 S    
C6    H14   1.112680 S    
C34   C62   1.393230 A    
O1    Ba1   2.874471 S    
O21   P14   1.750445 S    
C55   C57   1.440125 A    
C11   H21   1.110804 S    
C5    H13   1.114593 S    
P1    C49   1.882113 S    
C41   C59   1.407286 A    
O11   Ba3   2.812824 S    
C37   C49   1.398427 A    
C38   C46   1.390466 A    
H1    C29   1.105447 S    
O3    Ba3   2.874471 S    
C66   C70   1.399098 A    
C36   C64   1.391746 A    
C7    H15   1.111918 S    
P7    O39   1.746383 S    
C13   H29   1.105500 S    
C70   H84   1.072905 S    
C22   H54   1.106068 S    
