data_mof_unit_34098.cif
_audit_creation_date              2012-10-26T21:13:37-0400
_audit_creation_method            fapswitch 2.2
_symmetry_space_group_name_H-M    P1
_symmetry_Int_Tables_number       1
_space_group_crystal_system       triclinic
_cell_length_a                    9.069604
_cell_length_b                    10.84422
_cell_length_c                    9.562907
_cell_angle_alpha                 90.62299
_cell_angle_beta                  90.1805
_cell_angle_gamma                 90.479974
_cell_volume                      940.444959716

loop_
_atom_site_label
_atom_site_type_symbol
_atom_type_description
_atom_site_fract_x
_atom_site_fract_y
_atom_site_fract_z
_atom_type_partial_charge
C1    C     C_R   0.496101 0.262472 0.499213 0.539202
C2    C     C_R   0.623777 0.535244 0.927459 0.195416
C3    C     C_3   0.697586 0.659794 0.928808 0.133056
C4    C     C_R   0.220731 0.499500 0.499806 0.550531
C5    C     C_3   0.697173 0.657325 0.087503 -0.229129
C6    C     C_R   0.497317 0.737842 0.500370 0.563670
C7    C     C_R   0.779228 0.498907 0.500038 0.589610
C8    C     C_1   0.065566 0.498590 0.499534 -0.025160
C9    C     C_1   0.934409 0.498236 0.499745 0.005321
C10   C     C_R   0.461367 0.065683 0.621688 0.023402
C11   C     C_R   0.479331 0.129597 0.497193 0.011012
C12   C     C_R   0.477072 0.934391 0.371339 -0.149398
C13   C     C_R   0.475933 0.063041 0.370301 -0.152358
C14   C     C_R   0.481995 0.871172 0.499231 0.015617
C15   C     C_R   0.462758 0.938689 0.622980 0.026169
C16   C     C_3   0.546897 0.937645 0.757420 -0.269667
C17   C     C_3   0.544249 0.077281 0.756031 -0.259878
C18   C     C_R   0.622582 0.535665 0.075004 0.118080
C19   C     C_R   0.384521 0.452611 0.073294 0.002810
C20   C     C_R   0.384404 0.452760 0.924708 -0.000938
Cu1   Cu    Cu3+1 0.499990 0.499980 0.640670 1.014610
Cu2   Cu    Cu3+1 0.500010 0.500020 0.359330 0.953745
H1    H     H_    0.480585 0.109639 0.270784 0.140600
H2    H     H_    0.289957 0.415671 0.127708 0.136326
H3    H     H_    0.289751 0.415937 0.868860 0.152523
H4    H     H_    0.978666 0.737036 0.670931 0.359976
H5    H     H_    0.625562 0.731382 0.885799 0.099987
H6    H     H_    0.807215 0.648966 0.137775 0.183809
H7    H     H_    0.625549 0.729120 0.134542 0.111803
H8    H     H_    0.481700 0.885406 0.272240 0.136857
H9    H     H_    0.480340 0.898667 0.844014 0.138865
H10   H     H_    0.659851 0.900278 0.744738 0.189738
H11   H     H_    0.475981 0.117907 0.840903 0.145251
H12   H     H_    0.655267 0.119974 0.743241 0.157149
N1    N     N_R   0.500920 0.500930 0.147930 -0.243471
N2    N     N_R   0.500930 0.500890 0.852020 -0.265307
O1    O     O_R   0.500000 0.319640 0.618810 -0.510586
O2    O     O_2   0.941136 0.533424 0.849315 -0.288928
O3    O     O_3   0.874241 0.723023 0.696818 -0.542614
O4    O     O_R   0.500020 0.319680 0.381230 -0.510668
O5    O     O_R   0.288380 0.499980 0.618770 -0.490062
O6    O     O_R   0.288400 0.500020 0.381190 -0.507023
O7    O     O_R   0.499980 0.680320 0.618770 -0.486859
O8    O     O_R   0.500000 0.680360 0.381190 -0.512328
O9    O     O_R   0.711600 0.499980 0.618810 -0.428232
O10   O     O_R   0.711620 0.500020 0.381230 -0.512412
O11   O     O_2   0.979387 0.740865 0.948355 -0.300630
S1    S     S_3+6 0.880407 0.661874 0.857461 -0.009488

loop_
_geom_bond_atom_site_label_1
_geom_bond_atom_site_label_2
_ccdc_geom_bond_type
C7    O10   A    
C2    C18   A    
C5    H6    S    
C18   N1    A    
O2    S1    D    
O11   S1    D    
C1    C11   S    
C1    O1    A    
C4    C8    S    
Cu2   O4    S    
C4    O6    A    
C3    H5    S    
C2    C3    S    
C10   C11   A    
Cu1   N2    S    
C19   N1    A    
Cu1   Cu2   S    
C16   H9    S    
Cu2   N1    S    
C11   C13   A    
C17   H12   S    
Cu2   O6    S    
C17   H11   S    
Cu1   O5    S    
C7    O9    A    
Cu2   O10   S    
C12   C14   A    
C19   H2    S    
Cu1   O9    S    
C6    O7    A    
Cu2   O8    S    
H4    O3    S    
C6    C14   S    
C4    O5    A    
C10   C17   S    
C15   C16   S    
C20   N2    A    
C5    H7    S    
C3    C5    S    
C3    S1    S    
Cu1   O1    S    
C12   C13   A    
C13   H1    S    
C20   H3    S    
C2    N2    A    
C7    C9    S    
C16   H10   S    
C16   C17   S    
C6    O8    A    
C5    C18   S    
C1    O4    A    
C12   H8    S    
C10   C15   A    
C14   C15   A    
Cu1   O7    S    
C19   C20   A    
C8    C9    T    
O3    S1    S    
