data_mof_unit_50120.cif
_audit_creation_date              2013-03-05T16:00:56-0500
_audit_creation_method            fapswitch 2.2
_symmetry_space_group_name_H-M    P1
_symmetry_Int_Tables_number       1
_space_group_crystal_system       triclinic
_cell_length_a                    21.406052
_cell_length_b                    21.02568
_cell_length_c                    13.960177
_cell_angle_alpha                 90.013845
_cell_angle_beta                  90.056123
_cell_angle_gamma                 89.792262
_cell_volume                      6283.10729264

loop_
_atom_site_label
_atom_site_type_symbol
_atom_site_description
_atom_site_fract_x
_atom_site_fract_y
_atom_site_fract_z
_atom_type_partial_charge
O1    O     O_R   0.066090 0.433930 0.580280 -0.641528
O2    O     O_R   0.933910 0.566070 0.419720 -0.528975
O3    O     O_R   0.933910 0.566070 0.580280 -0.644241
O4    O     O_R   0.066090 0.433930 0.419720 -0.535720
O5    O     O_R   0.933910 0.433930 0.419720 -0.570183
O6    O     O_R   0.066090 0.566070 0.580280 -0.648208
O7    O     O_R   0.066090 0.566070 0.419720 -0.573845
O8    O     O_R   0.933910 0.433930 0.580280 -0.647801
O9    O     O_R   0.566090 0.933930 0.580280 -0.582259
O10   O     O_R   0.433910 0.066070 0.419720 -0.632778
O11   O     O_R   0.433910 0.066070 0.580280 -0.582948
O12   O     O_R   0.566090 0.933930 0.419720 -0.633179
O13   O     O_R   0.433910 0.933930 0.419720 -0.628372
O14   O     O_R   0.566090 0.066070 0.580280 -0.586844
O15   O     O_R   0.566090 0.066070 0.419720 -0.628808
O16   O     O_R   0.433910 0.933930 0.580280 -0.588225
C1    C     C_R   0.087533 0.413220 0.499426 0.950649
C2    C     C_R   0.912507 0.586843 0.499437 0.967632
C3    C     C_R   0.918215 0.408758 0.499665 0.947978
C4    C     C_R   0.081822 0.591201 0.499740 0.942436
C5    C     C_R   0.587182 0.912956 0.500237 0.945399
C6    C     C_R   0.412955 0.087107 0.500200 0.947075
C7    C     C_R   0.415232 0.910659 0.501463 0.924540
C8    C     C_R   0.584902 0.089245 0.501538 0.925091
Zn1   Zn    Zn3+2 0.000000 0.500000 0.607200 0.980847
Zn2   Zn    Zn3+2 1.000000 0.500000 0.392800 1.140943
Zn3   Zn    Zn3+2 0.500000 0.000000 0.607200 1.091208
Zn4   Zn    Zn3+2 0.500000 0.000000 0.392800 0.990339
C9    C     C_R   0.129499 0.685936 0.417547 0.339615
C10   C     C_R   0.870148 0.314337 0.416855 0.336133
C11   C     C_R   0.843799 0.664814 0.411195 0.449491
C12   C     C_R   0.155333 0.334397 0.411065 0.456484
C13   C     C_R   0.653909 0.165728 0.595549 0.313996
C14   C     C_R   0.347312 0.833267 0.595201 0.313418
C15   C     C_R   0.345479 0.166411 0.583962 0.381451
C16   C     C_R   0.656424 0.835139 0.584496 0.379494
C17   C     C_R   0.120093 0.648069 0.500054 -0.199823
C18   C     C_R   0.880146 0.351710 0.499774 -0.202630
C19   C     C_R   0.868698 0.640082 0.497946 -0.204222
C20   C     C_R   0.131638 0.360268 0.497914 -0.216152
C21   C     C_R   0.633110 0.138085 0.507030 -0.207766
C22   C     C_R   0.367244 0.861637 0.506835 -0.208274
C23   C     C_R   0.359893 0.130410 0.501462 -0.216495
C24   C     C_R   0.640688 0.870053 0.501437 -0.215942
C25   C     C_R   0.147728 0.664950 0.586738 -0.223382
C26   C     C_R   0.853387 0.334045 0.586675 -0.222758
C27   C     C_R   0.855008 0.669350 0.585556 -0.237651
C28   C     C_R   0.146933 0.332417 0.585955 -0.233472
C29   C     C_R   0.662952 0.152845 0.420858 -0.220644
C30   C     C_R   0.336704 0.847477 0.420928 -0.220143
C31   C     C_R   0.321176 0.132991 0.420693 -0.232761
C32   C     C_R   0.678423 0.866619 0.419703 -0.232244
C33   C     C_R   0.190493 0.713851 0.590722 0.034087
C34   C     C_R   0.810806 0.284954 0.590529 0.033920
C35   C     C_R   0.813757 0.720240 0.589376 0.036480
C36   C     C_R   0.188441 0.281792 0.590019 0.037096
C37   C     C_R   0.714399 0.192624 0.418523 0.034225
C38   C     C_R   0.285302 0.807634 0.418771 0.034242
C39   C     C_R   0.270538 0.174612 0.418923 0.041296
C40   C     C_R   0.729141 0.825072 0.417627 0.040387
C41   C     C_R   0.211232 0.741463 0.504415 -0.005426
C42   C     C_R   0.789260 0.258067 0.504085 -0.005305
C43   C     C_R   0.793860 0.748231 0.502595 -0.012156
C44   C     C_R   0.207093 0.252626 0.503517 -0.016978
C45   C     C_R   0.737929 0.216816 0.505485 -0.001847
C46   C     C_R   0.262592 0.782693 0.505685 -0.001608
C47   C     C_R   0.253277 0.205636 0.504704 -0.007292
C48   C     C_R   0.747726 0.795300 0.503779 -0.006851
C49   C     C_R   0.180907 0.727242 0.417047 -0.076060
C50   C     C_R   0.818775 0.273015 0.416472 -0.076079
C51   C     C_R   0.814617 0.724563 0.413788 -0.079640
C52   C     C_R   0.184863 0.274898 0.414680 -0.069565
C53   C     C_R   0.709911 0.200879 0.594016 -0.053785
C54   C     C_R   0.291453 0.797874 0.594003 -0.053301
C55   C     C_R   0.286961 0.195319 0.589843 -0.061394
C56   C     C_R   0.715248 0.806760 0.589571 -0.062098
C57   C     C_R   0.214762 0.733965 0.678642 0.372035
C58   C     C_R   0.787507 0.263913 0.678488 0.372055
C59   C     C_R   0.789792 0.742315 0.677237 0.392205
C60   C     C_R   0.213746 0.261039 0.677773 0.391789
C61   C     C_R   0.743548 0.207994 0.331116 0.372647
C62   C     C_R   0.255403 0.792932 0.331605 0.372798
C63   C     C_R   0.238208 0.188161 0.333508 0.382732
C64   C     C_R   0.760142 0.810233 0.331618 0.383887
C65   C     C_R   0.795262 0.247660 0.330790 -0.150762
C66   C     C_R   0.203710 0.753240 0.331439 -0.147478
C67   C     C_R   0.196436 0.239021 0.331571 -0.103849
C68   C     C_R   0.801753 0.759215 0.329906 -0.114914
C69   C     C_R   0.263163 0.777125 0.679677 -0.146791
C70   C     C_R   0.739164 0.220668 0.679550 -0.147059
C71   C     C_R   0.739588 0.784348 0.676577 -0.131988
C72   C     C_R   0.263916 0.218998 0.676861 -0.131710
H1    H     H_    0.136796 0.638727 0.651238 0.223599
H2    H     H_    0.864878 0.359750 0.651470 0.223573
H3    H     H_    0.873549 0.649696 0.651361 0.232493
H4    H     H_    0.129407 0.352973 0.651748 0.232724
H5    H     H_    0.646181 0.132103 0.354791 0.227939
H6    H     H_    0.352837 0.868816 0.354980 0.227701
H7    H     H_    0.333132 0.105558 0.357652 0.217659
H8    H     H_    0.665521 0.893117 0.356182 0.217926
H9    H     H_    0.815063 0.260485 0.262264 0.253440
H10   H     H_    0.183370 0.740917 0.263011 0.254090
H11   H     H_    0.173953 0.251031 0.264445 0.239724
H12   H     H_    0.823015 0.746062 0.262383 0.239571
H13   H     H_    0.278100 0.793295 0.749246 0.256027
H14   H     H_    0.725001 0.203679 0.749011 0.255489
H15   H     H_    0.718405 0.797978 0.744015 0.224023
H16   H     H_    0.285956 0.206226 0.744080 0.224487
C73   C     C_R   0.945655 0.488462 0.797863 -0.004324
C74   C     C_R   0.054157 0.511938 0.201973 0.136436
C75   C     C_R   0.054363 0.511492 0.798017 -0.005178
C76   C     C_R   0.945918 0.487921 0.201767 0.136775
C77   C     C_R   0.444924 0.007217 0.797878 0.119273
C78   C     C_R   0.555185 0.993248 0.202126 -0.000607
C79   C     C_R   0.555073 0.992828 0.798047 0.125265
C80   C     C_R   0.444814 0.006753 0.201969 -0.001176
N1    N     N_R   0.000000 0.500000 0.750030 -0.117836
N2    N     N_R   0.000000 0.500000 0.249970 -0.115873
N3    N     N_R   0.500000 0.000000 0.750030 -0.101356
N4    N     N_R   0.500000 0.000000 0.249970 -0.116929
C81   C     C_R   0.055676 0.511899 0.898753 0.013754
C82   C     C_R   0.944497 0.487762 0.101088 -0.000249
C83   C     C_R   0.944374 0.487983 0.898590 0.009910
C84   C     C_R   0.055589 0.512056 0.101275 -0.000871
C85   C     C_R   0.556471 0.992789 0.898771 0.015831
C86   C     C_R   0.443475 0.007046 0.101197 0.007064
C87   C     C_R   0.443524 0.007249 0.898603 0.016938
C88   C     C_R   0.556521 0.992962 0.101359 0.006872
C89   C     C_R   0.000031 0.499934 0.949275 0.101644
C90   C     C_R   0.000040 0.499920 0.050549 0.076060
C91   C     C_R   0.499997 0.000014 0.949328 0.073247
C92   C     C_R   0.499997 0.000008 0.050646 0.095647
C93   C     C_R   0.110973 0.523900 0.949881 -0.125980
C94   C     C_R   0.889170 0.475768 0.050094 -0.092030
C95   C     C_R   0.889096 0.475917 0.949550 -0.118554
C96   C     C_R   0.110919 0.524009 0.050431 -0.103678
C97   C     C_R   0.612655 0.985697 0.949832 -0.098435
C98   C     C_R   0.387304 0.014175 0.050068 -0.116480
C99   C     C_R   0.387340 0.014328 0.949505 -0.102118
C100  C     C_R   0.612691 0.985835 0.050393 -0.116283
H17   H     H_    0.903416 0.479662 0.757337 0.149275
H18   H     H_    0.096175 0.521457 0.242309 0.186277
H19   H     H_    0.096594 0.520301 0.757607 0.149003
H20   H     H_    0.903975 0.478324 0.241956 0.169231
H21   H     H_    0.402218 0.013096 0.757259 0.118081
H22   H     H_    0.598039 0.988094 0.242706 0.145441
H23   H     H_    0.597777 0.986967 0.757554 0.119746
H24   H     H_    0.401961 0.011905 0.242428 0.145859
H25   H     H_    0.154178 0.533246 0.912147 0.178704
H26   H     H_    0.846022 0.466338 0.087943 0.167641
H27   H     H_    0.845889 0.466564 0.911692 0.177775
H28   H     H_    0.154080 0.533404 0.088395 0.176957
H29   H     H_    0.656510 0.980107 0.912024 0.164835
H30   H     H_    0.343414 0.019679 0.087816 0.188102
H31   H     H_    0.343484 0.019914 0.911572 0.163532
H32   H     H_    0.656580 0.980320 0.088267 0.187787
S1    S     S_3+6 0.072892 0.690665 0.323687 0.050463
O17   O     O_2   0.092601 0.648111 0.242750 -0.274810
O18   O     O_2   0.009230 0.671400 0.358038 -0.284601
O19   O     O_3   0.067911 0.765700 0.282471 -0.490912
H33   H     H_    0.056060 0.791555 0.338984 0.357177
S2    S     S_3+6 0.926227 0.309814 0.322450 0.049546
O20   O     O_2   0.906157 0.352605 0.241987 -0.281848
O21   O     O_2   0.990082 0.328869 0.356408 -0.279054
O22   O     O_3   0.930850 0.234888 0.280653 -0.489964
H34   H     H_    0.943022 0.208859 0.336838 0.357261
S3    S     S_3+6 0.833912 0.615903 0.307481 0.041865
O23   O     O_2   0.777764 0.636754 0.250536 -0.274803
O24   O     O_2   0.891016 0.620406 0.245396 -0.250078
O25   O     O_3   0.822608 0.539979 0.341402 -0.576243
H35   H     H_    0.800672 0.519628 0.286986 0.378166
S4    S     S_3+6 0.163005 0.381229 0.304725 0.034196
O26   O     O_2   0.104452 0.375475 0.245915 -0.263828
O27   O     O_2   0.173767 0.449669 0.330974 -0.322197
O28   O     O_3   0.224344 0.356957 0.238655 -0.525956
H36   H     H_    0.222275 0.382803 0.179407 0.398491
S5    S     S_3+6 0.612631 0.162128 0.708921 0.077382
O29   O     O_2   0.613621 0.227109 0.753945 -0.214601
O30   O     O_2   0.545652 0.142468 0.704777 -0.164105
O31   O     O_3   0.650875 0.111620 0.781944 -0.550458
H37   H     H_    0.667799 0.078097 0.739318 0.318168
S6    S     S_3+6 0.389585 0.836261 0.707874 0.078032
O32   O     O_2   0.389808 0.770805 0.751304 -0.213603
O33   O     O_2   0.456251 0.856876 0.702979 -0.164321
O34   O     O_3   0.351445 0.885516 0.782852 -0.548028
H38   H     H_    0.334411 0.919718 0.741525 0.318577
S7    S     S_3+6 0.406088 0.194283 0.659979 0.071606
O35   O     O_2   0.417148 0.147257 0.739223 -0.288917
O36   O     O_2   0.464130 0.202231 0.600806 -0.245387
O37   O     O_3   0.387940 0.265404 0.707982 -0.520665
H39   H     H_    0.424181 0.276414 0.748846 0.414042
S8    S     S_3+6 0.596851 0.806679 0.661702 0.072442
O38   O     O_2   0.584828 0.854334 0.739741 -0.289798
O39   O     O_2   0.538885 0.796500 0.602987 -0.242252
O40   O     O_3   0.616858 0.736633 0.711551 -0.519584
H40   H     H_    0.580960 0.725158 0.752718 0.414618
Cl1   Cl    Cl    0.185825 0.707088 0.789952 -0.543257
Cl2   Cl    Cl    0.817614 0.289702 0.789747 -0.543160
Cl3   Cl    Cl    0.815937 0.713595 0.789085 -0.527157
Cl4   Cl    Cl    0.189196 0.291285 0.789514 -0.539663
Cl5   Cl    Cl    0.716753 0.179646 0.219370 -0.532286
Cl6   Cl    Cl    0.281220 0.822160 0.219928 -0.530948
Cl7   Cl    Cl    0.253033 0.147526 0.225293 -0.561605
Cl8   Cl    Cl    0.743661 0.849296 0.222633 -0.557308

loop_
_geom_bond_atom_site_label_1
_geom_bond_atom_site_label_2
_geom_bond_distance
_ccdc_geom_bond_type
C50   C65   1.403124 A    
C68   H12   1.082588 S    
C63   C67   1.391712 A    
O22   H34   0.990644 S    
O8    Zn1   2.021244 S    
C84   C90   1.407478 A    
O10   Zn4   2.014697 S    
C75   C81   1.406569 A    
C46   C54   1.415421 A    
C14   C22   1.436254 A    
C25   H1    1.082176 S    
C74   N2    1.363684 A    
O15   Zn4   2.021241 S    
C73   N1    1.364429 A    
S3    O24   1.502439 D    
O10   C6    1.287809 A    
O13   C7    1.305393 A    
S1    O17   1.500973 D    
C7    C22   1.459839 S    
O12   Zn4   2.014305 S    
C54   C69   1.411066 A    
C27   C35   1.385899 A    
C39   C63   1.406785 A    
C53   C70   1.411113 A    
C89   C90   1.413803 A    
C38   C62   1.409126 A    
S7    O36   1.502520 D    
O6    Zn1   2.021881 S    
O2    C2    1.280019 A    
O25   H35   0.990584 S    
O14   C8    1.269049 A    
C60   Cl4   1.764268 S    
C77   C87   1.406497 A    
C79   H23   1.081905 S    
C29   C37   1.385697 A    
C42   C50   1.413158 A    
O3    C2    1.293108 A    
C20   C28   1.399609 A    
C77   H21   1.081994 S    
C74   H18   1.079980 S    
S6    O32   1.504010 D    
C82   C94   1.404813 A    
S7    O37   1.682851 S    
C32   C40   1.391335 A    
C39   C47   1.412370 A    
C77   N3    1.363585 A    
C33   C41   1.410355 A    
C41   C46   1.402628 A    
C38   C46   1.409537 A    
C6    C23   1.453276 S    
S5    O30   1.494643 D    
C35   C43   1.411726 A    
C93   C96   1.403703 A    
C36   C44   1.411566 A    
O13   Zn4   2.021884 S    
O11   Zn3   2.014305 S    
O14   Zn3   2.021881 S    
C15   C23   1.411799 A    
S2    O21   1.502091 D    
S4    O28   1.682998 S    
C75   H19   1.082593 S    
C74   C84   1.406132 A    
O16   C7    1.268943 A    
C64   Cl8   1.763875 S    
O16   Zn3   2.021244 S    
C11   C51   1.401441 A    
C12   S4    1.789605 S    
C25   C33   1.380206 A    
S1    O18   1.502174 D    
C80   C86   1.407067 A    
C83   C89   1.408419 A    
O1    Zn1   2.014697 S    
C8    C21   1.460426 S    
C87   C99   1.404940 A    
C88   C92   1.408610 A    
C21   C29   1.398088 A    
C10   C50   1.403960 A    
S4    O27   1.503350 D    
C61   C65   1.388425 A    
S3    O25   1.683603 S    
C9    C49   1.404351 A    
C100  H32   1.083478 S    
C31   H7    1.082500 S    
C97   C100  1.403846 A    
C30   H6    1.081717 S    
O8    C3    1.288318 A    
C59   Cl3   1.764146 S    
C78   C88   1.407046 A    
C84   C96   1.404868 A    
C13   S5    1.815134 S    
C30   C38   1.385639 A    
S8    O40   1.682861 S    
C71   H15   1.083432 S    
O3    Zn1   2.014305 S    
C93   H25   1.083404 S    
C78   H22   1.082807 S    
C63   Cl7   1.763868 S    
Zn4   N4    1.993933 S    
C45   C53   1.415118 A    
C37   C45   1.409462 A    
S3    O23   1.504394 D    
C62   Cl6   1.765868 S    
C73   C83   1.406510 A    
C61   Cl5   1.765822 S    
C34   C42   1.410353 A    
C85   C97   1.404927 A    
C62   C66   1.388367 A    
C82   C90   1.407352 A    
O12   C5    1.288249 A    
C32   H8    1.082426 S    
C58   C70   1.380115 A    
O5    Zn2   2.021884 S    
C83   C95   1.405176 A    
C1    C20   1.457307 S    
S8    O39   1.502397 D    
C60   C72   1.388522 A    
C33   C57   1.398317 A    
C2    C19   1.457826 S    
C44   C47   1.395246 A    
O37   H39   0.990563 S    
C76   C82   1.405792 A    
C3    C18   1.452562 S    
C5    C24   1.455443 S    
C35   C59   1.407925 A    
C85   C91   1.408157 A    
O4    Zn2   2.014305 S    
O28   H36   0.990641 S    
C26   H2    1.082183 S    
C86   C92   1.408590 A    
S5    O31   1.682185 S    
C57   C69   1.379841 A    
C26   C34   1.380582 A    
C97   H29   1.083427 S    
O2    Zn2   2.014697 S    
C51   C68   1.405798 A    
O7    Zn2   2.021241 S    
C70   H14   1.077654 S    
C55   C72   1.402152 A    
C22   C30   1.397849 A    
C67   H11   1.082532 S    
O4    C1    1.279150 A    
C13   C53   1.410751 A    
O15   C8    1.305541 A    
C11   S3    1.788563 S    
C43   C51   1.407559 A    
O7    C4    1.280932 A    
S1    O19   1.682433 S    
C79   N3    1.363483 A    
C12   C20   1.421971 A    
C9    C17   1.415335 A    
C37   C61   1.409207 A    
C15   C55   1.392816 A    
C31   C39   1.390870 A    
C10   S2    1.785818 S    
C17   C25   1.392910 A    
C91   C92   1.414424 A    
C66   H10   1.081253 S    
C52   C67   1.405443 A    
C65   H9    1.081329 S    
S4    O26   1.502890 D    
O9    Zn3   2.014697 S    
C19   C27   1.399813 A    
S2    O20   1.500851 D    
C41   C49   1.413544 A    
C28   C36   1.385203 A    
C43   C48   1.395659 A    
C86   C98   1.405268 A    
C28   H4    1.081866 S    
C42   C45   1.402488 A    
C73   H17   1.082584 S    
C16   S8    1.776076 S    
S2    O22   1.682433 S    
C59   C71   1.388939 A    
Zn2   N2    1.993933 S    
C81   C89   1.408355 A    
Zn1   N1    1.993932 S    
C24   C32   1.400357 A    
C9    S1    1.786371 S    
C94   C95   1.403613 A    
O5    C3    1.280964 A    
Zn3   N3    1.993932 S    
C48   C56   1.405746 A    
C80   H24   1.082810 S    
C99   H31   1.083419 S    
O11   C6    1.282351 A    
O1    C1    1.293704 A    
C36   C60   1.407781 A    
C75   N1    1.364475 A    
C13   C21   1.436499 A    
S8    O38   1.501734 D    
C76   H20   1.078871 S    
C87   C91   1.408182 A    
C88   C100  1.405253 A    
S7    O35   1.501936 D    
O19   H33   0.990693 S    
C76   N2    1.363112 A    
C4    C17   1.451885 S    
C40   C64   1.406870 A    
O9    C5    1.283055 A    
O34   H38   0.990382 S    
C64   C68   1.392013 A    
O6    C4    1.288051 A    
C23   C31   1.399660 A    
C95   H27   1.083398 S    
C79   C85   1.406423 A    
C34   C58   1.398329 A    
C11   C19   1.420630 A    
C14   S6    1.815088 S    
C44   C52   1.407573 A    
S6    O33   1.494553 D    
C18   C26   1.393159 A    
C16   C24   1.412330 A    
C98   C99   1.403874 A    
C49   C66   1.403121 A    
C56   C71   1.402161 A    
C29   H5    1.081661 S    
O40   H40   0.990572 S    
C80   N4    1.364553 A    
C16   C56   1.393204 A    
C47   C55   1.406029 A    
C40   C48   1.412171 A    
C15   S7    1.776334 S    
S5    O29   1.503975 D    
C69   H13   1.077532 S    
C27   H3    1.081878 S    
C14   C54   1.410757 A    
C58   Cl2   1.766885 S    
C10   C18   1.415464 A    
C81   C93   1.405212 A    
C98   H30   1.083480 S    
C96   H28   1.083428 S    
C72   H16   1.083338 S    
C57   Cl1   1.767059 S    
S6    O34   1.682163 S    
C78   N4    1.364543 A    
O31   H37   0.990220 S    
C12   C52   1.400494 A    
C94   H26   1.083465 S    
