data_mof_unit_30380.cif
_audit_creation_date              2012-12-10T17:52:40-0500
_audit_creation_method            fapswitch 2.2
_symmetry_space_group_name_H-M    P1
_symmetry_Int_Tables_number       1
_space_group_crystal_system       triclinic
_cell_length_a                    14.705155
_cell_length_b                    14.639614
_cell_length_c                    23.494815
_cell_angle_alpha                 76.79107
_cell_angle_beta                  102.583053
_cell_angle_gamma                 114.748241
_cell_volume                      4428.93070891

loop_
_atom_site_label
_atom_site_type_symbol
_atom_type_description
_atom_site_fract_x
_atom_site_fract_y
_atom_site_fract_z
_atom_type_partial_charge
C1    C     C_R   0.880419 0.312016 0.510018 0.829734
C2    C     C_R   0.119590 0.687857 0.491182 0.834618
C3    C     C_R   0.081338 0.575247 0.759908 -0.188747
C4    C     C_R   0.910044 0.480794 0.228507 -0.192441
C5    C     C_R   0.080829 0.575069 0.700346 0.379687
C6    C     C_R   0.909178 0.479335 0.288074 0.409721
C7    C     C_R   0.999331 0.501951 0.670348 -0.246770
C8    C     C_R   0.999713 0.496604 0.328338 -0.248008
C9    C     C_R   0.917065 0.431723 0.699214 0.382866
C10   C     C_R   0.088960 0.509450 0.308139 0.396382
C11   C     C_R   0.919414 0.432251 0.759154 -0.198973
C12   C     C_R   0.087950 0.511476 0.248062 -0.195001
C13   C     C_R   0.000749 0.504269 0.789259 0.226960
C14   C     C_R   0.998947 0.496636 0.208480 0.225474
C15   C     C_R   0.813169 0.203706 0.516384 -0.116358
C16   C     C_R   0.187250 0.794992 0.492502 -0.122683
C17   C     C_R   0.784229 0.025382 0.525662 0.489222
C18   C     C_R   0.219239 0.965503 0.506396 0.493186
C19   C     C_R   0.850291 0.127916 0.522143 -0.252615
C20   C     C_R   0.151541 0.866944 0.497786 -0.314818
C21   C     C_R   0.709827 0.176834 0.515093 -0.249687
C22   C     C_R   0.290823 0.822298 0.494541 -0.227290
C23   C     C_R   0.999524 0.500059 0.608579 0.911226
C24   C     C_R   0.000242 0.499468 0.390970 0.860705
C25   C     C_R   0.641182 0.074827 0.518912 0.023147
C26   C     C_R   0.361445 0.918975 0.505703 0.022928
C27   C     C_R   0.679292 0.998924 0.522234 0.050935
C28   C     C_R   0.324194 0.992206 0.509655 0.047013
C29   C     C_R   0.535422 0.046955 0.517284 0.104581
C30   C     C_R   0.467778 0.944752 0.512616 0.101413
C31   C     C_R   0.508763 0.871133 0.516752 -0.233806
C32   C     C_R   0.495309 0.117533 0.521245 -0.237235
C33   C     C_R   0.612167 0.897720 0.522024 -0.182234
C34   C     C_R   0.392186 0.090455 0.517788 -0.193345
C35   C     C_R   0.712197 0.664956 0.398403 0.286206
C36   C     C_R   0.284568 0.329546 0.598361 0.305036
C37   C     C_R   0.797120 0.638377 0.416193 0.599539
C38   C     C_R   0.201901 0.359444 0.582535 0.585336
C39   C     C_R   0.714350 0.509433 0.491470 -0.125442
C40   C     C_R   0.287097 0.493464 0.510033 -0.118232
C41   C     C_R   0.627872 0.534877 0.476832 -0.085716
C42   C     C_R   0.371945 0.465665 0.522626 -0.092740
C43   C     C_R   0.630308 0.617136 0.431006 -0.006380
C44   C     C_R   0.367390 0.379603 0.566177 0.005627
C45   C     C_R   0.987118 0.576734 0.106441 0.553207
C46   C     C_R   0.014523 0.425405 0.891386 0.550205
C47   C     C_R   0.539702 0.482014 0.505987 0.146044
C48   C     C_R   0.459218 0.517871 0.492414 0.120334
C49   C     C_R   0.468398 0.603945 0.448697 -0.270228
C50   C     C_R   0.527839 0.392242 0.546605 -0.261590
C51   C     C_R   0.550859 0.650757 0.417890 -0.129978
C52   C     C_R   0.443576 0.342078 0.575583 -0.168579
C53   C     C_R   0.011765 0.420225 0.131096 0.544003
C54   C     C_R   0.990034 0.581999 0.866677 0.544112
C55   C     C_R   0.012971 0.420038 0.071590 -0.021697
C56   C     C_R   0.989498 0.582572 0.926238 -0.021097
C57   C     C_R   0.000760 0.500591 0.028991 -0.016367
C58   C     C_R   0.001586 0.501960 0.968843 -0.016538
C59   C     C_R   0.987658 0.579734 0.046393 -0.026587
C60   C     C_R   0.014373 0.422641 0.951437 -0.025077
C61   C     C_R   0.025876 0.341430 0.053757 -0.162181
C62   C     C_R   0.976685 0.661224 0.944086 -0.163780
C63   C     C_R   0.026566 0.342717 0.994296 -0.162793
C64   C     C_R   0.975752 0.659808 0.003544 -0.161797
Cu1   Cu    Cu3+1 0.081740 0.475680 0.515360 1.003971
Cu2   Cu    Cu3+1 0.918260 0.524320 0.484640 0.993850
H1    H     H_    0.463244 0.791020 0.518038 0.147180
H2    H     H_    0.541835 0.194010 0.529216 0.136971
H3    H     H_    0.036573 0.280870 0.982053 0.188307
H4    H     H_    0.965641 0.721598 0.015783 0.188531
H5    H     H_    0.858993 0.375746 0.782801 0.163633
H6    H     H_    0.157004 0.525974 0.231834 0.163398
N1    N     N_R   0.999053 0.497816 0.147294 -0.443063
N2    N     N_R   0.002173 0.504082 0.850490 -0.442714
N3    N     N_R   0.795430 0.560810 0.461550 -0.236131
N4    N     N_R   0.204570 0.439190 0.538450 -0.238658
O1    O     O_R   0.977900 0.338110 0.520250 -0.540662
O2    O     O_R   0.022100 0.661890 0.479750 -0.567427
O3    O     O_R   0.839850 0.379180 0.494310 -0.596835
O4    O     O_R   0.160150 0.620820 0.505690 -0.583643
O5    O     O_R   0.069020 0.479430 0.595090 -0.544947
O6    O     O_R   0.930980 0.520570 0.404910 -0.491855
O7    O     O_R   0.930970 0.520500 0.569150 -0.592177
O8    O     O_R   0.069030 0.479500 0.430850 -0.560904
O9    O     O_2   0.975618 0.652391 0.123983 -0.531078
O10   O     O_2   0.027397 0.350440 0.873952 -0.539655
O11   O     O_2   0.022519 0.343220 0.172442 -0.546481
O12   O     O_2   0.977599 0.658084 0.825181 -0.551932
H7    H     H_    0.035421 0.278653 0.085646 0.188787
H8    H     H_    0.967216 0.724037 0.912199 0.187120
O13   O     O_3   0.821024 0.951919 0.526918 -0.584035
C65   C     C_3   0.871324 0.933546 0.584005 -0.327116
H9    H     H_    0.820287 0.909462 0.618104 0.168346
H10   H     H_    0.940532 0.001341 0.594401 0.171934
H11   H     H_    0.895405 0.870430 0.585780 0.186912
O14   O     O_3   0.182281 0.036818 0.509323 -0.582688
C66   C     C_3   0.160512 0.022238 0.567072 -0.295204
H12   H     H_    0.229194 0.030662 0.600286 0.171127
H13   H     H_    0.098946 0.946828 0.577902 0.141627
H14   H     H_    0.134120 0.081610 0.569928 0.225241
H15   H     H_    0.552626 0.715200 0.383855 0.196450
H16   H     H_    0.437939 0.271781 0.604980 0.175071
H17   H     H_    0.282821 0.555573 0.476326 0.182630
H18   H     H_    0.720429 0.450875 0.527422 0.164032
O15   O     O_3   0.112526 0.300926 0.605833 -0.557035
C67   C     C_3   0.123202 0.311366 0.665476 -0.215263
H19   H     H_    0.049026 0.302513 0.674985 0.191804
H20   H     H_    0.179076 0.387140 0.676263 0.137176
H21   H     H_    0.142353 0.249153 0.694890 0.184566
O16   O     O_3   0.879678 0.683996 0.385511 -0.546517
C68   C     C_3   0.924593 0.790191 0.386065 -0.199421
H22   H     H_    0.006725 0.816480 0.384676 0.174198
H23   H     H_    0.916152 0.812442 0.426365 0.136437
H24   H     H_    0.893950 0.830701 0.345831 0.207011
O17   O     O_3   0.710190 0.738956 0.350082 -0.592189
C69   C     C_3   0.674276 0.692302 0.298891 -0.285587
H25   H     H_    0.726007 0.659131 0.292026 0.207290
H26   H     H_    0.671127 0.751148 0.260128 0.194638
H27   H     H_    0.596366 0.632880 0.300485 0.158308
O18   O     O_3   0.279012 0.245696 0.641380 -0.584175
C70   C     C_3   0.339885 0.279268 0.694091 -0.354429
H28   H     H_    0.319147 0.214981 0.730927 0.198206
H29   H     H_    0.328399 0.343170 0.705392 0.148842
H30   H     H_    0.421307 0.302538 0.691879 0.170395
H31   H     H_    0.412336 0.636782 0.436470 0.151321
H32   H     H_    0.581559 0.356927 0.555834 0.114925
H33   H     H_    0.144831 0.630018 0.783516 0.169711
H34   H     H_    0.841057 0.469127 0.197710 0.170165
O19   O     O_3   0.162611 0.642917 0.672354 -0.562702
C71   C     C_3   0.149135 0.735282 0.651361 -0.313842
H35   H     H_    0.079585 0.724434 0.618617 0.144897
H36   H     H_    0.214473 0.789705 0.628652 0.195004
H37   H     H_    0.146902 0.770118 0.688215 0.170359
O20   O     O_3   0.819944 0.464930 0.305953 -0.545658
C72   C     C_3   0.766424 0.359589 0.322115 -0.273434
H38   H     H_    0.695731 0.347948 0.337621 0.190187
H39   H     H_    0.810577 0.326330 0.359142 0.140177
H40   H     H_    0.744862 0.318526 0.283723 0.156281
O21   O     O_3   0.841406 0.355532 0.670396 -0.571276
C73   C     C_3   0.748762 0.366410 0.664184 -0.300180
H41   H     H_    0.691311 0.310251 0.636742 0.176229
H42   H     H_    0.754190 0.443696 0.641301 0.161366
H43   H     H_    0.721539 0.349413 0.707465 0.159646
O22   O     O_3   0.179269 0.529776 0.345947 -0.569812
C74   C     C_3   0.207354 0.445762 0.355528 -0.257606
H44   H     H_    0.146928 0.374221 0.373144 0.170660
H45   H     H_    0.275776 0.459408 0.388944 0.184935
H46   H     H_    0.227153 0.436609 0.314707 0.161069
H47   H     H_    0.639250 0.838048 0.525326 0.193753
H48   H     H_    0.365901 0.147501 0.521560 0.196008
H49   H     H_    0.314287 0.766243 0.486806 0.156821
H50   H     H_    0.684259 0.237790 0.508780 0.161993
H51   H     H_    0.071522 0.846314 0.496888 0.166018
H52   H     H_    0.930116 0.148156 0.522232 0.188177

loop_
_geom_bond_atom_site_label_1
_geom_bond_atom_site_label_2
_ccdc_geom_bond_type
C72   H40   S    
C1    O1    A    
C71   H36   S    
C68   H22   S    
C17   O13   S    
C73   H43   S    
C74   H46   S    
C66   H12   S    
C34   H48   S    
C72   H38   S    
C39   C41   A    
C38   N4    A    
C27   C33   A    
C31   H1    S    
Cu2   O3    S    
C52   H16   S    
C59   C64   A    
Cu1   N4    S    
C23   O7    A    
C60   C63   A    
C35   C37   A    
C73   H42   S    
C15   C19   A    
C29   C32   A    
C30   C31   A    
C3    H33   S    
C57   C59   A    
C67   H19   S    
C58   C60   A    
O17   C69   S    
C62   H8    S    
C18   O14   S    
C69   H25   S    
C45   N1    A    
C21   H50   S    
C61   C63   A    
C24   O6    A    
O16   C68   S    
C70   H30   S    
C62   C64   A    
C66   H13   S    
Cu2   O7    S    
C54   N2    A    
C63   H3    S    
C56   C58   A    
C49   C51   A    
C50   C52   A    
C31   C33   A    
C35   O17   S    
C1    C15   S    
C39   N3    A    
C2    C16   S    
C18   C20   A    
C3    C13   A    
C32   H2    S    
C44   C52   A    
C40   C42   A    
C37   N3    A    
C28   C34   A    
Cu1   O4    S    
C41   C43   A    
C42   C44   A    
C9    O21   S    
C74   H45   S    
C61   H7    S    
C74   H44   S    
C47   C50   A    
C53   C55   A    
C25   C29   A    
Cu2   O2    S    
C54   C56   A    
Cu1   O1    S    
C20   H51   S    
C4    H34   S    
C17   C27   A    
C14   N1    S    
C39   H18   S    
C18   C28   A    
C73   H41   S    
C68   H23   S    
O13   C65   S    
C5    C7    A    
C17   C19   A    
Cu1   O8    S    
C6    C8    A    
C65   H11   S    
C40   N4    A    
C32   C34   A    
C45   O9    S    
C29   C30   A    
C2    O2    A    
Cu2   O6    S    
Cu1   O5    S    
C47   C48   A    
C16   C20   A    
O14   C66   S    
C65   H10   S    
C41   C47   A    
C53   O11   S    
C42   C48   A    
C9    C11   A    
C37   O16   S    
C10   C12   A    
C50   H32   S    
C4    C6    A    
C48   C49   A    
C12   C14   A    
C26   C30   A    
C64   H4    S    
C55   C57   A    
C1    O3    A    
C56   C62   A    
C36   C44   A    
C71   H37   S    
C51   H15   S    
C46   N2    A    
C66   H14   S    
C35   C43   A    
O18   C70   S    
O19   C71   S    
C72   H39   S    
C21   C25   A    
C22   H49   S    
C45   C59   A    
C16   C22   A    
C23   O5    A    
C46   C60   A    
C10   O22   S    
C12   H6    S    
C53   N1    A    
O22   C74   S    
C3    C5    A    
O21   C73   S    
C70   H28   S    
O20   C72   S    
C25   C27   A    
C49   H31   S    
O15   C67   S    
C26   C28   A    
C69   H27   S    
C38   O15   S    
C36   C38   A    
C71   H35   S    
C24   O8    A    
C6    O20   S    
C33   H47   S    
C40   H17   S    
C54   O12   S    
C11   C13   A    
C43   C51   A    
C57   C58   A    
C67   H20   S    
C7    C23   S    
Cu2   N3    S    
C55   C61   A    
C5    O19   S    
C65   H9    S    
C8    C24   S    
C69   H26   S    
C68   H24   S    
C11   H5    S    
C4    C14   A    
C36   O18   S    
C70   H29   S    
C2    O4    A    
C7    C9    A    
C15   C21   A    
C13   N2    S    
C8    C10   A    
Cu1   Cu2   S    
C22   C26   A    
C19   H52   S    
C46   O10   S    
C67   H21   S    
