data_mof_unit_18206.cif
_audit_creation_date              2012-10-26T21:00:18-0400
_audit_creation_method            fapswitch 2.2
_symmetry_space_group_name_H-M    P1
_symmetry_Int_Tables_number       1
_space_group_crystal_system       triclinic
_cell_length_a                    19.327618
_cell_length_b                    8.731478
_cell_length_c                    7.469253
_cell_angle_alpha                 102.987774
_cell_angle_beta                  94.709353
_cell_angle_gamma                 93.183416
_cell_volume                      1220.55102442

loop_
_atom_site_label
_atom_site_type_symbol
_atom_type_description
_atom_site_fract_x
_atom_site_fract_y
_atom_site_fract_z
_atom_type_partial_charge
C1    C     C_R   0.497056 0.200209 0.454258 0.594827
C2    C     C_R   0.811149 0.423438 0.334049 0.075358
C3    C     C_R   0.146130 0.503850 0.503406 0.088305
C4    C     C_R   0.853870 0.496155 0.496593 0.088305
C5    C     C_R   0.176186 0.433419 0.342147 0.066561
C6    C     C_R   0.823814 0.566585 0.657853 0.066562
C7    C     C_R   0.248603 0.434931 0.345477 -0.144685
C8    C     C_R   0.751397 0.565071 0.654523 -0.144686
C9    C     C_R   0.291689 0.505300 0.506382 0.024083
C10   C     C_R   0.708311 0.494702 0.493618 0.024082
C11   C     C_R   0.929963 0.498231 0.498020 0.371009
C12   C     C_R   0.502944 0.799791 0.545742 0.594827
C13   C     C_R   0.070037 0.501775 0.501978 0.371010
C14   C     C_2   0.486363 0.033964 0.433671 0.182309
C15   C     C_2   0.513637 0.966036 0.566328 0.182309
C16   C     C_R   0.367612 0.502065 0.502186 0.565489
C17   C     C_R   0.632388 0.497935 0.497814 0.565489
C18   C     C_R   0.261913 0.577897 0.667547 0.074069
C19   C     C_R   0.738087 0.422106 0.332452 0.074069
C20   C     C_R   0.188851 0.576567 0.665950 0.075358
Cl1   Cl    Cl    0.427090 0.935043 0.242458 -0.597338
Cl2   Cl    Cl    0.572910 0.064957 0.757542 -0.597337
Cu1   Cu    Cu3+1 0.507710 0.517380 0.684380 1.095369
Cu2   Cu    Cu3+1 0.492290 0.482620 0.315620 1.095369
H1    H     H_    0.271466 0.379777 0.221539 0.128354
H2    H     H_    0.825993 0.409223 0.065084 0.223608
H3    H     H_    0.163153 0.312495 0.069939 0.231670
H4    H     H_    0.107774 0.451979 0.130333 0.245009
H5    H     H_    0.836847 0.687508 0.930061 0.231669
H6    H     H_    0.892227 0.548025 0.869666 0.245010
H7    H     H_    0.382611 0.379664 0.969271 0.216288
H8    H     H_    0.439586 0.239990 0.941957 0.262301
H9    H     H_    0.617389 0.620337 0.030727 0.216288
H10   H     H_    0.560413 0.760010 0.058045 0.262301
H11   H     H_    0.728534 0.620225 0.778461 0.128354
H12   H     H_    0.295520 0.773986 0.866101 0.256501
H13   H     H_    0.294850 0.602751 0.938813 0.235260
H14   H     H_    0.704481 0.226016 0.133898 0.256501
H15   H     H_    0.705149 0.397252 0.061187 0.235260
H16   H     H_    0.174132 0.765368 0.870394 0.251589
H17   H     H_    0.174006 0.590784 0.934915 0.223608
H18   H     H_    0.825869 0.234639 0.129604 0.251589
N1    N     N_R   0.029448 0.367763 0.424393 -0.174259
N2    N     N_3   0.842506 0.354346 0.170067 -0.601619
N3    N     N_3   0.132908 0.362225 0.174745 -0.578090
N4    N     N_3   0.867092 0.637779 0.825255 -0.578089
N5    N     N_3   0.430863 0.352319 0.922298 -0.424819
N6    N     N_3   0.569137 0.647681 0.077702 -0.424819
N7    N     N_R   0.970552 0.632243 0.575605 -0.174259
N8    N     N_R   0.960582 0.366009 0.422514 -0.181003
N9    N     N_R   0.039419 0.633997 0.577485 -0.181002
N10   N     N_2   0.480680 0.456420 0.038530 -0.003370
N11   N     N_2   0.519320 0.543580 0.961470 -0.003370
N12   N     N_3   0.305931 0.655356 0.830762 -0.563562
N13   N     N_3   0.694070 0.344646 0.169237 -0.563561
N14   N     N_3   0.157494 0.645661 0.829931 -0.601619
O1    O     O_R   0.505010 0.286130 0.619770 -0.462996
O2    O     O_R   0.494990 0.713870 0.380230 -0.462997
O3    O     O_R   0.491990 0.256780 0.308370 -0.474320
O4    O     O_R   0.508010 0.743220 0.691630 -0.474320
O5    O     O_R   0.406650 0.514660 0.655750 -0.453170
O6    O     O_R   0.593350 0.485340 0.344250 -0.453169
O7    O     O_R   0.393640 0.485310 0.344340 -0.528731
O8    O     O_R   0.606360 0.514690 0.655660 -0.528731

loop_
_geom_bond_atom_site_label_1
_geom_bond_atom_site_label_2
_ccdc_geom_bond_type
Cu2   N10   S    
C2    C4    A    
Cu1   Cu2   S    
H17   N14   S    
N5    N10   S    
C11   N7    A    
C16   O7    A    
C1    O1    A    
C17   O6    A    
C5    C7    A    
H5    N4    S    
C7    H1    S    
C12   C15   S    
Cu1   O5    S    
C10   C19   A    
C20   N14   S    
C12   O2    A    
H3    N3    S    
N7    N9    A    
H2    N2    S    
C3    C20   A    
N1    N8    A    
C11   N8    A    
H7    N5    S    
C4    C11   S    
Cu1   O4    S    
H18   N2    S    
Cu2   O3    S    
Cu1   O1    S    
H13   N12   S    
C6    C8    A    
C14   Cl1   S    
Cu2   O2    S    
Cu1   O8    S    
C9    C16   S    
Cu1   N11   S    
Cu2   O7    S    
C18   C20   A    
C1    O3    A    
C17   O8    A    
N6    N11   S    
C8    C10   A    
H8    N5    S    
H4    N3    S    
H10   N6    S    
C16   O5    A    
C18   N12   S    
C10   C17   S    
C12   O4    A    
C9    C18   A    
C13   N1    A    
H12   N12   S    
N10   N11   D    
C4    C6    A    
C19   N13   S    
C7    C9    A    
H9    N6    S    
C14   C15   D    
Cu2   O6    S    
C1    C14   S    
C6    N4    S    
C3    C5    A    
C2    C19   A    
C13   N9    A    
C5    N3    S    
H6    N4    S    
C15   Cl2   S    
H15   N13   S    
H14   N13   S    
C2    N2    S    
H16   N14   S    
C8    H11   S    
C3    C13   S    
