data_mof_unit_40191.cif
_audit_creation_date              2012-12-10T19:45:46-0500
_audit_creation_method            fapswitch 2.2
_symmetry_space_group_name_H-M    P1
_symmetry_Int_Tables_number       1
_space_group_crystal_system       triclinic
_cell_length_a                    10.898773
_cell_length_b                    14.668228
_cell_length_c                    14.456563
_cell_angle_alpha                 66.223464
_cell_angle_beta                  102.576694
_cell_angle_gamma                 101.270779
_cell_volume                      2049.15554946

loop_
_atom_site_label
_atom_site_type_symbol
_atom_type_description
_atom_site_fract_x
_atom_site_fract_y
_atom_site_fract_z
_atom_type_partial_charge
C1    C     C_R   0.475809 0.119160 0.310864 0.793811
C2    C     C_R   0.577707 0.777912 0.982587 -0.228733
C3    C     C_R   0.412841 0.151512 0.118262 0.160874
C4    C     C_R   0.577808 0.847779 0.882137 0.160584
C5    C     C_R   0.488186 0.289629 0.176914 -0.299642
C6    C     C_R   0.504111 0.710321 0.822292 -0.298398
C7    C     C_R   0.473025 0.360435 0.075763 0.087050
C8    C     C_R   0.512354 0.639219 0.923314 0.085664
C9    C     C_R   0.437124 0.324020 0.995882 0.128298
C10   C     C_R   0.545361 0.675406 0.003454 0.128332
C11   C     C_R   0.494644 0.466151 0.051648 0.075362
C12   C     C_R   0.523130 0.880818 0.689128 0.793987
C13   C     C_R   0.487805 0.533494 0.947093 0.074147
C14   C     C_R   0.458236 0.492648 0.870227 -0.226113
C15   C     C_R   0.520403 0.506789 0.128430 -0.224746
C16   C     C_R   0.262817 0.001640 0.500460 0.791091
C17   C     C_R   0.737141 0.998387 0.499412 0.792669
C18   C     C_R   0.431436 0.390203 0.894506 -0.219432
C19   C     C_R   0.546273 0.609176 0.104484 -0.221093
C20   C     C_R   0.701608 0.279761 0.677136 -0.328594
C21   C     C_R   0.298411 0.719747 0.323429 -0.326689
C22   C     C_R   0.675636 0.201368 0.642199 0.078008
C23   C     C_R   0.870257 0.996258 0.498850 -0.094950
C24   C     C_R   0.323095 0.797719 0.358843 0.078447
C25   C     C_R   0.523594 0.287608 0.505986 0.031056
C26   C     C_R   0.478609 0.713427 0.493067 0.026425
C27   C     C_R   0.550652 0.372443 0.534315 -0.013532
C28   C     C_R   0.452376 0.628717 0.464689 -0.011641
C29   C     C_R   0.636867 0.364336 0.625132 0.160046
C30   C     C_R   0.365357 0.636316 0.374342 0.158637
C31   C     C_R   0.491721 0.462456 0.478781 0.068790
C32   C     C_R   0.512332 0.539168 0.519899 0.068400
C33   C     C_R   0.591508 0.523554 0.614939 -0.265717
C34   C     C_R   0.129566 0.003817 0.500675 -0.102939
C35   C     C_R   0.412988 0.478295 0.383585 -0.250118
C36   C     C_R   0.655505 0.439316 0.664662 -0.216822
C37   C     C_R   0.347977 0.561926 0.334255 -0.225589
C38   C     C_R   0.296997 0.194517 0.700773 -0.153984
C39   C     C_R   0.703191 0.811932 0.292257 -0.154311
C40   C     C_R   0.235732 0.122056 0.661250 -0.157023
C41   C     C_R   0.764099 0.882658 0.334282 -0.142753
C42   C     C_R   0.169222 0.150553 0.561058 0.128351
C43   C     C_R   0.830456 0.851878 0.434549 0.096754
C44   C     C_R   0.164295 0.253980 0.499653 0.173989
C45   C     C_R   0.912964 0.928957 0.468747 -0.005915
C46   C     C_R   0.836135 0.747966 0.493027 0.174875
C47   C     C_R   0.222624 0.325365 0.542466 -0.178775
C48   C     C_R   0.776798 0.678323 0.448307 -0.145763
C49   C     C_R   0.289374 0.295880 0.641743 -0.139881
C50   C     C_R   0.710367 0.710069 0.349009 -0.152216
C51   C     C_R   0.958326 0.065786 0.529865 -0.246255
C52   C     C_R   0.041461 0.934793 0.468955 -0.221367
C53   C     C_3   0.093550 0.290110 0.390961 -0.425926
C54   C     C_3   0.153553 0.266193 0.318366 -0.806147
C55   C     C_3   0.902667 0.709154 0.602708 -0.435517
C56   C     C_R   0.086685 0.071964 0.529442 0.016346
C57   C     C_3   0.020577 0.661900 0.613026 -0.819142
C58   C     C_3   0.627373 0.955207 0.869300 -0.386051
C59   C     C_3   0.520177 0.016277 0.851489 -0.818886
C60   C     C_3   0.365780 0.043507 0.132120 -0.384578
C61   C     C_3   0.474352 0.984792 0.147024 -0.818141
C62   C     C_R   0.458415 0.185846 0.200293 -0.093659
C63   C     C_R   0.536043 0.813895 0.799606 -0.095987
C64   C     C_R   0.407016 0.221306 0.017409 -0.229401
Cu1   Cu    Cu3+1 0.466270 0.918260 0.475690 0.930567
Cu2   Cu    Cu3+1 0.533730 0.081740 0.524310 0.933002
H1    H     H_    0.335125 0.352121 0.672622 0.139082
H2    H     H_    0.451175 0.284258 0.443334 0.123674
H3    H     H_    0.270487 0.861381 0.320651 0.115697
H4    H     H_    0.726412 0.136731 0.681484 0.117184
H5    H     H_    0.770657 0.273691 0.745150 0.138484
H6    H     H_    0.228540 0.725203 0.255989 0.138023
H7    H     H_    0.606577 0.575861 0.652619 0.130798
H8    H     H_    0.398782 0.426468 0.345664 0.134764
H9    H     H_    0.347385 0.172065 0.778246 0.130820
H10   H     H_    0.653059 0.836145 0.214716 0.130278
H11   H     H_    0.236308 0.043355 0.709778 0.120883
H12   H     H_    0.664303 0.655166 0.316494 0.137621
H13   H     H_    0.763236 0.961810 0.287640 0.121145
H14   H     H_    0.216011 0.404463 0.499175 0.149500
H15   H     H_    0.781816 0.598869 0.490589 0.156233
H16   H     H_    0.927682 0.117250 0.554577 0.159361
H17   H     H_    0.072097 0.884478 0.442824 0.165632
H18   H     H_    0.407262 0.362360 0.833154 0.138290
H19   H     H_    0.566678 0.636880 0.165807 0.139930
H20   H     H_    0.471503 0.686703 0.758984 0.162020
H21   H     H_    0.525833 0.313752 0.239535 0.160533
H22   H     H_    0.256204 0.292885 0.323880 0.237966
H23   H     H_    0.376824 0.195259 0.954643 0.126305
H24   H     H_    0.139976 0.184547 0.335384 0.246924
H25   H     H_    0.107904 0.304252 0.238427 0.238013
H26   H     H_    0.993064 0.256422 0.389552 0.208768
H27   H     H_    0.092599 0.372780 0.360428 0.198778
H28   H     H_    0.994696 0.595529 0.590973 0.244885
H29   H     H_    0.088292 0.717022 0.564142 0.257065
H30   H     H_    0.068217 0.636946 0.693807 0.244048
H31   H     H_    0.930630 0.769513 0.633664 0.212459
H32   H     H_    0.836241 0.652011 0.651551 0.198697
H33   H     H_    0.559943 0.094554 0.842484 0.235151
H34   H     H_    0.605376 0.803675 0.045624 0.126350
H35   H     H_    0.452877 0.017536 0.781729 0.271458
H36   H     H_    0.467885 0.983321 0.917767 0.237656
H37   H     H_    0.692541 0.957798 0.939321 0.182022
H38   H     H_    0.686753 0.989620 0.808069 0.198924
H39   H     H_    0.523329 0.018497 0.078874 0.237531
H40   H     H_    0.544177 0.985221 0.215054 0.270431
H41   H     H_    0.436523 0.905885 0.157371 0.235338
H42   H     H_    0.309078 0.008106 0.195043 0.199354
H43   H     H_    0.298607 0.039628 0.063436 0.181534
H44   H     H_    0.454655 0.537129 0.789860 0.139277
H45   H     H_    0.520206 0.461873 0.208350 0.136796
H46   H     H_    0.718400 0.431884 0.735965 0.149489
H47   H     H_    0.284994 0.569185 0.263022 0.151493
H48   H     H_    0.552126 0.717545 0.554966 0.121750
N1    N     N_R   0.584450 0.204570 0.560790 -0.175989
N2    N     N_R   0.415550 0.795430 0.439210 -0.175695
O1    O     O_R   0.455540 0.022090 0.338120 -0.579237
O2    O     O_R   0.544460 0.977910 0.661880 -0.580254
O3    O     O_R   0.512510 0.160150 0.379180 -0.591649
O4    O     O_R   0.487490 0.839850 0.620820 -0.591123
O5    O     O_R   0.291160 0.930970 0.479480 -0.593525
O6    O     O_R   0.708840 0.069030 0.520520 -0.591309
O7    O     O_R   0.348130 0.069020 0.520540 -0.571190
O8    O     O_R   0.651870 0.930980 0.479460 -0.577580

loop_
_geom_bond_atom_site_label_1
_geom_bond_atom_site_label_2
_ccdc_geom_bond_type
C38   C40   A    
C35   H8    S    
C34   C56   A    
C8    C13   A    
C23   C45   A    
C27   C29   A    
C9    C64   A    
C59   H33   S    
C14   C18   A    
C1    C62   S    
C47   C49   A    
C38   C49   A    
C53   C54   S    
C7    C11   A    
C4    C63   A    
C17   C23   S    
C47   H14   S    
C35   C37   A    
C16   O7    A    
C54   H24   S    
C25   N1    A    
C37   H47   S    
C33   C36   A    
C48   H15   S    
C7    C9    A    
C51   C56   A    
C1    O3    A    
Cu1   O8    S    
C60   H43   S    
C16   C34   S    
C12   O4    A    
C11   C15   A    
C44   C53   S    
C57   H30   S    
C46   C55   S    
C36   H46   S    
C18   H18   S    
Cu2   O6    S    
C20   H5    S    
Cu1   O5    S    
C61   H39   S    
C60   H42   S    
C44   C47   A    
C20   C29   A    
C42   C56   S    
C3    C60   S    
C40   C42   A    
C2    H34   S    
C13   C14   A    
C41   C43   A    
C25   H2    S    
C42   C44   A    
C64   H23   S    
C50   H12   S    
C24   H3    S    
C38   H9    S    
C46   C48   A    
Cu2   N1    S    
C21   H6    S    
C27   C31   A    
C59   H35   S    
C15   H45   S    
C28   C32   A    
C39   C41   A    
C5    C7    A    
C12   C63   S    
C6    C8    A    
C45   C52   A    
C58   C59   S    
C3    C64   A    
C53   H27   S    
C30   C37   A    
C60   C61   S    
C6    C63   A    
C52   H17   S    
C2    C4    A    
C16   O5    A    
C26   H48   S    
C9    C18   A    
C17   O8    A    
C23   C51   A    
C31   C32   A    
C29   C36   A    
C10   C19   A    
C55   H31   S    
C53   H26   S    
C1    O1    A    
C39   H10   S    
C61   H40   S    
C43   C45   S    
C51   H16   S    
C12   O2    A    
C33   H7    S    
C22   N1    A    
C20   C22   A    
C24   N2    A    
Cu2   O3    S    
C55   C57   S    
C57   H29   S    
Cu1   N2    S    
C31   C35   A    
C58   H38   S    
C2    C10   A    
C3    C62   A    
C14   H44   S    
C49   H1    S    
C40   H11   S    
C59   H36   S    
C26   C28   A    
C19   H19   S    
C41   H13   S    
C25   C27   A    
C21   C30   A    
C34   C52   A    
C6    H20   S    
C57   H28   S    
C32   C33   A    
C28   C30   A    
C54   H25   S    
C15   C19   A    
C54   H22   S    
C11   C13   A    
C55   H32   S    
C48   C50   A    
Cu1   O4    S    
C5    C62   A    
C61   H41   S    
C43   C46   A    
C26   N2    A    
C5    H21   S    
C17   O6    A    
C39   C50   A    
C8    C10   A    
Cu1   Cu2   S    
Cu2   O2    S    
C21   C24   A    
C4    C58   S    
Cu1   O1    S    
Cu2   O7    S    
C58   H37   S    
C22   H4    S    
