data_mof_unit_30766.cif
_audit_creation_date              2013-03-05T16:48:15-0500
_audit_creation_method            fapswitch 2.2
_symmetry_space_group_name_H-M    P1
_symmetry_Int_Tables_number       1
_space_group_crystal_system       triclinic
_cell_length_a                    23.526298
_cell_length_b                    8.919339
_cell_length_c                    8.09012
_cell_angle_alpha                 90.194528
_cell_angle_beta                  90.07788
_cell_angle_gamma                 89.56576
_cell_volume                      1697.56286235

loop_
_atom_site_label
_atom_site_type_symbol
_atom_site_description
_atom_site_fract_x
_atom_site_fract_y
_atom_site_fract_z
_atom_type_partial_charge
O1    O     O_R   0.500000 0.285350 0.636850 -0.610106
O2    O     O_R   0.500000 0.714650 0.363150 -0.595181
O3    O     O_R   0.500000 0.714650 0.636850 -0.610861
O4    O     O_R   0.500000 0.285350 0.363150 -0.595711
H1    H     H_    0.950635 0.124873 0.423141 0.185822
H2    H     H_    0.049344 0.878248 0.539122 0.191526
H3    H     H_    0.946112 0.877614 0.520268 0.192161
H4    H     H_    0.053973 0.127790 0.413097 0.188718
C1    C     C_R   0.499591 0.217971 0.499843 1.002969
C2    C     C_R   0.500736 0.782012 0.500214 0.997874
O5    O     O_R   0.416160 0.500000 0.636910 -0.577999
O6    O     O_R   0.583840 0.500000 0.363090 -0.578752
O7    O     O_R   0.583840 0.500000 0.636910 -0.575594
O8    O     O_R   0.416160 0.500000 0.363090 -0.575255
C3    C     C_R   0.207830 0.504239 0.492852 0.101403
C4    C     C_R   0.792137 0.497291 0.484724 0.095924
C5    C     C_R   0.388962 0.500397 0.499758 1.012718
C6    C     C_R   0.611030 0.499669 0.499900 1.010624
Zn1   Zn    Zn3+2 0.500000 0.500000 0.682780 1.145045
Zn2   Zn    Zn3+2 0.500000 0.500000 0.317220 1.157040
C7    C     C_R   0.296995 0.588533 0.379053 0.324935
C8    C     C_R   0.702256 0.413993 0.374295 0.331621
C9    C     C_R   0.295874 0.415505 0.614957 0.301762
C10   C     C_R   0.704874 0.580663 0.616248 0.304277
C11   C     C_R   0.326563 0.501553 0.498356 -0.328101
C12   C     C_R   0.673402 0.497749 0.497949 -0.337060
C13   C     C_R   0.880478 0.633739 0.477570 0.580250
C14   C     C_R   0.119886 0.371863 0.454226 0.589316
C15   C     C_R   0.882174 0.365515 0.469968 0.544335
C16   C     C_R   0.118116 0.635347 0.511869 0.545409
N1    N     N_R   0.852976 0.498931 0.475941 -0.335509
N2    N     N_R   0.147136 0.503712 0.486643 -0.337170
C17   C     C_R   0.941390 0.364652 0.459514 -0.020084
C18   C     C_R   0.058886 0.638334 0.501741 -0.021804
C19   C     C_R   0.939752 0.637433 0.484775 -0.009396
C20   C     C_R   0.060589 0.367717 0.453024 -0.013391
C21   C     C_R   0.970330 0.501636 0.472594 -0.009333
C22   C     C_R   0.030004 0.502632 0.475290 -0.012209
C23   C     C_R   0.972179 0.230738 0.437779 -0.145114
C24   C     C_R   0.028001 0.772787 0.518203 -0.146587
C25   C     C_R   0.968934 0.772590 0.506952 -0.140600
C26   C     C_R   0.031309 0.232538 0.431721 -0.136311
C27   C     C_1   0.499988 0.065184 0.499848 -0.050997
C28   C     C_1   0.500472 0.934795 0.500374 -0.055076
C29   C     C_R   0.238110 0.569287 0.361680 -0.119371
C30   C     C_R   0.760652 0.437649 0.351735 -0.116375
C31   C     C_R   0.236702 0.436847 0.627207 -0.070148
C32   C     C_R   0.764027 0.557266 0.625153 -0.056736
N3    N     N_1   0.500000 0.500000 0.073640 0.038453
N4    N     N_1   0.500000 0.500000 0.926360 0.037741
O9    O     O_2   0.850378 0.763185 0.475867 -0.501812
O10   O     O_2   0.150256 0.245387 0.425853 -0.499029
O11   O     O_2   0.853816 0.234545 0.473693 -0.502584
O12   O     O_2   0.146725 0.762550 0.545282 -0.502326
C33   C     C_2   0.207544 0.613002 0.207326 0.584032
H5    H     H_    0.162093 0.633331 0.207518 0.047829
O13   O     O_2   0.232393 0.619330 0.075220 -0.513916
C34   C     C_2   0.789023 0.405678 0.190290 0.579642
H6    H     H_    0.834877 0.407210 0.179116 0.055940
O14   O     O_2   0.761456 0.385283 0.064466 -0.505680
C35   C     C_2   0.206397 0.393619 0.782199 0.635106
H7    H     H_    0.230223 0.356193 0.889203 0.142008
O15   O     O_2   0.154947 0.405300 0.796875 -0.573436
C36   C     C_2   0.795308 0.590130 0.782075 0.617823
H8    H     H_    0.774060 0.643695 0.885251 0.138323
O16   O     O_2   0.844353 0.549033 0.803652 -0.581871
S1    S     S_3+6 0.331278 0.736446 0.270116 0.109325
O17   O     O_2   0.359969 0.673886 0.118740 -0.200709
O18   O     O_2   0.289304 0.855380 0.218413 -0.219508
O19   O     O_3   0.380087 0.817649 0.391802 -0.569015
H9    H     H_    0.358565 0.855271 0.488797 0.366468
S2    S     S_3+6 0.668263 0.263381 0.267947 0.114176
O20   O     O_2   0.638080 0.322698 0.117659 -0.196848
O21   O     O_2   0.710921 0.146424 0.214930 -0.215480
O22   O     O_3   0.620897 0.180934 0.392494 -0.572101
H10   H     H_    0.643356 0.145234 0.488464 0.367947
S3    S     S_3+6 0.329656 0.271567 0.733836 0.044672
O23   O     O_2   0.377913 0.202314 0.638414 -0.318570
O24   O     O_2   0.351935 0.338305 0.891802 -0.262846
O25   O     O_3   0.283358 0.134665 0.778649 -0.533201
H11   H     H_    0.304347 0.066175 0.853636 0.414704
S4    S     S_3+6 0.672203 0.721606 0.742488 0.046365
O26   O     O_2   0.622412 0.791663 0.654808 -0.310369
O27   O     O_2   0.652416 0.651481 0.900824 -0.264229
O28   O     O_3   0.718729 0.858760 0.785707 -0.534352
H12   H     H_    0.700258 0.919633 0.873584 0.414434

loop_
_geom_bond_atom_site_label_1
_geom_bond_atom_site_label_2
_geom_bond_distance
_ccdc_geom_bond_type
C33   H5    1.083198 S    
C20   C26   1.403153 A    
C6    C12   1.467465 S    
C2    C28   1.362688 S    
C3    C31   1.414361 A    
O22   H10   0.990661 S    
C4    C32   1.416597 A    
C3    N2    1.428749 S    
S3    O23   1.501641 D    
C4    N1    1.433370 S    
C16   O12   1.349933 S    
O5    Zn1   2.006557 S    
C17   C23   1.402880 A    
O7    C6    1.280501 A    
C18   C24   1.403501 A    
C19   C21   1.407291 A    
C21   C22   1.404136 A    
H4    C26   1.082405 S    
C32   C36   1.495781 S    
C34   O14   1.220092 D    
C15   C17   1.395779 A    
C35   O15   1.220055 D    
C10   S4    1.786886 S    
O3    Zn1   1.951499 S    
O19   H9    0.990677 S    
C9    C11   1.419623 A    
C7    S1    1.787095 S    
O8    C5    1.278191 A    
S2    O22   1.678788 S    
C8    S2    1.786325 S    
C13   O9    1.349964 S    
C23   C26   1.392246 A    
C7    C29   1.404049 A    
S3    O24   1.503327 D    
C1    C27   1.362718 S    
C9    C31   1.407200 A    
C16   C18   1.395821 A    
C13   N1    1.369751 A    
S1    O17   1.502877 D    
C10   C32   1.407445 A    
O8    Zn2   2.007548 S    
C14   N2    1.368082 A    
O1    C1    1.259107 A    
S2    O21   1.503879 D    
C4    C30   1.410356 A    
O7    Zn1   2.007546 S    
O25   H11   0.991045 S    
C13   C19   1.396273 A    
C34   H6    1.082868 S    
O28   H12   0.991824 S    
O1    Zn1   1.949023 S    
O2    Zn2   1.949022 S    
C17   C21   1.406801 A    
S1    O18   1.503805 D    
C36   O16   1.220520 D    
C27   C28   1.162978 T    
Zn2   N3    1.970591 S    
O6    Zn2   2.006554 S    
C9    S3    1.787645 S    
C14   C20   1.395817 A    
C24   C25   1.392494 A    
C8    C30   1.403781 A    
N3    N4    1.191512 T    
S4    O27   1.503410 D    
H1    C23   1.081132 S    
H2    C24   1.082323 S    
C3    C29   1.408089 A    
O2    C2    1.259540 A    
S3    O25   1.683172 S    
C7    C11   1.418592 A    
O5    C5    1.280097 A    
C18   C22   1.408124 A    
C10   C12   1.418680 A    
S2    O20   1.502925 D    
C31   C35   1.496369 S    
S4    O28   1.683220 S    
S1    O19   1.678389 S    
C5    C11   1.468016 S    
C36   H8    1.081515 S    
C33   O13   1.220573 D    
C15   N1    1.370242 A    
O3    C2    1.260129 A    
C16   N2    1.368543 A    
C14   O10   1.349905 S    
Zn1   N4    1.970591 S    
C15   O11   1.350077 S    
C20   C22   1.408550 A    
H3    C25   1.081307 S    
C35   H7    1.082973 S    
C19   C25   1.402679 A    
O4    Zn2   1.951500 S    
C29   C33   1.491678 S    
S4    O26   1.501806 D    
C8    C12   1.417300 A    
O6    C6    1.277607 A    
O4    C1    1.260490 A    
C30   C34   1.493218 S    
