data_mof_unit_44786.cif
_audit_creation_date              2012-12-10T20:32:45-0500
_audit_creation_method            fapswitch 2.2
_symmetry_space_group_name_H-M    P1
_symmetry_Int_Tables_number       1
_space_group_crystal_system       triclinic
_cell_length_a                    11.508332
_cell_length_b                    10.780861
_cell_length_c                    9.955974
_cell_angle_alpha                 88.568236
_cell_angle_beta                  90.686564
_cell_angle_gamma                 92.08864
_cell_volume                      1233.95315843

loop_
_atom_site_label
_atom_site_type_symbol
_atom_type_description
_atom_site_fract_x
_atom_site_fract_y
_atom_site_fract_z
_atom_type_partial_charge
C1    C     C_R   0.497916 0.259959 0.501036 0.832934
C2    C     C_R   0.582589 0.567092 0.071926 0.154897
C3    C     C_R   0.585550 0.563007 0.928296 0.157365
C4    C     C_R   0.282183 0.499452 0.499432 0.902020
C5    C     C_R   0.404181 0.459707 0.929066 0.119950
C6    C     C_3   0.346280 0.335593 0.924357 -0.488561
C7    C     C_3   0.347858 0.331074 0.077000 -0.017354
C8    C     C_R   0.504711 0.739413 0.498534 0.897242
C9    C     C_R   0.717776 0.499242 0.500667 0.920628
C10   C     C_1   0.161608 0.498571 0.498699 -0.151417
C11   C     C_1   0.059282 0.497935 0.499621 0.029793
C12   C     C_R   0.501035 0.127234 0.500191 -0.128314
C13   C     C_1   0.940561 0.497777 0.501210 0.027254
C14   C     C_1   0.838277 0.498246 0.501790 -0.153823
C15   C     C_R   0.526116 0.057237 0.615627 0.029300
C16   C     C_R   0.367196 0.056655 0.797016 0.122753
C17   C     C_R   0.322524 0.991864 0.911624 -0.186597
C18   C     C_R   0.204852 0.994605 0.943967 -0.086755
C19   C     C_R   0.128402 0.059803 0.861531 -0.065385
C20   C     C_R   0.169356 0.121377 0.745868 -0.158658
C21   C     C_R   0.287159 0.119704 0.713421 -0.132427
C22   C     C_R   0.583828 0.128618 0.851666 0.119001
C23   C     C_R   0.490353 0.065895 0.377199 -0.201972
C24   C     C_R   0.672652 0.206602 0.793980 -0.075930
C25   C     C_R   0.748226 0.278062 0.874105 -0.131708
C26   C     C_R   0.739321 0.271189 0.013431 -0.098107
C27   C     C_R   0.656212 0.191047 0.072893 -0.133231
C28   C     C_R   0.579870 0.119580 0.993245 -0.188635
C29   C     C_R   0.497084 0.937826 0.374487 -0.200931
C30   C     C_R   0.518235 0.871019 0.494566 -0.069875
C31   C     C_R   0.548654 0.935344 0.609847 0.110281
C32   C     C_3   0.531018 0.914795 0.757165 -0.504065
C33   C     C_3   0.497958 0.051518 0.763866 -0.007708
C34   C     C_R   0.404978 0.457078 0.070568 0.155381
H1    H     H_    0.470718 0.115237 0.284423 0.159496
H2    H     H_    0.037245 0.061772 0.886664 0.147060
H3    H     H_    0.109834 0.171535 0.681445 0.142582
H4    H     H_    0.313582 0.170033 0.624058 0.135833
H5    H     H_    0.685614 0.212760 0.686766 0.125862
H6    H     H_    0.814324 0.338443 0.827811 0.157042
H7    H     H_    0.797865 0.326694 0.075402 0.165936
H8    H     H_    0.651403 0.184116 0.181224 0.155155
H9    H     H_    0.518330 0.057987 0.043944 0.130147
H10   H     H_    0.405608 0.271268 0.880040 0.209457
H11   H     H_    0.405350 0.259900 0.120639 0.144503
H12   H     H_    0.479385 0.891605 0.280645 0.176997
H13   H     H_    0.460271 0.844639 0.779400 0.218137
H14   H     H_    0.613988 0.896189 0.810315 0.229179
H15   H     H_    0.258318 0.339361 0.877689 0.231118
H16   H     H_    0.377688 0.935555 0.974876 0.128002
H17   H     H_    0.172733 0.944855 0.032537 0.148446
I1    I     I_    0.176818 0.330072 0.159198 -0.388508
I2    I     I_    0.698546 0.694596 0.173202 -0.307800
I3    I     I_    0.727055 0.661107 0.830668 -0.338942
N1    N     N_R   0.499240 0.499140 0.142800 -0.155438
N2    N     N_R   0.499240 0.499180 0.857150 -0.132342
O1    O     O_R   0.500010 0.316790 0.614690 -0.629776
O2    O     O_R   0.500000 0.316760 0.385350 -0.621222
O3    O     O_R   0.334450 0.500030 0.614670 -0.615471
O4    O     O_R   0.334440 0.500000 0.385330 -0.581318
O5    O     O_R   0.500000 0.683240 0.614650 -0.606850
O6    O     O_R   0.499990 0.683210 0.385310 -0.605370
O7    O     O_R   0.665560 0.500000 0.614670 -0.592053
O8    O     O_R   0.665550 0.499970 0.385330 -0.587072
Zn1   Zn    Zn3+2 0.500010 0.500020 0.653130 0.971991
Zn2   Zn    Zn3+2 0.499990 0.499980 0.346870 0.987872

loop_
_geom_bond_atom_site_label_1
_geom_bond_atom_site_label_2
_ccdc_geom_bond_type
C17   H16   S    
C18   H17   S    
C9    C14   S    
O7    Zn1   S    
C15   C31   A    
C16   C21   A    
C1    O1    A    
C16   C33   S    
C9    O8    A    
C32   H14   S    
C3    N2    A    
C29   H12   S    
C5    N2    A    
C31   C32   S    
C12   C23   A    
C12   C15   A    
C8    O5    A    
C19   H2    S    
C8    C30   S    
C5    C34   A    
C4    O4    A    
C17   C18   A    
C25   C26   A    
O4    Zn2   S    
C34   N1    A    
C6    H15   S    
C22   C28   A    
C1    O2    A    
C32   C33   S    
C20   H3    S    
C11   C13   S    
C27   H8    S    
C26   C27   A    
C6    C7    S    
C1    C12   S    
C23   C29   A    
C4    O3    A    
C3    I3    S    
C15   C33   S    
C7    I1    S    
C2    C3    A    
C23   H1    S    
C2    N1    A    
C25   H6    S    
C5    C6    S    
C32   H13   S    
C22   C24   A    
C10   C11   T    
O6    Zn2   S    
C29   C30   A    
N2    Zn1   S    
O5    Zn1   S    
N1    Zn2   S    
C24   C25   A    
C18   C19   A    
C7    C34   S    
O1    Zn1   S    
C27   C28   A    
C22   C33   S    
C30   C31   A    
C6    H10   S    
C28   H9    S    
C13   C14   T    
C20   C21   A    
C9    O7    A    
C4    C10   S    
C24   H5    S    
O2    Zn2   S    
O3    Zn1   S    
C21   H4    S    
C19   C20   A    
C26   H7    S    
C8    O6    A    
C16   C17   A    
C7    H11   S    
C2    I2    S    
O8    Zn2   S    
