data_mof_unit_18683.cif
_audit_creation_date              2012-12-10T18:02:08-0500
_audit_creation_method            fapswitch 2.2
_symmetry_space_group_name_H-M    P1
_symmetry_Int_Tables_number       1
_space_group_crystal_system       triclinic
_cell_length_a                    11.071656
_cell_length_b                    9.500801
_cell_length_c                    23.560173
_cell_angle_alpha                 90.000033
_cell_angle_beta                  87.339187
_cell_angle_gamma                 90.0
_cell_volume                      2475.61324331

loop_
_atom_site_label
_atom_site_type_symbol
_atom_type_description
_atom_site_fract_x
_atom_site_fract_y
_atom_site_fract_z
_atom_type_partial_charge
C1    C     C_R   0.262105 0.501434 0.497192 0.801623
C2    C     C_R   0.737895 0.501434 0.502808 0.801623
C3    C     C_R   0.559624 0.416406 0.234283 -0.141618
C4    C     C_R   0.440378 0.416406 0.765717 -0.141618
C5    C     C_R   0.566318 0.407396 0.293414 0.051970
C6    C     C_R   0.433684 0.407396 0.706586 0.051970
C7    C     C_R   0.497768 0.502599 0.328394 -0.060432
C8    C     C_R   0.502232 0.502599 0.671606 -0.060432
C9    C     C_R   0.429511 0.607964 0.302991 -0.271998
C10   C     C_R   0.570488 0.607965 0.697009 -0.271999
C11   C     C_R   0.428273 0.619320 0.244101 -0.101877
C12   C     C_R   0.571727 0.619321 0.755899 -0.101877
C13   C     C_R   0.492907 0.523270 0.209377 0.329811
C14   C     C_R   0.507095 0.523270 0.790623 0.329810
C15   C     C_R   0.061164 0.381606 0.490303 0.038702
C16   C     C_R   0.935743 0.639952 0.502033 0.038683
C17   C     C_R   0.938836 0.381606 0.509697 0.038702
C18   C     C_R   0.064256 0.639952 0.497966 0.038683
C19   C     C_R   0.872005 0.508092 0.505958 -0.138703
C20   C     C_R   0.127995 0.508092 0.494042 -0.138704
C21   C     C_R   0.460949 0.074378 0.454523 -0.063903
C22   C     C_R   0.539594 0.925680 0.545396 -0.039139
C23   C     C_R   0.539051 0.074378 0.545477 -0.063904
C24   C     C_R   0.460406 0.925680 0.454604 -0.039139
C25   C     C_R   0.499757 0.500157 0.390941 0.785145
C26   C     C_R   0.500243 0.500157 0.609059 0.785146
C27   C     C_R   0.613673 0.528805 0.878322 0.513135
C28   C     C_R   0.386328 0.528803 0.121678 0.513135
C29   C     C_R   0.398696 0.548449 0.881653 0.533452
C30   C     C_R   0.601305 0.548449 0.118347 0.533452
C31   C     C_R   0.394453 0.547638 0.941092 -0.027639
C32   C     C_R   0.605548 0.547639 0.058908 -0.027639
C33   C     C_R   0.502686 0.542705 0.969889 -0.043438
C34   C     C_R   0.497315 0.542705 0.030111 -0.043438
C35   C     C_R   0.615684 0.536070 0.938555 -0.038220
C36   C     C_R   0.384317 0.536068 0.061445 -0.038221
C37   C     C_R   0.283263 0.547938 0.971746 -0.207891
C38   C     C_R   0.716739 0.547939 0.028255 -0.207891
C39   C     C_R   0.275568 0.535829 0.031028 0.081403
C40   C     C_R   0.724434 0.535831 0.968972 0.081404
Cu1   Cu    Cu3+1 0.500000 0.640660 0.500000 0.922776
Cu2   Cu    Cu3+1 0.500000 0.359340 0.500000 0.917301
H1    H     H_    0.610725 0.343763 0.207054 0.143243
H2    H     H_    0.389277 0.343762 0.792946 0.143243
H3    H     H_    0.377767 0.682858 0.328891 0.147034
H4    H     H_    0.622232 0.682859 0.671109 0.147035
H5    H     H_    0.377324 0.703373 0.225428 0.152221
H6    H     H_    0.622676 0.703375 0.774572 0.152222
H7    H     H_    0.429621 0.129903 0.418055 0.139330
H8    H     H_    0.572473 0.870333 0.581645 0.120253
H9    H     H_    0.570379 0.129903 0.581945 0.139330
H10   H     H_    0.427527 0.870332 0.418355 0.120253
N1    N     N_R   0.506629 0.535413 0.851601 -0.454181
N2    N     N_R   0.493372 0.535412 0.148399 -0.454182
N3    N     N_R   0.500000 0.852070 0.500000 -0.146532
N4    N     N_R   0.500000 0.147930 0.500000 -0.156397
O1    O     O_R   0.319640 0.618740 0.500000 -0.588837
O2    O     O_R   0.680360 0.381260 0.500000 -0.580655
O3    O     O_R   0.680360 0.618740 0.500000 -0.588837
O4    O     O_R   0.319640 0.381260 0.500000 -0.580655
O5    O     O_R   0.499960 0.618810 0.417880 -0.589298
O6    O     O_R   0.500040 0.381190 0.582120 -0.592138
O7    O     O_R   0.500040 0.618810 0.582120 -0.589298
O8    O     O_R   0.499960 0.381190 0.417880 -0.592138
O9    O     O_2   0.716524 0.513465 0.846185 -0.571194
O10   O     O_2   0.283478 0.513459 0.153815 -0.571193
O11   O     O_2   0.295256 0.561450 0.853895 -0.563898
O12   O     O_2   0.704745 0.561451 0.146105 -0.563897
H11   H     H_    0.200610 0.551840 0.949011 0.176640
H12   H     H_    0.799391 0.551842 0.050990 0.176638
C41   C     C_3   0.149430 0.516761 0.058178 -0.339066
C42   C     C_3   0.125062 0.360825 0.071871 -0.316114
C43   C     C_3   0.001896 0.340033 0.102408 -0.792416
H13   H     H_    0.994657 0.404417 0.141777 0.280204
H14   H     H_    0.928932 0.369846 0.074087 0.242523
H15   H     H_    0.990042 0.227493 0.114087 0.235074
H16   H     H_    0.127671 0.299354 0.031664 0.202440
H17   H     H_    0.195783 0.317419 0.098798 0.252015
H18   H     H_    0.133878 0.586403 0.095520 0.240890
H19   H     H_    0.080413 0.551947 0.028629 0.156395
C44   C     C_3   0.850572 0.516762 0.941822 -0.339066
C45   C     C_3   0.874939 0.360825 0.928129 -0.316114
C46   C     C_3   0.998110 0.340031 0.897596 -0.792423
H20   H     H_    0.005360 0.404421 0.858229 0.280205
H21   H     H_    0.071068 0.369835 0.925923 0.242518
H22   H     H_    0.009961 0.227492 0.885915 0.235076
H23   H     H_    0.872321 0.299353 0.968335 0.202443
H24   H     H_    0.804222 0.317423 0.901199 0.252016
H25   H     H_    0.866124 0.586404 0.904480 0.240889
H26   H     H_    0.919588 0.551946 0.971372 0.156398
C47   C     C_3   0.658212 0.308255 0.316941 -0.401223
C48   C     C_3   0.766290 0.392548 0.337208 -0.312381
C49   C     C_3   0.846574 0.302235 0.372676 -0.864542
H27   H     H_    0.793168 0.259048 0.409579 0.275822
H28   H     H_    0.887326 0.215270 0.346806 0.259026
H29   H     H_    0.918600 0.369529 0.388888 0.249229
H30   H     H_    0.820087 0.433831 0.299802 0.228717
H31   H     H_    0.736000 0.483956 0.363572 0.205518
H32   H     H_    0.616132 0.242489 0.351311 0.218420
H33   H     H_    0.692184 0.232754 0.283821 0.184768
C50   C     C_3   0.341790 0.308254 0.683059 -0.401222
C51   C     C_3   0.233711 0.392547 0.662792 -0.312378
C52   C     C_3   0.153428 0.302233 0.627324 -0.864546
H34   H     H_    0.206835 0.259047 0.590421 0.275823
H35   H     H_    0.112676 0.215268 0.653194 0.259027
H36   H     H_    0.081401 0.369526 0.611112 0.249230
H37   H     H_    0.179914 0.433829 0.700199 0.228717
H38   H     H_    0.264001 0.483955 0.636428 0.205518
H39   H     H_    0.383870 0.242488 0.648690 0.218419
H40   H     H_    0.307818 0.232753 0.716180 0.184767
C53   C     C_3   0.114108 0.248701 0.461806 -0.403380
C54   C     C_3   0.171270 0.275701 0.401763 -0.319379
C55   C     C_3   0.180787 0.139793 0.367140 -0.876640
H41   H     H_    0.229793 0.057788 0.390522 0.238363
H42   H     H_    0.089246 0.099686 0.358497 0.255958
H43   H     H_    0.230469 0.160403 0.325950 0.251749
H44   H     H_    0.117778 0.353220 0.378362 0.214532
H45   H     H_    0.263278 0.320026 0.404202 0.232052
H46   H     H_    0.180461 0.197457 0.488678 0.216126
H47   H     H_    0.041605 0.170164 0.456775 0.195482
C56   C     C_3   0.869804 0.782542 0.500158 -0.344786
C57   C     C_3   0.844530 0.818338 0.437964 -0.299238
C58   C     C_3   0.799279 0.967852 0.431464 -0.888908
H48   H     H_    0.722750 0.989660 0.462036 0.275491
H49   H     H_    0.874152 0.041439 0.438895 0.237155
H50   H     H_    0.769060 0.984029 0.387654 0.249150
H51   H     H_    0.928887 0.806489 0.410878 0.200770
H52   H     H_    0.777109 0.744913 0.421060 0.238529
H53   H     H_    0.789744 0.790152 0.529660 0.202633
H54   H     H_    0.918033 0.869432 0.520380 0.172884
C59   C     C_3   0.885892 0.248701 0.538194 -0.403382
C60   C     C_3   0.828730 0.275703 0.598237 -0.319380
C61   C     C_3   0.819213 0.139795 0.632860 -0.876640
H55   H     H_    0.770205 0.057791 0.609479 0.238363
H56   H     H_    0.910753 0.099687 0.641503 0.255958
H57   H     H_    0.769532 0.160406 0.674050 0.251749
H58   H     H_    0.882224 0.353221 0.621638 0.214532
H59   H     H_    0.736723 0.320028 0.595798 0.232052
H60   H     H_    0.819539 0.197457 0.511322 0.216126
H61   H     H_    0.958395 0.170165 0.543226 0.195482
C62   C     C_3   0.130196 0.782542 0.499842 -0.344786
C63   C     C_3   0.155469 0.818337 0.562036 -0.299237
C64   C     C_3   0.200720 0.967851 0.568536 -0.888912
H62   H     H_    0.277251 0.989658 0.537965 0.275493
H63   H     H_    0.125849 0.041439 0.561105 0.237156
H64   H     H_    0.230938 0.984028 0.612346 0.249151
H65   H     H_    0.071112 0.806489 0.589121 0.200770
H66   H     H_    0.222889 0.744912 0.578940 0.238529
H67   H     H_    0.210256 0.790152 0.470340 0.202633
H68   H     H_    0.081967 0.869432 0.479620 0.172884

loop_
_geom_bond_atom_site_label_1
_geom_bond_atom_site_label_2
_ccdc_geom_bond_type
C24   H10   S    
C64   H64   S    
C38   C40   A    
C38   H12   S    
C9    H3    S    
C49   H27   S    
C37   H11   S    
C17   C59   S    
C8    C26   S    
Cu1   Cu2   S    
C11   H5    S    
C53   C54   S    
Cu1   O5    S    
C56   H54   S    
C12   H6    S    
Cu2   O2    S    
C41   H18   S    
C44   C45   S    
C48   H31   S    
C58   H48   S    
C24   N3    A    
C30   N2    A    
C3    H1    S    
C50   C51   S    
C13   N2    S    
C1    O1    A    
C54   H44   S    
C58   H49   S    
C60   H59   S    
C64   H62   S    
C53   H46   S    
C43   H13   S    
C6    C50   S    
C57   H51   S    
Cu1   N3    S    
C42   H17   S    
C59   H61   S    
Cu2   N4    S    
C29   O11   S    
C60   C61   S    
C48   H30   S    
C61   H57   S    
C31   C33   A    
C51   H38   S    
C32   C38   A    
C47   H33   S    
Cu2   O6    S    
C18   C20   A    
C3    C13   A    
C22   H8    S    
C55   H43   S    
C44   H25   S    
C26   O6    A    
C49   H28   S    
C4    C14   A    
C43   H14   S    
C63   H65   S    
C21   H7    S    
C54   C55   S    
C62   H68   S    
C36   C39   A    
C15   C20   A    
C62   H67   S    
C63   H66   S    
C23   N4    A    
Cu1   O3    S    
C4    C6    A    
C1    O4    A    
Cu2   O4    S    
C47   C48   S    
C5    C7    A    
C28   N2    A    
C2    O3    A    
C17   C19   A    
C58   H50   S    
C6    C8    A    
C4    H2    S    
C27   C35   A    
C60   H58   S    
C31   C37   A    
C53   H47   S    
C25   O8    A    
C32   C34   A    
C28   O10   S    
C26   O7    A    
C10   H4    S    
C42   H16   S    
C27   O9    S    
C15   C53   S    
C54   H45   S    
C23   H9    S    
C46   H20   S    
C29   C31   A    
C46   H22   S    
C27   N1    A    
C33   C34   A    
C51   H37   S    
C52   H35   S    
C25   O5    A    
C9    C11   A    
C56   C57   S    
C5    C47   S    
C10   C12   A    
C44   H26   S    
C16   C18   A    
C46   H21   S    
C12   C14   A    
C49   H29   S    
C61   H55   S    
C43   H15   S    
Cu1   O7    S    
C59   C60   S    
Cu2   O8    S    
C55   H41   S    
C64   H63   S    
C16   C56   S    
C1    C20   S    
C2    C19   S    
C22   C23   A    
C40   C44   S    
C18   C62   S    
C56   H53   S    
C42   C43   S    
C3    C5    A    
C21   N4    A    
C41   H19   S    
C2    O2    A    
C15   C17   A    
C22   N3    A    
C7    C25   S    
C35   C40   A    
C50   H40   S    
Cu1   O1    S    
C41   C42   S    
C37   C39   A    
C62   C63   S    
C30   C32   A    
C11   C13   A    
C29   N1    A    
C16   C19   A    
C45   H24   S    
C48   C49   S    
C33   C35   A    
C52   H36   S    
C34   C36   A    
C57   H52   S    
C51   C52   S    
C59   H60   S    
C7    C9    A    
C14   N1    S    
C28   C36   A    
C8    C10   A    
C45   C46   S    
C21   C24   A    
C52   H34   S    
C61   H56   S    
C39   C41   S    
C63   C64   S    
C47   H32   S    
C57   C58   S    
C50   H39   S    
C30   O12   S    
C45   H23   S    
C55   H42   S    
