data_mof_unit_40303.cif
_audit_creation_date              2012-10-26T19:24:17-0400
_audit_creation_method            fapswitch 2.2
_symmetry_space_group_name_H-M    P1
_symmetry_Int_Tables_number       1
_space_group_crystal_system       triclinic
_cell_length_a                    27.773803
_cell_length_b                    10.807157
_cell_length_c                    9.675014
_cell_angle_alpha                 88.083272
_cell_angle_beta                  89.889868
_cell_angle_gamma                 96.557542
_cell_volume                      2883.35062907

loop_
_atom_site_label
_atom_site_type_symbol
_atom_type_description
_atom_site_fract_x
_atom_site_fract_y
_atom_site_fract_z
_atom_type_partial_charge
C1    C     C_R   0.504801 0.263898 0.502809 0.590537
C2    C     C_R   0.971417 0.418984 0.573825 0.031740
C3    C     C_R   0.979842 0.642200 0.501686 -0.018112
C4    C     C_R   0.407692 0.501578 0.500079 0.569996
C5    C     C_R   0.950274 0.528827 0.534418 0.001556
C6    C     C_R   0.940836 0.316692 0.634336 0.068110
C7    C     C_R   0.890928 0.311430 0.620562 -0.057541
C8    C     C_R   0.869783 0.412672 0.564398 0.021902
C9    C     C_R   0.899064 0.524975 0.530046 -0.055317
C10   C     C_R   0.876945 0.632735 0.493040 0.016226
C11   C     C_R   0.826059 0.619555 0.474045 0.451874
C12   C     C_R   0.277894 0.489292 0.622463 0.129103
C13   C     C_R   0.819379 0.407088 0.553056 0.441719
C14   C     C_R   0.720757 0.512803 0.633790 0.092513
C15   C     C_R   0.670150 0.505514 0.628492 -0.128638
C16   C     C_R   0.495984 0.736169 0.498094 0.546068
C17   C     C_R   0.671661 0.487594 0.379714 -0.096689
C18   C     C_R   0.721991 0.491577 0.383358 -0.051964
C19   C     C_R   0.746826 0.504893 0.508978 0.210844
C20   C     C_R   0.021805 0.416432 0.553507 0.036348
C21   C     C_R   0.051708 0.527529 0.516314 0.034572
C22   C     C_R   0.031031 0.639038 0.485551 0.007144
C23   C     C_R   0.254315 0.518828 0.498974 0.227124
C24   C     C_R   0.042565 0.303483 0.554020 -0.104363
C25   C     C_R   0.112235 0.742769 0.427076 0.121919
C26   C     C_R   0.956897 0.754471 0.493842 0.048425
C27   C     C_R   0.905867 0.749579 0.485870 0.120552
C28   C     C_R   0.592314 0.497421 0.500099 0.574312
C29   C     C_R   0.061963 0.739601 0.426093 -0.086652
C30   C     C_R   0.505185 0.101489 0.767006 -0.083006
C31   C     C_R   0.487897 0.027918 0.881709 -0.091660
C32   C     C_R   0.461793 0.911141 0.864637 0.057227
C33   C     C_R   0.458102 0.864210 0.731617 -0.074521
C34   C     C_R   0.102693 0.525447 0.504020 -0.046813
C35   C     C_R   0.482651 0.930053 0.618388 0.003573
C36   C     C_R   0.499289 0.056627 0.631834 0.011493
C37   C     C_R   0.512333 0.130522 0.510411 -0.022337
C38   C     C_R   0.526299 0.071174 0.390756 0.046296
C39   C     C_R   0.516443 0.941966 0.384964 -0.090497
C40   C     C_R   0.173059 0.411339 0.511547 0.437234
C41   C     C_R   0.494372 0.871110 0.496435 -0.006541
C42   C     C_R   0.570652 0.650077 0.145548 -0.064372
C43   C     C_R   0.613788 0.697827 0.085131 0.038049
C44   C     C_R   0.619603 0.689142 0.945446 -0.090008
C45   C     C_R   0.122773 0.411898 0.520520 0.032870
C46   C     C_R   0.580009 0.648116 0.862091 0.094914
C47   C     C_R   0.536926 0.575480 0.923647 0.132279
C48   C     C_R   0.535527 0.573993 0.073491 0.094031
C49   C     C_R   0.465247 0.430402 0.077189 0.151888
C50   C     C_R   0.467460 0.421038 0.930429 0.125731
C51   C     C_R   0.184041 0.632582 0.480789 0.444662
C52   C     C_R   0.281648 0.545006 0.376718 0.136151
C53   C     C_R   0.331606 0.540618 0.378310 -0.108669
C54   C     C_R   0.327861 0.483976 0.622546 -0.107293
C55   C     C_2   0.984656 0.878081 0.512042 0.577124
C56   C     C_R   0.092161 0.301056 0.540686 -0.081103
C57   C     C_2   0.557392 0.137941 0.279727 0.614403
C58   C     C_2   0.440538 0.835700 0.985494 0.585445
C59   C     C_2   0.421218 0.371647 0.150579 0.658944
C60   C     C_2   0.436373 0.311422 0.871735 0.575749
C61   C     C_2   0.744875 0.531446 0.770360 0.617671
C62   C     C_R   0.133460 0.636041 0.472149 0.029492
C63   C     C_R   0.355019 0.508064 0.500250 -0.046108
C64   C     C_R   0.645358 0.495929 0.502176 0.006722
Cu1   Cu    Cu3+1 0.500000 0.499990 0.640660 1.032480
Cu2   Cu    Cu3+1 0.500000 0.500010 0.359340 1.035446
H1    H     H_    0.345287 0.460532 0.718381 0.196715
H2    H     H_    0.653831 0.731763 0.902171 0.191279
H3    H     H_    0.106300 0.211626 0.545202 0.192380
H4    H     H_    0.649993 0.510903 0.723477 0.177977
H5    H     H_    0.868466 0.230228 0.662462 0.202173
H6    H     H_    0.020541 0.215101 0.558111 0.156612
H7    H     H_    0.352097 0.564044 0.284099 0.187673
H8    H     H_    0.008266 0.046207 0.424855 0.338234
H9    H     H_    0.584336 0.136630 0.085918 0.347676
H10   H     H_    0.404973 0.673046 0.057841 0.356964
H11   H     H_    0.390283 0.235741 0.280683 0.350429
H12   H     H_    0.653439 0.478892 0.281063 0.174623
H13   H     H_    0.400577 0.139339 0.907543 0.359559
H14   H     H_    0.737646 0.527499 0.978416 0.355214
H15   H     H_    0.741927 0.485323 0.288016 0.150842
H16   H     H_    0.047863 0.815461 0.371035 0.167076
H17   H     H_    0.525721 0.189900 0.787297 0.151313
H18   H     H_    0.493231 0.064829 0.983591 0.221811
H19   H     H_    0.437424 0.774462 0.717614 0.179373
H20   H     H_    0.528902 0.895300 0.296458 0.191015
H21   H     H_    0.566626 0.672416 0.250616 0.196795
I1    I     I_    0.249380 0.589427 0.186024 -0.146542
I2    I     I_    0.150476 0.909104 0.338266 -0.118930
I3    I     I_    0.873972 0.922860 0.495159 -0.078742
I4    I     I_    0.239853 0.453205 0.811986 -0.146567
I5    I     I_    0.668432 0.796463 0.203327 -0.242553
I6    I     I_    0.597245 0.765812 0.680565 -0.301446
I7    I     I_    0.962525 0.185860 0.786348 -0.216711
N1    N     N_R   0.202647 0.521085 0.497511 -0.391151
N2    N     N_R   0.798690 0.509698 0.508903 -0.386854
N3    N     N_R   0.500460 0.501210 0.147910 -0.287493
N4    N     N_R   0.500480 0.501290 0.852040 -0.266864
O1    O     O_R   0.500000 0.319640 0.618810 -0.495063
O2    O     O_R   0.569730 0.499970 0.618800 -0.506301
O3    O     O_R   0.569740 0.499990 0.381230 -0.505312
O4    O     O_2   0.192396 0.302248 0.518863 -0.436185
O5    O     O_2   0.008281 0.898324 0.617066 -0.467993
O6    O     O_R   0.985177 0.969390 0.405998 -0.663792
O7    O     O_2   0.581883 0.236441 0.302497 -0.502868
O8    O     O_R   0.561481 0.083614 0.151781 -0.707307
O9    O     O_2   0.443241 0.878171 0.101219 -0.493143
O10   O     O_R   0.417565 0.715256 0.967626 -0.693384
O11   O     O_2   0.382134 0.407854 0.122898 -0.524059
O12   O     O_2   0.791077 0.300275 0.586684 -0.452278
O13   O     O_R   0.423168 0.268486 0.240258 -0.619913
O14   O     O_2   0.420716 0.312660 0.754980 -0.469083
O15   O     O_R   0.423501 0.204313 0.954946 -0.692987
O16   O     O_2   0.788137 0.567346 0.777333 -0.474379
O17   O     O_R   0.717558 0.510281 0.892318 -0.705761
O18   O     O_2   0.214586 0.738793 0.475178 -0.414073
O19   O     O_2   0.803761 0.713809 0.419178 -0.417910
O20   O     O_R   0.500000 0.319660 0.381240 -0.424760
O21   O     O_R   0.430260 0.500010 0.618770 -0.453385
O22   O     O_R   0.430270 0.500030 0.381200 -0.497189
O23   O     O_R   0.500000 0.680340 0.618760 -0.487483
O24   O     O_R   0.500000 0.680360 0.381190 -0.527525

loop_
_geom_bond_atom_site_label_1
_geom_bond_atom_site_label_2
_ccdc_geom_bond_type
C10   C27   A    
C11   N2    A    
C57   O7    D    
C8    C13   A    
C22   C29   A    
C12   I4    S    
C35   C36   A    
C32   C58   S    
C43   C44   A    
C26   C55   S    
C1    O1    A    
C7    C8    A    
C39   C41   A    
C48   N3    A    
C12   C23   A    
C26   C27   A    
C37   C38   A    
C47   N4    A    
Cu2   N3    S    
C36   C37   A    
Cu1   N4    S    
C18   C19   A    
C17   C64   A    
C7    H5    S    
C30   C31   A    
C54   C63   A    
C55   O5    D    
C34   C62   A    
C18   H15   S    
C27   I3    S    
C58   O9    D    
C30   H17   S    
H11   O13   S    
C16   O24   A    
C33   H19   S    
C59   O11   D    
C28   O3    A    
C20   C24   A    
C45   C56   A    
C8    C9    A    
C6    I7    S    
C61   O17   S    
C59   O13   S    
C15   C64   A    
Cu2   O24   S    
C4    O21   A    
Cu1   O23   S    
C9    C10   A    
C1    C37   S    
C1    O20   A    
C28   O2    A    
C57   O8    S    
H10   O10   S    
Cu2   O22   S    
C21   C22   A    
Cu2   O3    S    
C60   O15   S    
C2    C6    A    
C51   C62   A    
C44   C46   A    
C25   C29   A    
C40   C45   A    
C50   N4    A    
C13   N2    A    
C2    C20   A    
C47   C48   A    
C52   I1    S    
Cu1   O1    S    
C54   H1    S    
C14   C61   S    
C49   N3    A    
C55   O6    S    
C31   H18   S    
C16   O23   A    
C5    C9    A    
C13   O12   S    
C60   O14   D    
C38   C57   S    
C31   C32   A    
C4    C63   S    
H14   O17   S    
C17   C18   A    
Cu1   O21   S    
C34   C45   A    
C42   C48   A    
C28   C64   S    
C49   C50   A    
H13   O15   S    
C44   H2    S    
C2    C5    A    
C42   C43   A    
C40   N1    A    
C11   O19   S    
C52   C53   A    
C24   H6    S    
H8    O6    S    
C15   H4    S    
C46   C47   A    
C14   C19   A    
C3    C26   A    
C53   H7    S    
C43   I5    S    
Cu1   O2    S    
C3    C5    A    
C6    C7    A    
C21   C34   A    
C24   C56   A    
C25   I2    S    
C51   O18   S    
C49   C59   S    
C30   C36   A    
C50   C60   S    
C32   C33   A    
C29   H16   S    
C53   C63   A    
C23   C52   A    
C38   C39   A    
C46   I6    S    
C17   H12   S    
C33   C35   A    
C23   N1    S    
C58   O10   S    
C25   C62   A    
Cu1   Cu2   S    
C35   C41   A    
C10   C11   A    
C40   O4    S    
C20   C21   A    
H9    O8    S    
C56   H3    S    
Cu2   O20   S    
C61   O16   D    
C14   C15   A    
C4    O22   A    
C3    C22   A    
C42   H21   S    
C39   H20   S    
C16   C41   S    
C12   C54   A    
C19   N2    S    
C51   N1    A    
