data_mof_unit_54740.cif
_audit_creation_date              2012-12-11T16:24:12-0500
_audit_creation_method            fapswitch 2.2
_symmetry_space_group_name_H-M    P1
_symmetry_Int_Tables_number       1
_space_group_crystal_system       triclinic
_cell_length_a                    14.743436
_cell_length_b                    14.772999
_cell_length_c                    33.261761
_cell_angle_alpha                 96.090802
_cell_angle_beta                  96.289307
_cell_angle_gamma                 61.186615
_cell_volume                      6297.61613718

loop_
_atom_site_label
_atom_site_type_symbol
_atom_type_description
_atom_site_fract_x
_atom_site_fract_y
_atom_site_fract_z
_atom_type_partial_charge
C1    C     C_R   0.390446 0.700440 0.446279 0.564266
C2    C     C_R   0.328482 0.347055 0.308899 0.043824
C3    C     C_R   0.410605 0.264520 0.328569 -0.107517
C4    C     C_R   0.430983 0.273837 0.370293 -0.123333
C5    C     C_R   0.393114 0.251411 0.166175 -0.105921
C6    C     C_R   0.384508 0.233238 0.124300 -0.113035
C7    C     C_R   0.209824 0.377864 0.121748 -0.127223
C8    C     C_R   0.218643 0.395730 0.163663 -0.107782
C9    C     C_R   0.309057 0.330506 0.185948 0.040234
C10   C     C_1   0.313121 0.339153 0.229250 -0.014089
C11   C     C_1   0.318252 0.343411 0.265599 -0.013448
C12   C     C_R   0.405707 0.386347 0.434019 0.543811
C13   C     C_R   0.291299 0.293921 0.101878 0.017626
C14   C     C_R   0.757404 0.371609 0.410427 -0.022955
C15   C     C_R   0.808481 0.421259 0.397338 -0.125144
C16   C     C_R   0.841714 0.400521 0.357725 0.281551
C17   C     C_R   0.825455 0.326995 0.331627 0.050139
C18   C     C_R   0.783639 0.270525 0.346401 -0.172095
C19   C     C_R   0.749765 0.292712 0.385347 -0.149438
C20   C     C_R   0.845091 0.308339 0.206289 0.340578
C21   C     C_R   0.839509 0.317343 0.287910 0.371769
C22   C     C_R   0.841288 0.388387 0.143425 -0.121675
C23   C     C_R   0.700808 0.409848 0.447558 0.543721
C24   C     C_R   0.868314 0.378101 0.103773 -0.133346
C25   C     C_R   0.912720 0.196831 0.099836 -0.133599
C26   C     C_R   0.885701 0.207104 0.139579 -0.119349
C27   C     C_R   0.854543 0.301800 0.162328 0.036562
C28   C     C_R   0.909095 0.281095 0.082357 0.020576
C29   C     C_R   0.367840 0.757815 0.409544 0.036459
C30   C     C_R   0.277712 0.775846 0.384921 -0.178275
C31   C     C_R   0.265184 0.805889 0.345725 -0.138057
C32   C     C_R   0.341890 0.819853 0.330263 -0.007809
C33   C     C_R   0.426342 0.813671 0.356095 -0.106270
C34   C     C_R   0.393501 0.701343 0.561263 0.544164
C35   C     C_R   0.441103 0.780992 0.395646 0.267812
C36   C     C_R   0.337086 0.836186 0.205285 0.351871
C37   C     C_R   0.337668 0.831609 0.286594 0.353410
C38   C     C_R   0.252394 0.839425 0.136114 -0.140345
C39   C     C_R   0.235226 0.867344 0.096304 -0.180685
C40   C     C_R   0.387054 0.893518 0.104510 0.260103
C41   C     C_R   0.401781 0.868271 0.144873 -0.096246
C42   C     C_R   0.332275 0.845252 0.161378 -0.011448
C43   C     C_R   0.297852 0.901253 0.080849 0.014789
C44   C     C_R   0.371402 0.368958 0.585033 0.022828
C45   C     C_R   0.407326 0.388854 0.549010 0.547546
C46   C     C_R   0.284195 0.447977 0.603683 -0.130573
C47   C     C_R   0.264605 0.438447 0.642666 -0.121368
C48   C     C_R   0.332071 0.349883 0.663557 0.034717
C49   C     C_R   0.413640 0.267232 0.643451 -0.120101
C50   C     C_R   0.433021 0.276589 0.604502 -0.127684
C51   C     C_R   0.316400 0.348025 0.788234 0.348794
C52   C     C_R   0.323917 0.347171 0.707085 0.346435
C53   C     C_R   0.215304 0.400422 0.849745 -0.142227
C54   C     C_R   0.205341 0.380895 0.888626 -0.181523
C55   C     C_R   0.389104 0.256669 0.894350 0.262692
C56   C     C_R   0.701206 0.413719 0.562738 0.541749
C57   C     C_R   0.397539 0.274519 0.854881 -0.097151
C58   C     C_R   0.310205 0.343344 0.831784 -0.012787
C59   C     C_R   0.290293 0.304425 0.910332 0.015563
C60   C     C_R   0.753281 0.381063 0.603151 0.020075
C61   C     C_R   0.775806 0.448879 0.630041 -0.125949
C62   C     C_R   0.802893 0.428737 0.670930 -0.110095
C63   C     C_R   0.808254 0.340560 0.685319 0.040960
C64   C     C_R   0.792297 0.269454 0.658399 -0.110796
C65   C     C_R   0.765243 0.289340 0.617501 -0.124929
C66   C     C_R   0.880501 0.214555 0.823375 -0.111178
C67   C     C_R   0.369514 0.366264 0.392643 0.020763
C68   C     C_R   0.909266 0.202955 0.864720 -0.131549
C69   C     C_R   0.870270 0.382920 0.873743 -0.129119
C70   C     C_R   0.841385 0.394316 0.832475 -0.111791
C71   C     C_R   0.849606 0.309389 0.807066 0.041522
C72   C     C_1   0.834353 0.317981 0.764021 -0.022446
C73   C     C_1   0.823185 0.326936 0.728037 -0.022362
C74   C     C_R   0.908203 0.286082 0.890022 0.013253
C75   C     C_R   0.376510 0.754753 0.602020 0.021471
C76   C     C_R   0.281023 0.790321 0.619080 -0.124665
C77   C     C_R   0.271620 0.819385 0.660341 -0.110609
C78   C     C_R   0.282511 0.445875 0.372973 -0.120763
C79   C     C_R   0.357243 0.813553 0.684950 0.041371
C80   C     C_R   0.450695 0.784457 0.667864 -0.111204
C81   C     C_R   0.460285 0.755560 0.626545 -0.126041
C82   C     C_R   0.397534 0.883376 0.832917 -0.109636
C83   C     C_R   0.377564 0.911032 0.873722 -0.124685
C84   C     C_R   0.228118 0.881716 0.862765 -0.127471
C85   C     C_R   0.248380 0.853975 0.822010 -0.111783
C86   C     C_R   0.331316 0.857567 0.806845 0.038684
C87   C     C_1   0.343674 0.841733 0.764092 -0.022746
C88   C     C_1   0.350929 0.829732 0.728040 -0.022155
C89   C     C_R   0.262428 0.436354 0.331213 -0.100302
C90   C     C_R   0.290575 0.913769 0.888764 0.016466
C91   C     C_R   0.963584 0.264197 0.045568 0.544037
C92   C     C_R   0.272784 0.259391 0.060045 0.540779
C93   C     C_R   0.259673 0.959195 0.043739 0.550597
C94   C     C_R   0.962157 0.267788 0.930815 0.537649
C95   C     C_R   0.271232 0.264409 0.945545 0.549584
C96   C     C_R   0.256158 0.964970 0.928961 0.536901
Cr1   Cr    Cr6+3 0.576280 0.580550 0.506370 1.041055
Cr2   Cr    Cr6+3 0.346780 0.572400 0.496520 1.012636
Cr3   Cr    Cr6+3 0.576960 0.347070 0.497150 1.016131
Cr4   Cr    Cr6+3 0.087320 0.083240 0.984860 1.005432
Cr5   Cr    Cr6+3 0.087720 0.316210 0.996740 1.005130
Cr6   Cr    Cr6+3 0.317350 0.090340 0.995890 1.043832
H1    H     H_    0.448567 0.168065 0.109902 0.148047
H2    H     H_    0.711581 0.252339 0.394791 0.145047
H3    H     H_    0.863464 0.444655 0.090841 0.123851
H4    H     H_    0.770719 0.213608 0.326968 0.141934
H5    H     H_    0.815248 0.463022 0.159885 0.133118
H6    H     H_    0.943374 0.121162 0.083945 0.130492
H7    H     H_    0.895254 0.139326 0.153157 0.137678
H8    H     H_    0.219375 0.760230 0.394900 0.142000
H9    H     H_    0.168208 0.869240 0.078599 0.139562
H10   H     H_    0.463550 0.200853 0.183320 0.119432
H11   H     H_    0.197595 0.812909 0.326917 0.149208
H12   H     H_    0.482719 0.830483 0.345118 0.132510
H13   H     H_    0.198988 0.819338 0.147703 0.146347
H14   H     H_    0.465295 0.871201 0.163626 0.144116
H15   H     H_    0.234873 0.519867 0.589290 0.129798
H16   H     H_    0.500123 0.213862 0.590721 0.132560
H17   H     H_    0.129044 0.420357 0.900359 0.142054
H18   H     H_    0.200398 0.502962 0.657248 0.132215
H19   H     H_    0.465741 0.197100 0.658502 0.133511
H20   H     H_    0.461887 0.194984 0.311400 0.118070
H21   H     H_    0.146911 0.455093 0.832832 0.144478
H22   H     H_    0.472188 0.231275 0.841910 0.142505
H23   H     H_    0.938338 0.127348 0.876289 0.127613
H24   H     H_    0.886811 0.148445 0.803886 0.111579
H25   H     H_    0.796633 0.200804 0.669287 0.111751
H26   H     H_    0.748280 0.235617 0.597634 0.127438
H27   H     H_    0.766884 0.520315 0.620040 0.127175
H28   H     H_    0.817127 0.468152 0.820092 0.110621
H29   H     H_    0.868298 0.448451 0.892411 0.126079
H30   H     H_    0.498408 0.211176 0.384551 0.131686
H31   H     H_    0.815455 0.484071 0.691607 0.112869
H32   H     H_    0.426989 0.935577 0.892894 0.143477
H33   H     H_    0.462079 0.886110 0.821401 0.118426
H34   H     H_    0.517350 0.779850 0.686744 0.111156
H35   H     H_    0.535009 0.728036 0.614403 0.128192
H36   H     H_    0.215149 0.790557 0.601037 0.128378
H37   H     H_    0.196890 0.833766 0.801990 0.113495
H38   H     H_    0.160504 0.883173 0.873351 0.127499
H39   H     H_    0.198868 0.842121 0.673358 0.111161
H40   H     H_    0.233742 0.518033 0.389325 0.128480
H41   H     H_    0.153375 0.457358 0.178843 0.118176
H42   H     H_    0.136999 0.425866 0.105352 0.129012
H43   H     H_    0.198517 0.500474 0.316115 0.117893
H44   H     H_    0.819808 0.477988 0.417499 0.119462
N1    N     N_R   0.834128 0.394081 0.229289 -0.236204
N2    N     N_R   0.240420 0.420870 0.726337 -0.236124
N3    N     N_R   0.403629 0.274404 0.729223 -0.234097
N4    N     N_R   0.399818 0.274643 0.768949 -0.235178
N5    N     N_R   0.830840 0.398674 0.269242 -0.177489
N6    N     N_R   0.850272 0.231524 0.264929 -0.237928
N7    N     N_R   0.853836 0.226792 0.224918 -0.230965
N8    N     N_R   0.260684 0.829046 0.221659 -0.226081
N9    N     N_R   0.261226 0.826355 0.261456 -0.226104
N10   N     N_R   0.414200 0.838903 0.270276 -0.235346
N11   N     N_R   0.413550 0.841809 0.230386 -0.234530
N12   N     N_R   0.236415 0.420855 0.766123 -0.232677
O1    O     O_R   0.679450 0.499830 0.463150 -0.521414
O2    O     O_R   0.356040 0.477400 0.534170 -0.501481
O3    O     O_R   0.495910 0.323070 0.537100 -0.517496
O4    O     O_R   0.663920 0.359620 0.542290 -0.501391
O5    O     O_3   0.500010 0.500010 0.500010 -0.245048
O6    O     O_R   0.170070 0.978950 0.027680 -0.530253
O7    O     O_R   0.001760 0.175230 0.026640 -0.502251
O8    O     O_R   0.984760 0.333570 0.037150 -0.519540
O9    O     O_R   0.183410 0.309240 0.041890 -0.505198
O10   O     O_R   0.340240 0.172500 0.045430 -0.503014
O11   O     O_R   0.309670 0.000990 0.032050 -0.456620
O12   O     O_R   0.480650 0.664000 0.464630 -0.446793
O13   O     O_R   0.168330 0.982130 0.939200 -0.521352
O14   O     O_R   0.000140 0.178170 0.944610 -0.502343
O15   O     O_R   0.983010 0.336750 0.948660 -0.519820
O16   O     O_R   0.181800 0.312190 0.959860 -0.514628
O17   O     O_R   0.338500 0.175680 0.956950 -0.468870
O18   O     O_R   0.308050 0.003930 0.950020 -0.506422
O19   O     O_3   0.164130 0.163270 0.992500 -0.240176
O20   O     O_R   0.323930 0.675950 0.455370 -0.534604
O21   O     O_R   0.354700 0.475360 0.451930 -0.502829
O22   O     O_R   0.494470 0.320860 0.448390 -0.518641
O23   O     O_R   0.662580 0.357570 0.460050 -0.499442
O24   O     O_R   0.680900 0.502040 0.551870 -0.520217
O25   O     O_R   0.481990 0.666040 0.546870 -0.500225
O26   O     O_R   0.325370 0.678160 0.544080 -0.519397
O27   O     O_3   0.896260 0.445633 0.344886 -0.540460
C97   C     C_3   0.835432 0.554366 0.346672 -0.109074
H45   H     H_    0.836830 0.587543 0.378139 0.092297
H46   H     H_    0.754185 0.579539 0.334076 0.112371
H47   H     H_    0.869783 0.586301 0.327914 0.156769
O28   O     O_3   0.523884 0.775334 0.421503 -0.547781
C98   C     C_3   0.618510 0.703603 0.404979 -0.101890
H48   H     H_    0.617922 0.631079 0.392061 0.118322
H49   H     H_    0.681090 0.681746 0.429611 0.146053
H50   H     H_    0.638060 0.739157 0.381824 0.093423
O29   O     O_3   0.453424 0.922851 0.090522 -0.554877
C99   C     C_3   0.526013 0.840036 0.066379 0.022914
H51   H     H_    0.549389 0.874225 0.043950 0.152861
H52   H     H_    0.493057 0.793027 0.048442 0.108840
C100  C     C_3   0.622785 0.770653 0.092527 -0.278321
H53   H     H_    0.654612 0.818700 0.110003 0.175292
H54   H     H_    0.601766 0.732863 0.114301 0.157690
C101  C     C_3   0.706220 0.686833 0.066596 -0.481322
H55   H     H_    0.677135 0.635761 0.049834 0.149146
H56   H     H_    0.775567 0.639126 0.086399 0.144887
H57   H     H_    0.729436 0.722315 0.044645 0.146410
O30   O     O_3   0.475946 0.183000 0.914891 -0.557295
C102  C     C_3   0.520639 0.232465 0.942583 0.017140
H58   H     H_    0.558845 0.182214 0.968441 0.158847
H59   H     H_    0.462352 0.308952 0.955743 0.110124
C103  C     C_3   0.603209 0.244094 0.922658 -0.275761
H60   H     H_    0.659379 0.167691 0.909111 0.175793
H61   H     H_    0.565668 0.298664 0.898104 0.157559
C104  C     C_3   0.661875 0.284972 0.953278 -0.474763
H62   H     H_    0.607407 0.362041 0.966847 0.147459
H63   H     H_    0.720486 0.292942 0.937805 0.154899
H64   H     H_    0.702554 0.230518 0.977709 0.147334

loop_
_geom_bond_atom_site_label_1
_geom_bond_atom_site_label_2
_ccdc_geom_bond_type
C8    C9    A    
C7    C13   A    
C66   C68   A    
C87   C88   T    
O28   C98   S    
C55   C59   A    
Cr4   O14   S    
C41   C42   A    
C37   N9    A    
C91   O8    A    
Cr5   O15   S    
C84   C90   A    
C98   H49   S    
Cr2   O5    S    
C57   C58   A    
C36   N8    A    
Cr1   O24   S    
C4    H30   S    
C53   C54   A    
C25   C28   A    
C89   H43   S    
C67   C78   A    
C93   O11   A    
C33   H12   S    
C29   C30   A    
C101  H56   S    
C30   H8    S    
Cr1   O1    S    
C62   H31   S    
N10   N11   A    
C95   O16   A    
C23   O23   A    
C16   O27   S    
C78   H40   S    
C30   C31   A    
C2    C11   S    
C68   C74   A    
C15   C16   A    
C56   O4    A    
C1    O12   A    
C70   H28   S    
C18   C19   A    
C1    O20   A    
C21   N6    A    
C82   H33   S    
Cr5   O9    S    
C95   O17   A    
C79   C88   S    
C83   H32   S    
C45   O3    A    
C94   O14   A    
Cr3   O3    S    
C36   C42   S    
C40   C43   A    
C66   C71   A    
C51   N4    A    
C16   C17   A    
Cr1   O5    S    
C101  H57   S    
C23   O1    A    
C100  C101  S    
C34   O26   A    
C70   C71   A    
Cr2   O20   S    
C9    C10   S    
C85   H37   S    
C61   C62   A    
C3    H20   S    
C61   H27   S    
C34   C75   S    
C72   C73   T    
Cr6   O11   S    
C39   H9    S    
C100  H53   S    
C52   N2    A    
C50   H16   S    
C54   H17   S    
Cr4   O13   S    
C37   N10   A    
Cr5   O16   S    
Cr5   O8    S    
C45   O2    A    
C59   C95   S    
C99   C100  S    
Cr4   O19   S    
C7    H42   S    
C44   C46   A    
Cr1   O25   S    
C54   C59   A    
C104  H63   S    
C78   C89   A    
C38   C39   A    
C12   C67   S    
C20   N1    A    
C32   C37   S    
C20   N7    A    
C83   C90   A    
C102  H58   S    
C65   H26   S    
C7    C8    A    
C76   C77   A    
C99   H52   S    
C101  H55   S    
O30   C102  S    
C80   C81   A    
C39   C43   A    
O29   C99   S    
C63   C73   S    
C93   O6    A    
C25   C26   A    
C85   C86   A    
C96   O13   A    
C17   C21   S    
Cr1   O12   S    
C56   C60   S    
C46   H15   S    
Cr4   O7    S    
C14   C23   S    
C2    C89   A    
C81   H35   S    
C75   C76   A    
C18   H4    S    
C5    C9    A    
C62   C63   A    
C102  C103  S    
Cr3   O4    S    
C19   H2    S    
C52   N3    A    
C47   C48   A    
C104  H62   S    
C69   H29   S    
C64   H25   S    
C49   H19   S    
C1    C29   S    
C17   C18   A    
C26   C27   A    
C77   C79   A    
C69   C74   A    
Cr4   O6    S    
C51   C58   S    
N2    N12   A    
C6    H1    S    
C84   C85   A    
C26   H7    S    
N8    N9    A    
C36   N11   A    
C97   H45   S    
Cr3   O5    S    
C47   H18   S    
C12   O22   A    
Cr2   O2    S    
C60   C65   A    
C103  H60   S    
C35   O28   S    
C103  H61   S    
C22   C27   A    
C55   O30   S    
C13   C92   S    
C53   H21   S    
C49   C50   A    
C22   C24   A    
C79   C80   A    
C8    H41   S    
C15   H44   S    
C41   H14   S    
C97   H46   S    
C3    C4    A    
C103  C104  S    
C44   C45   S    
C100  H54   S    
C104  H64   S    
C44   C50   A    
C98   H48   S    
C34   O25   A    
C46   C47   A    
C40   C41   A    
Cr6   O10   S    
C96   O18   A    
C86   C87   S    
C14   C19   A    
C91   O7    A    
C31   C32   A    
C75   C81   A    
C24   C28   A    
C99   H51   S    
C4    C67   A    
C53   C58   A    
C90   C96   S    
C20   C27   S    
C76   H36   S    
C5    H10   S    
C29   C35   A    
C51   N12   A    
C80   H34   S    
C43   C93   S    
C64   C65   A    
C97   H47   S    
C55   C57   A    
C2    C3    A    
Cr6   O17   S    
C98   H50   S    
Cr3   O22   S    
C82   C86   A    
N3    N4    A    
C32   C33   A    
C6    C13   A    
C38   H13   S    
C92   O9    A    
O27   C97   S    
C5    C6    A    
C56   O24   A    
C48   C49   A    
N1    N5    A    
C33   C35   A    
C28   C91   S    
C21   N5    A    
Cr2   O26   S    
C69   C70   A    
C77   H39   S    
C92   O10   A    
Cr3   O23   S    
Cr5   O19   S    
C10   C11   T    
C94   O15   A    
C63   C64   A    
C38   C42   A    
C66   H24   S    
C48   C52   S    
C12   O21   A    
C71   C72   S    
N6    N7    A    
C84   H38   S    
C82   C83   A    
C74   C94   S    
C102  H59   S    
Cr6   O19   S    
C14   C15   A    
C60   C61   A    
C24   H3    S    
Cr2   O21   S    
Cr6   O18   S    
C68   H23   S    
C31   H11   S    
C22   H5    S    
C25   H6    S    
C57   H22   S    
C40   O29   S    
