data_mof_unit_59316.cif
_audit_creation_date              2012-12-10T17:19:56-0500
_audit_creation_method            fapswitch 2.2
_symmetry_space_group_name_H-M    P1
_symmetry_Int_Tables_number       1
_space_group_crystal_system       triclinic
_cell_length_a                    9.636443
_cell_length_b                    10.804095
_cell_length_c                    15.494539
_cell_angle_alpha                 87.518156
_cell_angle_beta                  73.750991
_cell_angle_gamma                 91.015726
_cell_volume                      1546.54264769

loop_
_atom_site_label
_atom_site_type_symbol
_atom_type_description
_atom_site_fract_x
_atom_site_fract_y
_atom_site_fract_z
_atom_type_partial_charge
C1    C     C_R   0.000788 0.262161 0.496335 0.807769
C2    C     C_R   0.670085 0.470215 0.909799 0.113958
C3    C     C_R   0.768072 0.498664 0.959773 0.038674
C4    C     C_R   0.522163 0.440196 0.956238 -0.045110
C5    C     C_R   0.476918 0.440579 0.051615 -0.069996
C6    C     C_R   0.584247 0.442671 0.098177 0.427322
C7    C     C_R   0.723663 0.484999 0.053260 -0.245302
C8    C     C_R   0.418712 0.406038 0.911637 -0.144430
C9    C     C_R   0.274372 0.379601 0.958439 0.367096
C10   C     C_R   0.224831 0.403572 0.050859 0.032006
C11   C     C_R   0.326615 0.438831 0.096661 0.083062
C12   C     C_R   0.917556 0.501341 0.672200 0.852383
C13   C     C_R   0.076385 0.399054 0.097684 -0.190673
C14   C     C_R   0.028955 0.432932 0.186837 -0.171738
C15   C     C_R   0.275427 0.480441 0.184442 -0.125139
C16   C     C_R   0.265190 0.120469 0.426664 -0.206427
C17   C     C_R   0.396129 0.066971 0.427659 0.387320
C18   C     C_R   0.393054 0.955298 0.475821 -0.107831
C19   C     C_R   0.262626 0.892982 0.519281 0.377209
C20   C     C_R   0.130902 0.939111 0.507571 -0.085614
C21   C     C_R   0.131706 0.062729 0.475180 -0.000026
C22   C     C_R   0.000212 0.126338 0.497273 -0.113237
C23   C     C_R   0.996973 0.736036 0.511728 0.813484
C24   C     C_R   0.870228 0.061139 0.540286 -0.237760
C25   C     C_R   0.867848 0.933153 0.557448 0.321416
C26   C     C_R   0.997979 0.869575 0.529485 -0.209059
C27   C     C_R   0.702073 0.659801 0.376461 -0.146860
C28   C     C_R   0.658498 0.739013 0.316743 -0.184717
C29   C     C_R   0.514790 0.741546 0.318454 -0.196537
C30   C     C_R   0.413690 0.664596 0.379692 -0.076559
C31   C     C_R   0.453386 0.580580 0.440714 0.236568
C32   C     C_R   0.603132 0.579008 0.439696 0.230439
C33   C     C_R   0.548801 0.424177 0.556447 0.008272
C34   C     C_R   0.082377 0.496186 0.327952 0.763221
C35   C     C_R   0.401992 0.422765 0.557031 0.498576
C36   C     C_R   0.869829 0.502924 0.771379 -0.080442
C37   C     C_R   0.128245 0.473679 0.230965 -0.074822
C38   C     C_R   0.912831 0.531797 0.916044 -0.238535
C39   C     C_R   0.965294 0.533639 0.821875 0.459519
C40   C     C_R   0.723727 0.474226 0.815482 -0.244514
Cu1   Cu    Cu3+1 0.140660 0.499990 0.500010 0.994608
Cu2   Cu    Cu3+1 0.859340 0.500010 0.499990 0.983005
H1    H     H_    0.801087 0.496693 0.091319 0.166533
H2    H     H_    0.995287 0.370734 0.066112 0.169098
H3    H     H_    0.771414 0.111002 0.564472 0.199284
H4    H     H_    0.268908 0.207443 0.388792 0.204449
H5    H     H_    0.493053 0.919836 0.482629 0.184472
H6    H     H_    0.583223 0.362084 0.602661 0.157370
H7    H     H_    0.813895 0.668140 0.371678 0.191104
H8    H     H_    0.736870 0.800108 0.269525 0.169212
H9    H     H_    0.350194 0.519816 0.217028 0.183806
H10   H     H_    0.480848 0.804507 0.272509 0.165844
H11   H     H_    0.306097 0.675277 0.376238 0.179395
H12   H     H_    0.914534 0.426650 0.221434 0.191203
H13   H     H_    0.985998 0.554137 0.955427 0.143790
H14   H     H_    0.653790 0.454481 0.774301 0.171469
H15   H     H_    0.446927 0.393265 0.840372 0.182037
N1    N     N_R   0.648320 0.501210 0.499140 -0.231220
N2    N     N_R   0.352470 0.501290 0.499110 -0.251162
O1    O     O_R   0.118810 0.319640 0.500010 -0.608017
O2    O     O_R   0.881240 0.319660 0.500000 -0.581893
O3    O     O_R   0.055570 0.499980 0.629840 -0.545821
O4    O     O_R   0.818000 0.500010 0.629830 -0.566495
O5    O     O_R   0.118760 0.680340 0.500000 -0.585189
O6    O     O_R   0.881190 0.680360 0.499990 -0.573004
O7    O     O_R   0.182000 0.499990 0.370170 -0.587986
O8    O     O_R   0.944430 0.500020 0.370160 -0.599265
O9    O     O_3   0.528035 0.126086 0.388653 -0.710652
H16   H     H_    0.510869 0.212636 0.371667 0.371700
O10   O     O_3   0.267277 0.798896 0.581513 -0.645415
H17   H     H_    0.170583 0.789150 0.625858 0.358280
S1    S     S_3+6 0.711150 0.861150 0.633500 0.048841
O11   O     O_2   0.756521 0.774875 0.698637 -0.269909
O12   O     O_2   0.615681 0.957350 0.685105 -0.245628
O13   O     O_3   0.615811 0.779246 0.579027 -0.463137
H18   H     H_    0.657473 0.806313 0.515141 0.315760
O14   O     O_3   0.313916 0.338940 0.618454 -0.706932
H19   H     H_    0.214362 0.346144 0.616185 0.385852
O15   O     O_3   0.184990 0.337049 0.909687 -0.705660
H20   H     H_    0.110479 0.279886 0.949255 0.334215
O16   O     O_3   0.108012 0.565868 0.778516 -0.671913
H21   H     H_    0.159361 0.584528 0.823901 0.347443
S2    S     S_3+6 0.566687 0.352656 0.198975 -0.046097
O17   O     O_2   0.559209 0.436919 0.274471 -0.378218
O18   O     O_2   0.434341 0.268474 0.221235 -0.295456
O19   O     O_3   0.713557 0.265311 0.184951 -0.530281
H22   H     H_    0.728223 0.253566 0.245467 0.377614

loop_
_geom_bond_atom_site_label_1
_geom_bond_atom_site_label_2
_ccdc_geom_bond_type
C16   C21   A    
C34   C37   S    
Cu1   Cu2   S    
C19   C20   A    
C32   N1    A    
C4    C8    A    
C18   H5    S    
Cu2   N1    S    
O16   H21   S    
O14   H19   S    
C33   N1    A    
C24   H3    S    
C28   C29   A    
C5    C11   A    
C3    C7    A    
C5    C6    A    
C35   N2    A    
C18   C19   A    
C9    O15   S    
C23   C26   S    
C31   N2    A    
C15   C37   A    
O9    H16   S    
C11   C15   A    
C38   H13   S    
C31   C32   A    
C3    C38   A    
C8    C9    A    
C40   H14   S    
Cu2   O6    S    
O10   H17   S    
C15   H9    S    
C12   C36   S    
C9    C10   A    
C1    C22   S    
C13   C14   A    
C34   O7    A    
C28   H8    S    
Cu1   O3    S    
S1    O13   S    
C38   C39   A    
C30   H11   S    
C36   C40   A    
C24   C25   A    
Cu1   N2    S    
S1    O12   D    
C1    O1    A    
C16   H4    S    
C12   O4    A    
O19   H22   S    
C16   C17   A    
C25   C26   A    
C35   O14   S    
C2    C4    A    
O13   H18   S    
C29   C30   A    
C8    H15   S    
C12   O3    A    
S2    O17   D    
C17   C18   A    
C25   S1    S    
Cu2   O2    S    
C39   O16   S    
Cu1   O7    S    
C23   O5    A    
S2    O18   D    
C7    H1    S    
Cu2   O8    S    
C22   C24   A    
C17   O9    S    
C6    S2    S    
C14   H12   S    
C27   C32   A    
C36   C39   A    
Cu1   O1    S    
S1    O11   D    
C10   C13   A    
C1    O2    A    
C34   O8    A    
C6    C7    A    
C23   O6    A    
C2    C3    A    
C14   C37   A    
C30   C31   A    
C20   C26   A    
C33   C35   A    
C10   C11   A    
O15   H20   S    
C2    C40   A    
C4    C5    A    
S2    O19   S    
C20   C21   A    
C27   C28   A    
C33   H6    S    
C19   O10   S    
Cu1   O5    S    
C21   C22   A    
Cu2   O4    S    
C13   H2    S    
C27   H7    S    
C29   H10   S    
