data_mof_unit_19003.cif
_audit_creation_date              2012-12-10T18:49:58-0500
_audit_creation_method            fapswitch 2.2
_symmetry_space_group_name_H-M    P1
_symmetry_Int_Tables_number       1
_space_group_crystal_system       triclinic
_cell_length_a                    10.79796
_cell_length_b                    9.90499
_cell_length_c                    10.814682
_cell_angle_alpha                 90.387036
_cell_angle_beta                  93.715668
_cell_angle_gamma                 90.452916
_cell_volume                      1154.17203231

loop_
_atom_site_label
_atom_site_type_symbol
_atom_type_description
_atom_site_fract_x
_atom_site_fract_y
_atom_site_fract_z
_atom_type_partial_charge
C1    C     C_R   0.261105 0.499566 0.505968 0.909728
C2    C     C_3   0.661919 0.526539 0.933087 -0.103843
C3    C     C_R   0.065627 0.380080 0.488724 -0.167694
C4    C     C_R   0.072081 0.609625 0.563713 -0.148279
C5    C     C_R   0.938756 0.375830 0.488524 0.142164
C6    C     C_R   0.944075 0.612962 0.561010 0.165437
C7    C     C_R   0.875305 0.496914 0.517196 -0.065338
C8    C     C_R   0.130701 0.497358 0.518817 -0.134270
C9    C     C_R   0.589115 0.072798 0.567151 -0.067708
C10   C     C_R   0.589212 0.929882 0.567001 -0.046661
C11   C     C_R   0.406335 0.925647 0.436979 -0.011656
C12   C     C_R   0.404788 0.069962 0.437368 -0.018424
C13   C     C_R   0.508682 0.499943 0.257985 0.872305
C14   C     C_R   0.740782 0.499769 0.505333 0.855125
C15   C     C_R   0.507825 0.500695 0.741869 0.905705
C16   C     C_3   0.453860 0.633040 0.064582 -0.231487
C17   C     C_3   0.446675 0.373843 0.060160 -0.234954
C18   C     C_3   0.428713 0.609962 0.924175 -0.460739
C19   C     C_3   0.469523 0.365604 0.923103 -0.455056
C20   C     C_3   0.664170 0.500523 0.081750 0.197770
C21   C     C_3   0.522440 0.501125 0.121159 -0.049017
C22   C     C_3   0.520016 0.502103 0.878085 -0.025332
H1    H     H_    0.360931 0.636556 0.103226 0.172642
H2    H     H_    0.347032 0.399573 0.067294 0.159107
H3    H     H_    0.331302 0.573072 0.905959 0.172978
H4    H     H_    0.379635 0.338383 0.871805 0.206712
H5    H     H_    0.427458 0.704280 0.870021 0.273853
H6    H     H_    0.534352 0.282809 0.903763 0.236459
H7    H     H_    0.114579 0.290858 0.464966 0.204502
H8    H     H_    0.126436 0.695417 0.599288 0.207096
H9    H     H_    0.659148 0.127044 0.623367 0.155272
H10   H     H_    0.659962 0.877704 0.622352 0.168770
N1    N     N_R   0.499970 0.857200 0.499970 -0.118915
N2    N     N_R   0.499970 0.142800 0.499970 -0.105918
O1    O     O_R   0.316750 0.614620 0.499990 -0.622359
O2    O     O_R   0.316750 0.385380 0.499990 -0.609770
O3    O     O_R   0.499970 0.614670 0.314790 -0.557740
O4    O     O_R   0.499970 0.385330 0.314790 -0.552852
O5    O     O_R   0.683220 0.614710 0.500010 -0.628443
O6    O     O_R   0.683220 0.385290 0.500010 -0.613751
O7    O     O_R   0.500010 0.614660 0.685200 -0.603794
O8    O     O_R   0.500010 0.385340 0.685200 -0.587559
Zn1   Zn    Zn3+2 0.499980 0.653120 0.500000 1.013665
Zn2   Zn    Zn3+2 0.499980 0.346880 0.500000 1.017374
C23   C     C_2   0.510231 0.776303 0.090517 1.014097
O9    O     O_2   0.504776 0.861867 0.009357 -0.595210
O10   O     O_R   0.558753 0.816809 0.208021 -0.773986
H11   H     H_    0.589387 0.913879 0.211142 0.352775
C24   C     C_2   0.451286 0.228459 0.107258 1.040128
O11   O     O_2   0.535354 0.185471 0.176584 -0.642148
O12   O     O_R   0.354986 0.140773 0.065534 -0.769013
H12   H     H_    0.362733 0.047876 0.103789 0.372065
C25   C     C_2   0.305656 0.849448 0.368223 1.032231
O13   O     O_2   0.316349 0.815303 0.261123 -0.658431
O14   O     O_R   0.193000 0.828849 0.421899 -0.776659
H13   H     H_    0.128625 0.782923 0.363048 0.345536
C26   C     C_2   0.297412 0.137935 0.370057 0.899228
O15   O     O_2   0.312453 0.238620 0.309484 -0.595151
O16   O     O_R   0.177822 0.083193 0.370486 -0.818014
H14   H     H_    0.116924 0.128046 0.308627 0.340664
C27   C     C_3   0.748539 0.603621 0.159307 -0.754127
H15   H     H_    0.732504 0.709874 0.135961 0.257621
H16   H     H_    0.739158 0.591763 0.259951 0.223123
H17   H     H_    0.848179 0.587656 0.144030 0.270692
C28   C     C_3   0.725337 0.362738 0.117539 -0.762471
H18   H     H_    0.827623 0.364687 0.111474 0.251648
H19   H     H_    0.710220 0.338592 0.214977 0.253012
H20   H     H_    0.691713 0.279110 0.055773 0.252821
C29   C     C_2   0.709323 0.669740 0.901366 0.843202
O17   O     O_2   0.644250 0.749292 0.841756 -0.615536
O18   O     O_R   0.832272 0.708017 0.934965 -0.769465
H21   H     H_    0.852843 0.803052 0.908133 0.349306
C30   C     C_2   0.755163 0.432758 0.872151 0.829733
O19   O     O_2   0.866672 0.447655 0.897561 -0.571641
O20   O     O_R   0.716470 0.328318 0.791078 -0.824486
H22   H     H_    0.788464 0.275277 0.760438 0.339861
C31   C     C_3   0.878587 0.239524 0.459231 -0.818917
H23   H     H_    0.946482 0.160536 0.438155 0.244552
H24   H     H_    0.832672 0.203175 0.541240 0.239485
H25   H     H_    0.812262 0.244864 0.377303 0.252093
C32   C     C_3   0.886419 0.740652 0.606516 -0.816207
H26   H     H_    0.956270 0.810658 0.652421 0.237401
H27   H     H_    0.840846 0.795431 0.527020 0.248194
H28   H     H_    0.819094 0.715511 0.675912 0.256890

loop_
_geom_bond_atom_site_label_1
_geom_bond_atom_site_label_2
_ccdc_geom_bond_type
O14   H13   S    
C16   C21   S    
C1    C8    S    
C30   O20   S    
C30   O19   D    
C4    C8    A    
C32   H26   S    
C25   O13   D    
C15   C22   S    
C26   O16   S    
C3    H7    S    
C20   C27   S    
C27   H16   S    
C19   H4    S    
C14   O5    A    
C7    C14   S    
C28   H19   S    
C2    C22   S    
C2    C29   S    
O1    Zn1   S    
C9    C10   A    
C13   O3    A    
C11   C25   S    
C31   H23   S    
C23   O10   S    
O16   H14   S    
C6    C32   S    
O7    Zn1   S    
C27   H15   S    
C18   H3    S    
O8    Zn2   S    
C32   H27   S    
C25   O14   S    
C17   H2    S    
C29   O18   S    
C2    C20   S    
O12   H12   S    
N1    Zn1   S    
C20   C28   S    
C11   N1    A    
C19   C22   S    
N2    Zn2   S    
C15   O7    A    
C4    C6    A    
C3    C8    A    
C17   C24   S    
C5    C7    A    
O5    Zn1   S    
C24   O12   S    
C23   O9    D    
C17   C21   S    
O3    Zn1   S    
C27   H17   S    
O20   H22   S    
O4    Zn2   S    
O10   H11   S    
C28   H20   S    
C31   H24   S    
C13   C21   S    
C19   H6    S    
C13   O4    A    
C2    C30   S    
C12   C26   S    
C28   H18   S    
C16   H1    S    
C9    N2    A    
O2    Zn2   S    
C5    C31   S    
C32   H28   S    
C1    O1    A    
C31   H25   S    
C18   C22   S    
C18   H5    S    
C15   O8    A    
C3    C5    A    
C16   C23   S    
C11   C12   A    
C6    C7    A    
O18   H21   S    
C26   O15   D    
C17   C19   S    
C10   N1    A    
C29   O17   D    
C9    H9    S    
C14   O6    A    
C10   H10   S    
O6    Zn2   S    
C20   C21   S    
C16   C18   S    
C24   O11   D    
C12   N2    A    
C4    H8    S    
C1    O2    A    
