data_mof_unit_36766.cif
_audit_creation_date              2012-12-10T17:15:13-0500
_audit_creation_method            fapswitch 2.2
_symmetry_space_group_name_H-M    P1
_symmetry_Int_Tables_number       1
_space_group_crystal_system       triclinic
_cell_length_a                    15.890585
_cell_length_b                    12.994391
_cell_length_c                    11.670199
_cell_angle_alpha                 100.364125
_cell_angle_beta                  93.377391
_cell_angle_gamma                 90.33682
_cell_volume                      2365.99441397

loop_
_atom_site_label
_atom_site_type_symbol
_atom_type_description
_atom_site_fract_x
_atom_site_fract_y
_atom_site_fract_z
_atom_type_partial_charge
C1    C     C_R   0.501279 0.298878 0.477853 0.807430
C2    C     C_R   0.499033 0.701045 0.522053 0.816586
C3    C     C_R   0.530210 0.012754 0.351681 -0.227157
C4    C     C_R   0.470085 0.986837 0.647892 -0.267230
C5    C     C_R   0.527852 0.121559 0.358225 0.255210
C6    C     C_R   0.471805 0.878372 0.640377 0.247302
C7    C     C_R   0.486207 0.139223 0.559333 -0.291651
C8    C     C_R   0.514143 0.860482 0.440227 -0.307887
C9    C     C_R   0.489094 0.031655 0.552027 0.136337
C10   C     C_R   0.511018 0.968138 0.447534 0.116801
C11   C     C_R   0.437072 0.383227 0.019735 0.160504
C12   C     C_R   0.561380 0.618453 0.980301 0.164514
C13   C     C_R   0.441024 0.398374 0.143351 0.058535
C14   C     C_R   0.558153 0.602367 0.856556 0.063339
C15   C     C_R   0.524758 0.551844 0.158376 0.013078
C16   C     C_R   0.475194 0.448313 0.841754 0.013162
C17   C     C_R   0.521524 0.543560 0.035070 -0.055778
C18   C     C_R   0.477898 0.457282 0.965048 -0.051106
C19   C     C_R   0.339878 0.499989 0.500671 0.819469
C20   C     C_R   0.660140 0.500201 0.499363 0.818752
C21   C     C_3   0.969419 0.411430 0.438783 0.270710
C22   C     C_3   0.030733 0.590154 0.561753 0.271076
C23   C     C_3   0.023880 0.490464 0.392036 0.270340
C24   C     C_3   0.976249 0.511124 0.608502 0.270098
C25   C     C_1   0.250521 0.499924 0.502135 -0.180726
C26   C     C_1   0.749536 0.500837 0.498044 -0.177189
C27   C     C_3   0.029117 0.418763 0.549857 -0.315378
C28   C     C_3   0.971007 0.582830 0.450679 -0.315510
C29   C     C_3   0.083749 0.499571 0.502057 -0.012866
C30   C     C_3   0.916366 0.501997 0.498470 -0.013114
C31   C     C_1   0.175196 0.499754 0.502558 -0.031999
C32   C     C_1   0.824886 0.501475 0.497809 -0.032564
C33   C     C_R   0.494972 0.814808 0.535555 -0.082371
C34   C     C_R   0.505289 0.184887 0.463877 -0.123610
Cu1   Cu    Cu3+1 0.506200 0.507730 0.615930 0.945075
Cu2   Cu    Cu3+1 0.493800 0.492270 0.384070 0.940476
H1    H     H_    0.532133 0.812118 0.359888 0.154710
H2    H     H_    0.468468 0.187560 0.639827 0.156261
H3    H     H_    0.548531 0.962339 0.273111 0.144739
H4    H     H_    0.452508 0.035832 0.728032 0.132458
H5    H     H_    0.587732 0.657484 0.811926 0.149714
H6    H     H_    0.411175 0.343148 0.187608 0.156047
N1    N     N_R   0.515540 0.519350 0.790140 -0.204314
N2    N     N_R   0.484460 0.480650 0.209860 -0.204782
O1    O     O_R   0.504400 0.354460 0.582000 -0.593633
O2    O     O_R   0.495600 0.645540 0.418000 -0.599413
O3    O     O_R   0.493920 0.341410 0.386200 -0.574431
O4    O     O_R   0.506080 0.658590 0.613800 -0.558622
O5    O     O_R   0.384320 0.506520 0.597880 -0.572514
O6    O     O_R   0.615680 0.493480 0.402120 -0.576169
O7    O     O_R   0.373840 0.493460 0.402080 -0.577149
O8    O     O_R   0.626160 0.506540 0.597920 -0.579299
N3    N     N_2   0.052621 0.478376 0.275013 -0.426423
H7    H     H_    0.101943 0.528536 0.268703 0.251102
C35   C     C_3   0.986826 0.477373 0.183836 -0.676271
H8    H     H_    0.014524 0.459590 0.097480 0.219306
H9    H     H_    0.956526 0.555012 0.192681 0.217113
H10   H     H_    0.938483 0.416236 0.187457 0.264212
N4    N     N_2   0.947542 0.523232 0.725543 -0.426027
H11   H     H_    0.898226 0.473074 0.731887 0.251298
C36   C     C_3   0.013364 0.524243 0.816687 -0.676480
H12   H     H_    0.985692 0.542025 0.903061 0.219598
H13   H     H_    0.061699 0.585384 0.813041 0.263780
H14   H     H_    0.043672 0.446608 0.807829 0.216872
N5    N     N_2   0.933367 0.315196 0.371425 -0.425794
H15   H     H_    0.885566 0.285015 0.412141 0.247585
C37   C     C_3   0.993925 0.237403 0.328021 -0.678308
H16   H     H_    0.960533 0.170153 0.270939 0.221167
H17   H     H_    0.028044 0.208861 0.401768 0.215068
H18   H     H_    0.039903 0.270340 0.275754 0.262398
N6    N     N_2   0.066919 0.686313 0.629117 -0.426493
H19   H     H_    0.114850 0.716347 0.588500 0.246877
C38   C     C_3   0.006489 0.764278 0.672480 -0.680227
H20   H     H_    0.039976 0.831420 0.729620 0.220408
H21   H     H_    0.960393 0.731453 0.724673 0.262620
H22   H     H_    0.972499 0.792936 0.598713 0.215337
H23   H     H_    0.947360 0.649153 0.410526 0.156544
H24   H     H_    0.052773 0.352446 0.590015 0.156526
N7    N     N_2   0.449087 0.834290 0.737672 -0.420226
H25   H     H_    0.465900 0.880544 0.817341 0.238168
C39   C     C_3   0.362286 0.798220 0.730499 -0.640574
H26   H     H_    0.351545 0.758653 0.805279 0.226596
H27   H     H_    0.347645 0.741243 0.648538 0.225905
H28   H     H_    0.319093 0.865521 0.733731 0.206827
N8    N     N_2   0.551907 0.168614 0.262942 -0.407811
H29   H     H_    0.603151 0.219163 0.282038 0.257844
C40   C     C_3   0.546563 0.108255 0.145616 -0.719219
H30   H     H_    0.550813 0.162040 0.082158 0.234653
H31   H     H_    0.485265 0.065142 0.127236 0.231320
H32   H     H_    0.599549 0.052719 0.133793 0.219363
H33   H     H_    0.439780 0.385439 0.786036 0.146123
H34   H     H_    0.560653 0.614113 0.214287 0.143573
N9    N     N_2   0.394895 0.293812 0.949659 -0.442155
H35   H     H_    0.431472 0.250307 0.889203 0.237981
C41   C     C_3   0.336597 0.232245 0.001470 -0.716604
H36   H     H_    0.301860 0.176064 0.931459 0.229932
H37   H     H_    0.289837 0.283638 0.049673 0.238823
H38   H     H_    0.371323 0.187057 0.060738 0.226374
N10   N     N_2   0.601511 0.709613 0.050265 -0.438315
H39   H     H_    0.565917 0.747762 0.115506 0.239100
C42   C     C_3   0.650657 0.779814 0.996239 -0.722689
H40   H     H_    0.682719 0.839708 0.065104 0.228378
H41   H     H_    0.608927 0.820604 0.939685 0.220305
H42   H     H_    0.699935 0.736036 0.944863 0.238277

loop_
_geom_bond_atom_site_label_1
_geom_bond_atom_site_label_2
_ccdc_geom_bond_type
C25   C31   T    
C35   H8    S    
C11   C18   A    
C26   C32   T    
C42   H40   S    
C22   C29   S    
C27   C29   S    
C38   H20   S    
C41   H36   S    
C24   C27   S    
C40   H30   S    
C27   H24   S    
C39   H26   S    
C41   H38   S    
N8    H29   S    
C2    O2    A    
N9    H35   S    
C23   C29   S    
C15   N2    A    
Cu2   O3    S    
C7    C9    A    
C36   H13   S    
C12   N10   S    
C20   O6    A    
C15   H34   S    
C40   H32   S    
C4    H4    S    
N5    C37   S    
C12   C17   A    
Cu1   O5    S    
Cu2   O2    S    
Cu1   N1    S    
C9    C10   A    
C5    N8    S    
C11   N9    S    
N8    C40   S    
C21   C27   S    
C3    H3    S    
N4    H11   S    
N9    C41   S    
C22   C28   S    
C38   H21   S    
Cu1   O4    S    
C13   H6    S    
C39   H27   S    
C1    C34   S    
C23   N3    S    
N3    C35   S    
N4    C36   S    
C37   H16   S    
C4    C6    A    
N7    C39   S    
C1    O3    A    
C2    O4    A    
N3    H7    S    
C37   H17   S    
Cu1   Cu2   S    
C36   H14   S    
C19   O5    A    
N10   H39   S    
C29   C31   S    
C5    C34   A    
C17   C18   A    
C23   C28   S    
C28   H23   S    
C16   N1    A    
Cu2   O7    S    
C14   H5    S    
C2    C33   S    
C16   C18   A    
N10   C42   S    
C12   C14   A    
C42   H42   S    
C35   H9    S    
C38   H22   S    
C22   C24   S    
Cu2   N2    S    
C8    H1    S    
Cu1   O1    S    
C22   N6    S    
C39   H28   S    
Cu2   O6    S    
N6    C38   S    
C42   H41   S    
C15   C17   A    
C21   N5    S    
C3    C5    A    
C41   H37   S    
C21   C30   S    
C6    C33   A    
C37   H18   S    
C21   C23   S    
N6    H19   S    
C20   O8    A    
C3    C10   A    
C30   C32   S    
C11   C13   A    
C1    O1    A    
C6    N7    S    
C20   C26   S    
C24   N4    S    
C28   C30   S    
C7    C34   A    
C7    H2    S    
C8    C33   A    
C36   H12   S    
C19   C25   S    
C24   C30   S    
N7    H25   S    
C19   O7    A    
C16   H33   S    
C8    C10   A    
N5    H15   S    
C35   H10   S    
Cu1   O8    S    
C40   H31   S    
C4    C9    A    
C13   N2    A    
C14   N1    A    
