data_mof_unit_55535.cif
_audit_creation_date              2012-12-10T18:35:26-0500
_audit_creation_method            fapswitch 2.2
_symmetry_space_group_name_H-M    P1
_symmetry_Int_Tables_number       1
_space_group_crystal_system       triclinic
_cell_length_a                    15.158225
_cell_length_b                    13.895386
_cell_length_c                    10.768118
_cell_angle_alpha                 90.100578
_cell_angle_beta                  90.674294
_cell_angle_gamma                 89.991251
_cell_volume                      2267.9215201

loop_
_atom_site_label
_atom_site_type_symbol
_atom_type_description
_atom_site_fract_x
_atom_site_fract_y
_atom_site_fract_z
_atom_type_partial_charge
C1    C     C_R   0.329995 0.500074 0.500160 0.833573
C2    C     C_R   0.670433 0.499990 0.500150 0.808963
C3    C     C_R   0.049132 0.500041 0.503374 -0.014798
C4    C     C_R   0.952754 0.499729 0.503866 0.046762
C5    C     C_R   0.560477 0.108424 0.572986 -0.376301
C6    C     C_R   0.460518 0.892024 0.402713 -0.375510
C7    C     C_R   0.438813 0.108326 0.427798 -0.372444
C8    C     C_R   0.538560 0.892316 0.597857 -0.358648
C9    C     C_R   0.558519 0.209579 0.573250 0.714963
C10   C     C_R   0.460087 0.790846 0.405224 0.701915
C11   C     C_R   0.440986 0.209466 0.427399 0.700965
C12   C     C_R   0.539148 0.791168 0.595283 0.721193
C13   C     C_R   0.499656 0.054989 0.500300 0.052083
C14   C     C_R   0.499633 0.945567 0.500221 0.040459
C15   C     C_R   0.500310 0.499910 0.262871 0.776809
C16   C     C_R   0.500169 0.499979 0.737101 0.776251
C17   C     C_R   0.337849 0.515008 0.126648 -0.246739
C18   C     C_R   0.661895 0.476842 0.873065 -0.257091
C19   C     C_R   0.337724 0.514384 0.868147 -0.310912
C20   C     C_R   0.661915 0.475707 0.131452 -0.290712
C21   C     C_R   0.257586 0.518870 0.060956 0.466035
C22   C     C_R   0.741738 0.466193 0.937706 0.427165
C23   C     C_R   0.257599 0.521877 0.931210 0.472518
C24   C     C_R   0.741093 0.461855 0.068544 0.443360
C25   C     C_R   0.419141 0.507899 0.933436 -0.012334
C26   C     C_R   0.581064 0.488241 0.066389 -0.020311
C27   C     C_R   0.419215 0.508188 0.063961 0.006882
C28   C     C_R   0.581008 0.488309 0.935906 0.007458
C29   C     C_R   0.500180 0.499502 0.870894 -0.036123
C30   C     C_R   0.500298 0.499568 0.129023 -0.040177
C31   C     C_R   0.094169 0.573969 0.443605 -0.252339
C32   C     C_R   0.906881 0.415875 0.473355 -0.250696
C33   C     C_R   0.906975 0.583689 0.532390 -0.261753
C34   C     C_R   0.095906 0.426521 0.563047 -0.241364
C35   C     C_R   0.186191 0.576651 0.445631 0.429807
C36   C     C_R   0.814433 0.414030 0.473690 0.477415
C37   C     C_R   0.815000 0.584426 0.533853 0.435438
C38   C     C_R   0.188034 0.424456 0.560027 0.453861
C39   C     C_R   0.233470 0.500359 0.501773 -0.261846
C40   C     C_R   0.767793 0.499718 0.501759 -0.205172
Cu1   Cu    Cu3+1 0.500000 0.596430 0.500000 1.065483
Cu2   Cu    Cu3+1 0.500000 0.403570 0.500000 1.073321
H1    H     H_    0.335332 0.516139 0.226964 0.183250
H2    H     H_    0.664342 0.476340 0.772704 0.168920
H3    H     H_    0.335140 0.511996 0.767851 0.161543
H4    H     H_    0.664600 0.474408 0.231839 0.166936
H5    H     H_    0.057753 0.629099 0.393803 0.175494
H6    H     H_    0.943526 0.352859 0.445063 0.130374
H7    H     H_    0.942835 0.649227 0.553743 0.145505
H8    H     H_    0.060684 0.371507 0.613503 0.162532
H9    H     H_    0.610422 0.073272 0.629065 0.172021
H10   H     H_    0.430658 0.927140 0.323298 0.182227
H11   H     H_    0.388666 0.073099 0.372015 0.172211
H12   H     H_    0.567862 0.927650 0.677675 0.176651
N1    N     N_R   0.500000 0.258690 0.500000 -0.262553
N2    N     N_R   0.500000 0.741310 0.500000 -0.271857
O1    O     O_R   0.371460 0.581430 0.500010 -0.555182
O2    O     O_R   0.628540 0.418570 0.499990 -0.507833
O3    O     O_R   0.628540 0.581430 0.499990 -0.527335
O4    O     O_R   0.371460 0.418570 0.500010 -0.516017
O5    O     O_R   0.499990 0.581440 0.319660 -0.520811
O6    O     O_R   0.500010 0.418560 0.680340 -0.545852
O7    O     O_R   0.500010 0.581440 0.680340 -0.537345
O8    O     O_R   0.499990 0.418560 0.319660 -0.554893
O9    O     O_3   0.817671 0.447227 0.136714 -0.584467
C41   C     C_3   0.835317 0.347644 0.140078 -0.262119
H13   H     H_    0.779412 0.306738 0.180494 0.191488
H14   H     H_    0.894114 0.335360 0.200278 0.178344
H15   H     H_    0.850792 0.319393 0.046110 0.181770
O10   O     O_3   0.178064 0.522235 0.866856 -0.546608
C42   C     C_3   0.167443 0.611704 0.806940 -0.294770
H16   H     H_    0.101328 0.613323 0.761644 0.179501
H17   H     H_    0.217061 0.621917 0.732952 0.139667
H18   H     H_    0.170520 0.672330 0.874622 0.170606
O11   O     O_3   0.817730 0.451906 0.869599 -0.593287
C43   C     C_3   0.880751 0.523977 0.897117 -0.252737
H19   H     H_    0.850786 0.595169 0.919280 0.129534
H20   H     H_    0.922628 0.534162 0.814349 0.177945
H21   H     H_    0.924856 0.500503 0.974259 0.230376
O12   O     O_3   0.178730 0.526451 0.123400 -0.538246
C44   C     C_3   0.156309 0.435116 0.170402 -0.263308
H22   H     H_    0.090739 0.440216 0.214661 0.190109
H23   H     H_    0.204330 0.411001 0.242831 0.155953
H24   H     H_    0.151043 0.380598 0.094732 0.168211
O13   O     O_3   0.229975 0.648301 0.381772 -0.511510
C45   C     C_3   0.219611 0.736428 0.445360 -0.203638
H25   H     H_    0.149779 0.760873 0.444104 0.120557
H26   H     H_    0.258636 0.792346 0.397413 0.206413
H27   H     H_    0.244978 0.731629 0.542615 0.126530
O14   O     O_3   0.768703 0.332913 0.433170 -0.567666
C46   C     C_3   0.796692 0.250051 0.498388 -0.232203
H28   H     H_    0.745320 0.193791 0.487371 0.196751
H29   H     H_    0.805367 0.263831 0.599805 0.192259
H30   H     H_    0.858082 0.220449 0.458093 0.120397
O15   O     O_3   0.771681 0.670346 0.556117 -0.550167
C47   C     C_3   0.778959 0.693020 0.683539 -0.198923
H31   H     H_    0.743859 0.638836 0.740475 0.179461
H32   H     H_    0.747362 0.763854 0.699449 0.217595
H33   H     H_    0.848796 0.699984 0.715052 0.105526
O16   O     O_3   0.234508 0.354331 0.624733 -0.549789
C48   C     C_3   0.217373 0.263253 0.571451 -0.243229
H34   H     H_    0.267658 0.211789 0.606745 0.187021
H35   H     H_    0.222370 0.264344 0.468273 0.179908
H36   H     H_    0.151719 0.235928 0.599548 0.133910
F1    F     F_    0.615754 0.258450 0.647564 -0.653039
F2    F     F_    0.418620 0.742922 0.311790 -0.628408
F3    F     F_    0.383254 0.258190 0.353895 -0.668838
F4    F     F_    0.578846 0.743578 0.690105 -0.662278

loop_
_geom_bond_atom_site_label_1
_geom_bond_atom_site_label_2
_ccdc_geom_bond_type
C41   H14   S    
C48   H34   S    
Cu1   Cu2   S    
C19   C23   A    
O15   C47   S    
C43   H21   S    
Cu1   O5    S    
Cu2   O2    S    
C44   H22   S    
O13   C45   S    
C7    C11   A    
C32   C36   A    
C28   C29   A    
C43   H20   S    
C37   C40   A    
C1    O1    A    
C38   C39   A    
C45   H26   S    
C41   H15   S    
C46   H29   S    
C9    F1    S    
C47   H33   S    
C37   O15   S    
C20   C24   A    
C47   H32   S    
C15   O8    A    
O10   C42   S    
C9    N1    A    
C16   O7    A    
C10   N2    A    
Cu2   O6    S    
C5    C13   A    
C41   H13   S    
C48   H35   S    
C31   H5    S    
C13   C14   S    
C27   C30   A    
C32   H6    S    
C23   O10   S    
C16   O6    A    
C22   O11   S    
C44   H23   S    
C25   C29   A    
C34   H8    S    
C17   C27   A    
C36   C40   A    
C18   C28   A    
C43   H19   S    
Cu1   O3    S    
C38   O16   S    
C1    O4    A    
Cu2   O4    S    
C46   H28   S    
C42   H17   S    
C2    O3    A    
C3    C34   A    
C16   C29   S    
C33   C37   A    
C34   C38   A    
C35   C39   A    
O11   C43   S    
C17   H1    S    
Cu1   N2    S    
C5    C9    A    
C18   H2    S    
Cu2   N1    S    
C6    C14   A    
C8    C12   A    
C47   H31   S    
C19   H3    S    
C15   O5    A    
C4    C32   A    
C3    C31   A    
C12   N2    A    
C24   O9    S    
C26   C30   A    
C48   H36   S    
C21   C23   A    
C11   F3    S    
C31   C35   A    
C10   F2    S    
C7    H11   S    
C8    H12   S    
C3    C4    S    
Cu2   O8    S    
C44   H24   S    
C11   N1    A    
C15   C30   S    
C12   F4    S    
C36   O14   S    
C4    C33   A    
C8    C14   A    
C45   H25   S    
O12   C44   S    
C45   H27   S    
C6    C10   A    
C42   H18   S    
C2    O2    A    
C25   C27   A    
C26   C28   A    
C18   C22   A    
Cu1   O1    S    
C42   H16   S    
C46   H30   S    
C35   O13   S    
O14   C46   S    
C20   C26   A    
C21   O12   S    
O16   C48   S    
C22   C24   A    
C19   C25   A    
C17   C21   A    
C1    C39   S    
C2    C40   S    
C7    C13   A    
O9    C41   S    
Cu1   O7    S    
C5    H9    S    
C6    H10   S    
C33   H7    S    
C20   H4    S    
