data_mof_unit_34134.cif
_audit_creation_date              2012-12-11T15:48:51-0500
_audit_creation_method            fapswitch 2.2
_symmetry_space_group_name_H-M    P1
_symmetry_Int_Tables_number       1
_space_group_crystal_system       triclinic
_cell_length_a                    11.027321
_cell_length_b                    10.947378
_cell_length_c                    18.727695
_cell_angle_alpha                 90.588451
_cell_angle_beta                  89.870641
_cell_angle_gamma                 60.479487
_cell_volume                      1967.13860762

loop_
_atom_site_label
_atom_site_type_symbol
_atom_type_description
_atom_site_fract_x
_atom_site_fract_y
_atom_site_fract_z
_atom_type_partial_charge
C1    C     C_R   0.292530 0.622259 0.615682 0.559786
C2    C     C_R   0.585389 0.129970 0.707516 -0.171567
C3    C     C_R   0.583471 0.132074 0.780925 -0.158339
C4    C     C_R   0.652909 0.622155 0.601093 0.539814
C5    C     C_3   0.934218 0.096454 0.782968 0.007465
C6    C     C_3   0.926621 0.108891 0.701894 -0.231524
C7    C     C_R   0.675940 0.161149 0.670502 0.008529
C8    C     C_R   0.211283 0.657069 0.842292 0.013688
C9    C     C_R   0.258460 0.527769 0.806927 0.018845
C10   C     C_R   0.284135 0.515561 0.733619 0.029035
C11   C     C_R   0.241828 0.751860 0.731291 -0.188677
C12   C     C_3   0.711358 0.531763 0.797761 -0.247010
C13   C     C_R   0.226257 0.759833 0.805274 -0.182433
C14   C     C_3   0.211945 0.421421 0.806336 -0.288286
C15   C     C_3   0.228804 0.416115 0.725360 -0.269475
C16   C     C_R   0.629959 0.225373 0.601264 0.541365
C17   C     C_R   0.264875 0.631136 0.693174 0.006276
C18   C     C_R   0.651022 0.677599 0.168223 0.020045
C19   C     C_R   0.720004 0.547130 0.198967 0.035415
C20   C     C_R   0.721489 0.534240 0.271687 0.008486
C21   C     C_R   0.598166 0.782937 0.288615 -0.174225
C22   C     C_R   0.590772 0.796546 0.213814 -0.160754
C23   C     C_3   0.698788 0.675619 0.812543 0.055560
C24   C     C_3   0.700919 0.422954 0.187130 -0.290120
C25   C     C_3   0.707587 0.407083 0.267479 -0.249543
C26   C     C_R   0.658660 0.649233 0.318044 0.018506
C27   C     C_R   0.677482 0.105793 0.185209 0.018131
C28   C     C_R   0.285156 0.621507 0.392792 0.567478
C29   C     C_R   0.569803 0.105506 0.222619 0.012717
C30   C     C_R   0.563580 0.114233 0.295615 0.022179
C31   C     C_R   0.787333 0.098653 0.298887 -0.173241
C32   C     C_R   0.795292 0.085410 0.224323 -0.144944
C33   C     C_3   0.417231 0.189090 0.212831 -0.280905
C34   C     C_3   0.669335 0.649126 0.676533 0.055466
C35   C     C_3   0.408131 0.196270 0.293466 -0.270108
C36   C     C_R   0.661871 0.134678 0.333354 0.014698
C37   C     C_R   0.176589 0.652816 0.175442 0.019550
C38   C     C_R   0.252063 0.715279 0.202350 -0.041020
C39   C     C_R   0.284096 0.706048 0.273377 -0.002670
C40   C     C_R   0.642680 0.622238 0.392277 0.539651
C41   C     C_R   0.186385 0.554621 0.291612 -0.142180
C42   C     C_R   0.156700 0.558237 0.218761 0.104481
C43   C     C_3   0.228602 0.862595 0.198495 -0.215683
C44   C     C_3   0.256030 0.854826 0.277849 0.021608
C45   C     C_3   0.800537 0.662120 0.688139 -0.246806
C46   C     C_R   0.247243 0.630872 0.319132 -0.023692
C47   C     C_R   0.703531 0.097279 0.894765 0.542328
C48   C     C_R   0.723739 0.688090 0.888471 0.542183
C49   C     C_R   0.123071 0.703703 0.907174 0.534968
C50   C     C_R   0.682518 0.090032 0.108386 0.549332
C51   C     C_R   0.694305 0.690533 0.096849 0.551095
C52   C     C_R   0.619621 0.221944 0.397586 0.530018
C53   C     C_R   0.096420 0.707440 0.111256 0.565316
C54   C     C_3   0.552254 0.791187 0.788105 -0.239061
C55   C     C_3   0.542533 0.784706 0.706462 -0.239385
C56   C     C_3   0.683535 0.520716 0.718898 -0.212910
C57   C     C_3   0.809404 0.692308 0.767859 -0.222919
C58   C     C_3   0.122114 0.156804 0.796237 -0.325430
C59   C     C_3   0.053452 0.402130 0.235917 -0.301159
C60   C     C_3   0.140838 0.050352 0.363965 -0.304881
C61   C     C_R   0.686474 0.143616 0.820703 -0.000974
C62   C     C_R   0.779241 0.172099 0.783466 0.024417
C63   C     C_R   0.771610 0.184145 0.709394 -0.009731
Cr1   Cr    Cr6+3 0.392960 0.397920 0.502240 0.995769
Cr2   Cr    Cr6+3 0.398340 0.708480 0.501250 0.986139
Cr3   Cr    Cr6+3 0.708670 0.393570 0.496460 0.987767
Cr4   Cr    Cr6+3 0.937650 0.938540 0.007610 0.995075
Cr5   Cr    Cr6+3 0.625330 0.937370 0.994520 0.996281
Cr6   Cr    Cr6+3 0.937940 0.625230 0.001190 1.010267
H1    H     H_    0.532385 0.897344 0.803625 0.133608
H2    H     H_    0.228993 0.843915 0.703949 0.128318
H3    H     H_    0.470317 0.775559 0.814042 0.123601
H4    H     H_    0.104807 0.459687 0.826001 0.157181
H5    H     H_    0.289843 0.323415 0.832376 0.130261
H6    H     H_    0.128278 0.463830 0.696645 0.130130
H7    H     H_    0.548863 0.875087 0.322852 0.121070
H8    H     H_    0.539457 0.898880 0.190876 0.143535
H9    H     H_    0.791194 0.336012 0.158653 0.138141
H10   H     H_    0.609295 0.421796 0.292038 0.144552
H11   H     H_    0.444859 0.787464 0.692367 0.139487
H12   H     H_    0.772334 0.422300 0.697542 0.158006
H13   H     H_    0.806420 0.318303 0.286137 0.149896
H14   H     H_    0.868416 0.104464 0.327641 0.139670
H15   H     H_    0.888019 0.071693 0.197586 0.140710
H16   H     H_    0.370719 0.128842 0.188579 0.132856
H17   H     H_    0.387279 0.291455 0.187743 0.145888
H18   H     H_    0.366880 0.303522 0.314396 0.171191
H19   H     H_    0.360888 0.136357 0.316564 0.115076
H20   H     H_    0.159442 0.495193 0.327653 0.137672
H21   H     H_    0.121422 0.943995 0.184939 0.172133
H22   H     H_    0.539468 0.878438 0.682215 0.112637
H23   H     H_    0.915503 0.621410 0.786531 0.126727
H24   H     H_    0.310882 0.867442 0.166314 0.106498
H25   H     H_    0.347061 0.864639 0.292406 0.149217
H26   H     H_    0.791937 0.801045 0.774576 0.125965
H27   H     H_    0.796617 0.748189 0.655334 0.118592
H28   H     H_    0.817930 0.447317 0.811073 0.174739
H29   H     H_    0.635895 0.517290 0.831233 0.118957
H30   H     H_    0.587217 0.512567 0.713223 0.121117
H31   H     H_    0.973648 0.183365 0.873296 0.266960
H32   H     H_    0.170750 0.184848 0.840615 0.130627
H33   H     H_    0.109933 0.224985 0.750308 0.151430
H34   H     H_    0.894520 0.562820 0.671528 0.127495
H35   H     H_    0.193047 0.046085 0.780506 0.130682
H36   H     H_    0.207500 0.855523 0.831884 0.142001
H37   H     H_    0.307010 0.311855 0.704574 0.144165
H38   H     H_    0.597030 0.451315 0.164792 0.133523
H39   H     H_    0.151167 0.418783 0.144117 0.255330
H40   H     H_    0.001252 0.356058 0.203811 0.149924
H41   H     H_    0.979828 0.475475 0.276573 0.171012
H42   H     H_    0.142260 0.315270 0.262891 0.119064
H43   H     H_    0.073991 0.905511 0.338990 0.285584
H44   H     H_    0.042641 0.111810 0.394881 0.137938
H45   H     H_    0.508784 0.113101 0.679761 0.121445
H46   H     H_    0.157686 0.124137 0.331035 0.126677
H47   H     H_    0.227926 0.996868 0.402167 0.166530
H48   H     H_    0.504756 0.114857 0.805737 0.132573
H49   H     H_    0.978224 0.988306 0.803157 0.153206
H50   H     H_    0.963569 0.178046 0.679049 0.144952
H51   H     H_    0.967302 0.005885 0.673862 0.120201
N1    N     N_2   0.986687 0.179270 0.818595 -0.523191
N2    N     N_2   0.100266 0.475460 0.189413 -0.478314
N3    N     N_2   0.130683 0.948718 0.318078 -0.520651
O1    O     O_R   0.507380 0.255700 0.581440 -0.532351
O2    O     O_R   0.837170 0.593410 0.915250 -0.532817
O3    O     O_R   0.065200 0.635530 0.931570 -0.509682
O4    O     O_R   0.280320 0.527350 0.578930 -0.488370
O5    O     O_R   0.068260 0.828890 0.091840 -0.539760
O6    O     O_R   0.798870 0.057410 0.079340 -0.514716
O7    O     O_R   0.584930 0.080350 0.076780 -0.520057
O8    O     O_R   0.626960 0.809650 0.067060 -0.515786
O9    O     O_R   0.816040 0.596610 0.076510 -0.497110
O10   O     O_R   0.045610 0.638500 0.081060 -0.486612
O11   O     O_3   0.833640 0.833710 0.001100 -0.250614
O12   O     O_R   0.524480 0.695810 0.424040 -0.523384
O13   O     O_R   0.260510 0.739590 0.584590 -0.525277
O14   O     O_R   0.532300 0.695080 0.573820 -0.523638
O15   O     O_R   0.744840 0.503500 0.576370 -0.526547
O16   O     O_R   0.699120 0.276560 0.571960 -0.503698
O17   O     O_R   0.498940 0.256500 0.419860 -0.535290
O18   O     O_R   0.272500 0.528080 0.429150 -0.510530
O19   O     O_R   0.252060 0.740380 0.423010 -0.504623
O20   O     O_R   0.736390 0.504290 0.414790 -0.515669
O21   O     O_R   0.691300 0.277290 0.422170 -0.513493
O22   O     O_3   0.499990 0.499990 0.499980 -0.282596
O23   O     O_R   0.089400 0.825690 0.930570 -0.532982
O24   O     O_R   0.818460 0.054440 0.929850 -0.505374
O25   O     O_R   0.606060 0.077150 0.915510 -0.532655
O26   O     O_R   0.646550 0.806680 0.917570 -0.513039

loop_
_geom_bond_atom_site_label_1
_geom_bond_atom_site_label_2
_ccdc_geom_bond_type
C15   H6    S    
C21   C26   A    
C34   C56   S    
Cr6   O11   S    
Cr2   O19   S    
C57   H23   S    
C29   C33   S    
Cr1   O22   S    
C27   C29   A    
C11   C13   A    
C41   C42   A    
C41   H20   S    
C2    C7    A    
C9    C14   S    
C56   H12   S    
C49   O3    A    
C21   H7    S    
C45   C57   S    
C37   C38   A    
C30   C35   S    
C14   H5    S    
C15   H37   S    
C50   O6    A    
C18   C19   A    
C10   C15   S    
C31   C36   A    
C5    C6    S    
C11   H2    S    
Cr3   O21   S    
C20   C25   S    
C10   C17   A    
C5    N1    S    
C59   H41   S    
C31   H14   S    
H31   N1    S    
C37   C42   A    
C33   H16   S    
Cr3   O22   S    
C55   H22   S    
Cr5   O26   S    
C50   O7    A    
C59   H40   S    
C4    O14   A    
C47   O25   A    
C35   H18   S    
Cr3   O16   S    
C19   C20   A    
C8    C9    A    
C54   H1    S    
C5    C62   S    
C59   H42   S    
C41   C46   A    
C58   H33   S    
C1    O13   A    
C3    H48   S    
C9    C10   A    
C12   H29   S    
C36   C52   S    
C27   C50   S    
Cr2   O14   S    
C59   N2    S    
C48   O2    A    
Cr6   O2    S    
C34   C55   S    
C25   H10   S    
C21   C22   A    
C60   H44   S    
Cr4   O6    S    
C6    H51   S    
C18   C51   S    
C4    C34   S    
C3    C61   A    
C32   H15   S    
C40   O12   A    
C47   O24   A    
C43   H21   S    
C14   H4    S    
Cr4   O11   S    
C53   O10   A    
C24   C25   S    
H43   N3    S    
C13   H36   S    
C24   H38   S    
C51   O8    A    
C12   C23   S    
Cr3   O20   S    
Cr1   O1    S    
C4    O15   A    
C6    C63   S    
C60   N3    S    
C33   H17   S    
C62   C63   A    
C53   O5    A    
C35   H19   S    
C31   C32   A    
Cr3   O15   S    
C52   O17   A    
Cr1   O4    S    
C28   C46   S    
Cr4   O23   S    
C58   H32   S    
Cr2   O12   S    
Cr5   O7    S    
C7    C63   A    
C12   H28   S    
C12   C56   S    
C34   C45   S    
C39   C46   A    
C24   H9    S    
C7    C16   S    
Cr6   O3    S    
C52   O21   A    
C43   C44   S    
Cr4   O24   S    
C25   H13   S    
C60   H47   S    
C16   O16   A    
C58   H35   S    
Cr2   O22   S    
C6    H50   S    
C42   N2    S    
C23   C54   S    
Cr1   O17   S    
C23   C57   S    
C54   C55   S    
C11   C17   A    
C58   N1    S    
Cr6   O10   S    
C23   C48   S    
C27   C32   A    
C18   C22   A    
C1    O4    A    
C22   H8    S    
H39   N2    S    
Cr5   O25   S    
C47   C61   S    
C28   O19   A    
C51   O9    A    
C39   C44   S    
Cr5   O8    S    
C44   N3    S    
C1    C17   S    
C30   C36   A    
C5    H49   S    
C43   H24   S    
Cr5   O11   S    
C2    C3    A    
C16   O1    A    
C37   C53   S    
C38   C43   S    
Cr4   O5    S    
C55   H11   S    
C2    H45   S    
C26   C40   S    
C38   C39   A    
C20   C26   A    
Cr6   O9    S    
Cr1   O18   S    
C33   C35   S    
C49   O23   A    
C19   C24   S    
C61   C62   A    
Cr2   O13   S    
C44   H25   S    
C29   C30   A    
C8    C13   A    
C54   H3    S    
C57   H26   S    
C40   O20   A    
C14   C15   S    
C60   H46   S    
C28   O18   A    
C56   H30   S    
C48   O26   A    
C45   H27   S    
C8    C49   S    
C45   H34   S    
