data_mof_unit_36538.cif
_audit_creation_date              2012-12-10T17:49:38-0500
_audit_creation_method            fapswitch 2.2
_symmetry_space_group_name_H-M    P1
_symmetry_Int_Tables_number       1
_space_group_crystal_system       triclinic
_cell_length_a                    14.714449
_cell_length_b                    14.539929
_cell_length_c                    15.871855
_cell_angle_alpha                 76.769698
_cell_angle_beta                  102.513501
_cell_angle_gamma                 114.530574
_cell_volume                      2978.73514313

loop_
_atom_site_label
_atom_site_type_symbol
_atom_type_description
_atom_site_fract_x
_atom_site_fract_y
_atom_site_fract_z
_atom_type_partial_charge
C1    C     C_R   0.880715 0.310981 0.513390 0.810566
C2    C     C_3   0.048056 0.421201 0.073962 0.131850
C3    C     C_3   0.999579 0.495243 0.083677 0.255542
C4    C     C_3   0.061294 0.604586 0.039606 -0.429430
C5    C     C_3   0.060693 0.605983 0.941714 -0.392464
C6    C     C_1   0.000427 0.497386 0.175700 -0.130298
C7    C     C_1   0.998356 0.499010 0.824874 -0.102405
C8    C     C_1   0.998527 0.499773 0.749181 -0.184535
C9    C     C_R   0.814492 0.200294 0.520267 -0.151324
C10   C     C_R   0.185999 0.797599 0.485339 -0.090451
C11   C     C_R   0.782736 0.017559 0.539091 0.132208
C12   C     C_R   0.999588 0.500073 0.659661 0.820009
C13   C     C_R   0.851072 0.120995 0.533250 0.216288
C14   C     C_R   0.710769 0.174828 0.511984 -0.312535
C15   C     C_R   0.640859 0.073214 0.518884 0.054595
C16   C     C_R   0.677343 0.993971 0.530482 0.080621
C17   C     C_R   0.535088 0.048805 0.513010 0.090739
C18   C     C_R   0.466176 0.945850 0.510165 0.080650
C19   C     C_R   0.505014 0.869155 0.522873 -0.230570
C20   C     C_R   0.607424 0.892545 0.533281 -0.218790
C21   C     C_R   0.495889 0.123224 0.512323 -0.221943
C22   C     C_R   0.392923 0.098222 0.505252 -0.218838
C23   C     C_R   0.119258 0.688505 0.486814 0.807705
C24   C     C_R   0.324759 0.998714 0.497719 0.123006
C25   C     C_R   0.360477 0.922019 0.498316 0.089167
C26   C     C_R   0.221021 0.974847 0.490932 -0.267056
C27   C     C_R   0.151273 0.874274 0.487123 0.255176
C28   C     C_R   0.289030 0.823652 0.487025 -0.311449
C29   C     C_R   0.720162 0.676761 0.361856 -0.334085
C30   C     C_R   0.799763 0.643937 0.382116 0.096171
C31   C     C_R   0.713633 0.507085 0.486790 0.004332
C32   C     C_R   0.629382 0.536141 0.468828 -0.022487
C33   C     C_R   0.635046 0.623582 0.405121 0.163041
C34   C     C_R   0.000387 0.499873 0.340358 0.823183
C35   C     C_R   0.541156 0.483046 0.512015 0.080668
C36   C     C_R   0.460137 0.518722 0.490091 0.077568
C37   C     C_R   0.470994 0.607408 0.427206 -0.242813
C38   C     C_R   0.556482 0.658252 0.385600 -0.205111
C39   C     C_R   0.531265 0.395785 0.576455 -0.242446
C40   C     C_R   0.446461 0.345962 0.619026 -0.210083
C41   C     C_R   0.367162 0.379609 0.598338 0.164509
C42   C     C_R   0.371548 0.465128 0.532704 -0.023937
C43   C     C_R   0.282904 0.327776 0.642806 -0.326235
C44   C     C_R   0.202569 0.359539 0.621327 0.080524
C45   C     C_3   0.046746 0.423302 0.974975 -0.364198
C46   C     C_R   0.285797 0.491943 0.512443 0.007366
C47   C     C_3   0.889740 0.461879 0.937405 -0.372195
C48   C     C_3   0.890153 0.461624 0.035129 -0.364468
C49   C     C_1   0.000744 0.498731 0.251030 -0.180383
C50   C     C_3   0.998858 0.497652 0.917424 0.278877
Cu1   Cu    Cu3+1 0.081750 0.475690 0.522550 0.926675
Cu2   Cu    Cu3+1 0.918250 0.524310 0.477450 0.939722
H1    H     H_    0.125300 0.447399 0.961655 0.132508
H2    H     H_    0.128024 0.450381 0.105698 0.122890
H3    H     H_    0.028967 0.659268 0.045928 0.179790
H4    H     H_    0.629861 0.828546 0.543314 0.166658
H5    H     H_    0.311612 0.765228 0.478477 0.156808
H6    H     H_    0.366532 0.157427 0.506013 0.153043
H7    H     H_    0.685619 0.236977 0.497700 0.171600
H8    H     H_    0.003432 0.345533 0.956744 0.184153
H9    H     H_    0.458441 0.788675 0.528549 0.146118
H10   H     H_    0.542569 0.201283 0.520451 0.139997
H11   H     H_    0.194178 0.033785 0.491499 0.134785
H12   H     H_    0.561298 0.725995 0.337709 0.141667
H13   H     H_    0.280701 0.552970 0.461007 0.121659
H14   H     H_    0.137702 0.319821 0.655820 0.114105
H15   H     H_    0.442738 0.279780 0.668561 0.142463
H16   H     H_    0.725526 0.743956 0.313176 0.135636
H17   H     H_    0.866164 0.685936 0.349746 0.132546
H18   H     H_    0.717215 0.443566 0.535851 0.122605
H19   H     H_    0.853242 0.513563 0.896168 0.164873
H20   H     H_    0.414889 0.640509 0.409093 0.129679
H21   H     H_    0.588256 0.363909 0.596141 0.128732
H22   H     H_    0.279041 0.262828 0.693748 0.136054
H23   H     H_    0.844091 0.383529 0.921188 0.167566
H24   H     H_    0.842882 0.383813 0.065413 0.172682
H25   H     H_    0.855497 0.514661 0.040651 0.164890
H26   H     H_    0.139560 0.633270 0.927992 0.166686
H27   H     H_    0.027671 0.660895 0.901153 0.172107
H28   H     H_    0.140502 0.631248 0.072874 0.161367
N1    N     N_R   0.795410 0.560790 0.443550 -0.175372
N2    N     N_R   0.204590 0.439170 0.556520 -0.172552
O1    O     O_R   0.977910 0.338120 0.529720 -0.584325
O2    O     O_R   0.839850 0.379180 0.491640 -0.588057
O3    O     O_R   0.069060 0.479460 0.639610 -0.575696
O4    O     O_R   0.931000 0.520530 0.601530 -0.579043
O5    O     O_R   0.160150 0.620820 0.508360 -0.592927
O6    O     O_R   0.022090 0.661880 0.470280 -0.551536
O7    O     O_R   0.069000 0.479470 0.398470 -0.582395
O8    O     O_R   0.930940 0.520540 0.360390 -0.576230
N3    N     N_2   0.996140 0.316403 0.115846 -0.422098
H29   H     H_    0.961576 0.309030 0.168362 0.259610
C51   C     C_3   0.052422 0.251030 0.133982 -0.733123
H30   H     H_    0.002759 0.171290 0.157354 0.231495
H31   H     H_    0.117580 0.277405 0.185567 0.224223
H32   H     H_    0.080057 0.251111 0.074179 0.234596
N4    N     N_2   0.047068 0.851300 0.485373 -0.420294
H33   H     H_    0.024160 0.909030 0.450619 0.236187
C52   C     C_3   0.013047 0.814741 0.570273 -0.656402
H34   H     H_    0.044794 0.877967 0.609720 0.211721
H35   H     H_    0.036044 0.750880 0.605949 0.232696
H36   H     H_    0.929494 0.785776 0.561627 0.229265
C53   C     C_3   0.824015 0.933148 0.557972 -0.400166
C54   C     C_3   0.824578 0.884520 0.654162 -0.847509
H37   H     H_    0.875565 0.942746 0.695974 0.255430
H38   H     H_    0.747886 0.852350 0.673355 0.254314
H39   H     H_    0.852194 0.821701 0.666098 0.237359
H40   H     H_    0.780913 0.874468 0.514757 0.185745
H41   H     H_    0.902226 0.962058 0.543120 0.237239
N5    N     N_2   0.956103 0.142714 0.542049 -0.436626
H42   H     H_    0.001221 0.184504 0.590462 0.262206
C55   C     C_3   0.997286 0.167573 0.460983 -0.677451
H43   H     H_    0.077633 0.176813 0.475504 0.220392
H44   H     H_    0.992521 0.239840 0.422407 0.243756
H45   H     H_    0.955465 0.104964 0.421266 0.211673

loop_
_geom_bond_atom_site_label_1
_geom_bond_atom_site_label_2
_ccdc_geom_bond_type
C10   C27   A    
C45   H8    S    
C51   H30   S    
C41   C42   A    
C48   H24   S    
Cu2   O8    S    
C19   C20   A    
C9    C14   A    
C3    C6    S    
Cu1   O3    S    
C55   H44   S    
N4    H33   S    
C7    C8    T    
C28   H5    S    
C25   C28   A    
C14   H7    S    
C26   C27   A    
C29   C30   A    
C12   O3    A    
C36   C37   A    
C37   C38   A    
C24   C26   A    
C4    H28   S    
C44   N2    A    
C19   H9    S    
C15   C16   A    
C29   C33   A    
C3    C48   S    
C55   H45   S    
C18   C19   A    
C42   C46   A    
Cu2   O2    S    
C9    C13   A    
N5    H42   S    
C54   H37   S    
C46   N2    A    
C44   H14   S    
C31   H18   S    
C35   C36   A    
C40   H15   S    
C53   H40   S    
C5    H27   S    
C16   C20   A    
C43   H22   S    
C45   H1    S    
C51   H31   S    
C23   O5    A    
C21   C22   A    
C41   C43   A    
Cu2   N1    S    
C18   C25   A    
C54   H38   S    
C55   H43   S    
N4    C52   S    
C47   C50   S    
C38   H12   S    
C2    C45   S    
Cu1   Cu2   S    
C32   C35   A    
Cu2   O6    S    
C1    C9    S    
C24   C25   A    
C46   H13   S    
C2    H2    S    
Cu1   O5    S    
C39   C40   A    
C17   C21   A    
C1    O2    A    
C48   H25   S    
C35   C39   A    
C26   H11   S    
C34   O8    A    
C13   N5    S    
N3    C51   S    
C29   H16   S    
C11   C16   A    
C47   C48   S    
C8    C12   S    
C17   C18   A    
Cu1   N2    S    
C47   H19   S    
C21   H10   S    
C40   C41   A    
C52   H35   S    
C51   H32   S    
C23   O6    A    
C4    H3    S    
C22   C24   A    
C5    C50   S    
C3    C4    S    
Cu1   O1    S    
N3    H29   S    
C30   H17   S    
C10   C28   A    
C15   C17   A    
C27   N4    S    
C34   C49   S    
C31   C32   A    
C7    C50   S    
C4    C5    S    
C36   C42   A    
C22   H6    S    
C10   C23   S    
C1    O1    A    
C33   C38   A    
C31   N1    A    
C52   H34   S    
C12   O4    A    
C53   H41   S    
C32   C33   A    
C30   N1    A    
Cu2   O4    S    
C2    C3    S    
C34   O7    A    
C47   H23   S    
Cu1   O7    S    
C11   C13   A    
C45   C50   S    
C43   C44   A    
C20   H4    S    
C39   H21   S    
C6    C49   T    
C2    N3    S    
N5    C55   S    
C52   H36   S    
C37   H20   S    
C53   C54   S    
C14   C15   A    
C11   C53   S    
C5    H26   S    
C54   H39   S    
