data_mof_unit_17432.cif
_audit_creation_date              2012-12-10T20:34:55-0500
_audit_creation_method            fapswitch 2.2
_symmetry_space_group_name_H-M    P1
_symmetry_Int_Tables_number       1
_space_group_crystal_system       triclinic
_cell_length_a                    10.632725
_cell_length_b                    10.671219
_cell_length_c                    9.860737
_cell_angle_alpha                 90.001729
_cell_angle_beta                  90.191088
_cell_angle_gamma                 90.046358
_cell_volume                      1118.83342506

loop_
_atom_site_label
_atom_site_type_symbol
_atom_type_description
_atom_site_fract_x
_atom_site_fract_y
_atom_site_fract_z
_atom_type_partial_charge
C1    C     C_R   0.503671 0.259967 0.500088 0.876239
C2    C     C_R   0.517434 0.936118 0.623548 0.125785
C3    C     C_3   0.422166 0.928755 0.734495 -0.478996
C4    C     C_R   0.257617 0.499466 0.499651 0.832462
C5    C     C_3   0.421887 0.070812 0.734404 -0.494523
C6    C     C_R   0.436680 0.409247 0.070939 0.221781
C7    C     C_R   0.571533 0.582624 0.072272 -0.140447
C8    C     C_R   0.571475 0.582694 0.928236 -0.142327
C9    C     C_R   0.436842 0.409141 0.928312 0.222823
C10   C     C_3   0.299128 0.384023 0.921652 -0.525976
C11   C     C_3   0.298745 0.384861 0.075446 -0.523330
C12   C     C_3   0.878739 0.499541 0.499202 0.188736
C13   C     C_R   0.503844 0.740023 0.500046 0.876653
C14   C     C_R   0.742368 0.499834 0.499912 0.822878
C15   C     C_3   0.072242 0.381840 0.574844 -0.410080
C16   C     C_3   0.927815 0.381585 0.574175 -0.399492
C17   C     C_3   0.072607 0.619177 0.570124 -0.404077
C18   C     C_3   0.070767 0.496285 0.350999 -0.404215
C19   C     C_3   0.121200 0.499231 0.498913 0.191275
C20   C     C_3   0.928225 0.618915 0.571161 -0.405392
C21   C     C_3   0.928076 0.497927 0.351018 -0.387070
C22   C     C_R   0.517255 0.063879 0.623541 0.138659
C23   C     C_R   0.523112 0.128580 0.501196 -0.108213
C24   C     C_R   0.552557 0.064852 0.381037 -0.236529
C25   C     C_R   0.552736 0.935231 0.381045 -0.236455
C26   C     C_R   0.523398 0.871425 0.501196 -0.107304
H1    H     H_    0.106594 0.381404 0.681543 0.175270
H2    H     H_    0.461465 0.112059 0.828900 0.202534
H3    H     H_    0.627352 0.650902 0.126879 0.138624
H4    H     H_    0.107685 0.295062 0.525319 0.152415
H5    H     H_    0.627181 0.651081 0.874052 0.142397
H6    H     H_    0.245307 0.463124 0.876638 0.215476
H7    H     H_    0.277821 0.290502 0.877660 0.193704
H8    H     H_    0.245556 0.465166 0.118034 0.213726
H9    H     H_    0.276508 0.292047 0.120601 0.197110
H10   H     H_    0.892675 0.295268 0.523105 0.155121
H11   H     H_    0.893165 0.379906 0.680583 0.179547
H12   H     H_    0.894568 0.582292 0.295010 0.172033
H13   H     H_    0.108137 0.623835 0.676357 0.172988
H14   H     H_    0.894553 0.622205 0.677900 0.175097
H15   H     H_    0.105874 0.578708 0.292980 0.173416
H16   H     H_    0.892558 0.413608 0.296280 0.176535
H17   H     H_    0.103486 0.409739 0.298895 0.173106
H18   H     H_    0.107277 0.704060 0.516207 0.153946
H19   H     H_    0.892407 0.704257 0.518840 0.153659
H20   H     H_    0.566945 0.114050 0.286232 0.168718
H21   H     H_    0.567253 0.886063 0.286253 0.165024
H22   H     H_    0.331494 0.887077 0.700357 0.198126
H23   H     H_    0.462035 0.887816 0.828978 0.202446
H24   H     H_    0.331087 0.111911 0.700060 0.193603
N1    N     N_R   0.499150 0.499140 0.142800 -0.105965
N2    N     N_R   0.499150 0.499180 0.857150 -0.105363
O1    O     O_R   0.500020 0.316790 0.614690 -0.613864
O2    O     O_R   0.500000 0.316760 0.385350 -0.621973
O3    O     O_R   0.314800 0.500000 0.614670 -0.627296
O4    O     O_R   0.314790 0.499960 0.385330 -0.624955
O5    O     O_R   0.500000 0.683240 0.614650 -0.617646
O6    O     O_R   0.499980 0.683210 0.385310 -0.623055
O7    O     O_R   0.685210 0.500040 0.614670 -0.627765
O8    O     O_R   0.685200 0.500000 0.385330 -0.631534
Zn1   Zn    Zn3+2 0.500010 0.500020 0.653130 0.931982
Zn2   Zn    Zn3+2 0.499990 0.499980 0.346870 0.929946

loop_
_geom_bond_atom_site_label_1
_geom_bond_atom_site_label_2
_ccdc_geom_bond_type
C2    C22   A    
C23   C24   A    
O6    Zn2   S    
C7    H3    S    
C6    N1    A    
C5    H2    S    
C14   O8    A    
C9    C10   S    
C25   H21   S    
C15   H1    S    
C20   H19   S    
C4    C19   S    
C16   H11   S    
C1    O2    A    
C24   H20   S    
C12   C20   S    
C6    C9    A    
C11   H9    S    
C2    C3    S    
C3    H23   S    
C17   H18   S    
C7    N1    A    
C7    C8    A    
C2    C26   A    
C18   H17   S    
C4    O4    A    
C15   C19   S    
C14   O7    A    
N1    Zn2   S    
C9    N2    A    
C15   C16   S    
O3    Zn1   S    
C17   C19   S    
C12   C14   S    
C1    C23   S    
C10   H7    S    
N2    Zn1   S    
C4    O3    A    
C20   H14   S    
O4    Zn2   S    
C13   C26   S    
O7    Zn1   S    
C13   O5    A    
C10   C11   S    
C21   H12   S    
C21   H16   S    
C18   C21   S    
C10   H6    S    
C3    H22   S    
C6    C11   S    
C17   C20   S    
C24   C25   A    
C15   H4    S    
O8    Zn2   S    
C18   C19   S    
C17   H13   S    
C18   H15   S    
O5    Zn1   S    
C8    N2    A    
C22   C23   A    
C1    O1    A    
C13   O6    A    
O2    Zn2   S    
C25   C26   A    
C8    H5    S    
O1    Zn1   S    
C12   C21   S    
C11   H8    S    
C16   H10   S    
C5    C22   S    
C12   C16   S    
C5    H24   S    
C3    C5    S    
