data_mof_unit_47732.cif
_audit_creation_date              2012-10-26T21:12:31-0400
_audit_creation_method            fapswitch 2.2
_symmetry_space_group_name_H-M    P1
_symmetry_Int_Tables_number       1
_space_group_crystal_system       triclinic
_cell_length_a                    23.522907
_cell_length_b                    10.864356
_cell_length_c                    9.570395
_cell_angle_alpha                 90.405676
_cell_angle_beta                  90.020635
_cell_angle_gamma                 92.563247
_cell_volume                      2443.31303169

loop_
_atom_site_label
_atom_site_type_symbol
_atom_type_description
_atom_site_fract_x
_atom_site_fract_y
_atom_site_fract_z
_atom_type_partial_charge
C1    C     C_R   0.504556 0.263080 0.500308 0.553955
C2    C     C_R   0.121884 0.604812 0.455732 0.401687
C3    C     C_R   0.238844 0.499344 0.626628 -0.054668
C4    C     C_R   0.390951 0.499694 0.500007 0.559254
C5    C     C_R   0.298107 0.498752 0.626761 -0.142452
C6    C     C_R   0.328325 0.500028 0.500000 0.003723
C7    C     C_R   0.298125 0.501857 0.373265 -0.141993
C8    C     C_R   0.238860 0.502535 0.373456 -0.054904
C9    C     C_R   0.209016 0.501288 0.500060 0.240574
C10   C     C_R   0.761092 0.502925 0.627085 -0.056085
C11   C     C_R   0.701804 0.501820 0.627054 -0.148415
C12   C     C_R   0.965684 0.295018 0.591305 -0.121604
C13   C     C_R   0.671669 0.502680 0.500184 0.001443
C14   C     C_R   0.701958 0.505536 0.373534 -0.146991
C15   C     C_R   0.761254 0.506705 0.373900 -0.056256
C16   C     C_R   0.496932 0.737651 0.501591 0.538838
C17   C     C_R   0.791021 0.505097 0.500587 0.240699
C18   C     C_R   0.537576 0.122903 0.754609 -0.090310
C19   C     C_R   0.531231 0.065178 0.883481 -0.128458
C20   C     C_R   0.503184 0.950344 0.891148 -0.122906
C21   C     C_R   0.486810 0.888009 0.768807 -0.093564
C22   C     C_R   0.498856 0.939757 0.635601 0.026292
C23   C     C_R   0.024982 0.294436 0.591156 -0.122023
C24   C     C_R   0.515888 0.065593 0.630816 0.028075
C25   C     C_R   0.509725 0.129318 0.502985 -0.005724
C26   C     C_R   0.500707 0.062943 0.378552 -0.156084
C27   C     C_R   0.495879 0.935764 0.380137 -0.157522
C28   C     C_R   0.609044 0.500879 0.500018 0.537083
C29   C     C_R   0.494809 0.872362 0.507134 -0.004667
C30   C     C_R   0.575709 0.664116 0.145513 -0.099372
C31   C     C_R   0.612625 0.744221 0.073685 -0.177775
C32   C     C_R   0.612690 0.743935 0.929767 -0.166488
C33   C     C_R   0.575746 0.663737 0.856856 -0.094717
C34   C     C_R   0.057589 0.398101 0.545936 0.029058
C35   C     C_R   0.537195 0.580653 0.925723 0.145801
C36   C     C_R   0.537177 0.580709 0.075487 0.153619
C37   C     C_R   0.464772 0.422946 0.073330 -0.010314
C38   C     C_R   0.464789 0.422977 0.925241 -0.010979
C39   C     C_R   0.882770 0.607142 0.456282 0.400740
C40   C     C_R   0.878180 0.401879 0.545163 0.401446
C41   C     C_R   0.937753 0.399279 0.546237 0.029184
C42   C     C_R   0.970026 0.503683 0.500588 -0.027982
C43   C     C_R   0.942448 0.608657 0.455059 0.029257
C44   C     C_R   0.030021 0.503091 0.500432 -0.028010
C45   C     C_R   0.062302 0.607476 0.454753 0.029117
C46   C     C_R   0.034366 0.711742 0.409703 -0.121298
C47   C     C_R   0.975060 0.712327 0.409855 -0.122238
C48   C     C_R   0.117257 0.399559 0.544626 0.401284
Cu1   Cu    Cu3+1 0.500000 0.499990 0.640660 0.911960
Cu2   Cu    Cu3+1 0.500000 0.500010 0.359340 0.925909
H1    H     H_    0.941849 0.213556 0.626814 0.171322
H2    H     H_    0.491973 0.887142 0.281123 0.137019
H3    H     H_    0.435938 0.359839 0.128252 0.118053
H4    H     H_    0.045143 0.212545 0.626559 0.170649
H5    H     H_    0.579546 0.671937 0.255624 0.186354
H6    H     H_    0.641456 0.806965 0.130455 0.135095
H7    H     H_    0.641447 0.806683 0.873845 0.137441
H8    H     H_    0.579180 0.671866 0.746832 0.189037
H9    H     H_    0.435981 0.359850 0.869200 0.125778
H10   H     H_    0.058203 0.793195 0.374181 0.171835
H11   H     H_    0.954896 0.794210 0.374439 0.170243
H12   H     H_    0.679653 0.500089 0.726263 0.132598
H13   H     H_    0.216026 0.498684 0.724893 0.133347
H14   H     H_    0.320176 0.497355 0.726030 0.129830
H15   H     H_    0.320210 0.502797 0.273981 0.130691
H16   H     H_    0.216039 0.503657 0.275217 0.133302
H17   H     H_    0.783863 0.502137 0.725411 0.133373
H18   H     H_    0.679923 0.506645 0.274195 0.133734
H19   H     H_    0.784135 0.508152 0.275721 0.133619
H20   H     H_    0.497305 0.109254 0.279198 0.134914
H21   H     H_    0.560589 0.211217 0.753328 0.149297
H22   H     H_    0.546583 0.111206 0.977785 0.114558
H23   H     H_    0.495153 0.908173 0.991824 0.116660
H24   H     H_    0.462937 0.801848 0.781933 0.154752
N1    N     N_R   0.852003 0.504765 0.500760 -0.399050
N2    N     N_R   0.148041 0.501899 0.500112 -0.399363
N3    N     N_R   0.500540 0.501210 0.147910 -0.243567
N4    N     N_R   0.500560 0.501290 0.852040 -0.250611
O1    O     O_R   0.500000 0.319640 0.618810 -0.508183
O2    O     O_R   0.582120 0.500020 0.618760 -0.525934
O3    O     O_R   0.582120 0.500050 0.381190 -0.519591
O4    O     O_2   0.855668 0.707384 0.414413 -0.493898
O5    O     O_2   0.846607 0.302112 0.587019 -0.492073
O6    O     O_2   0.144338 0.299265 0.586419 -0.490310
O7    O     O_2   0.153476 0.704506 0.413768 -0.489632
O8    O     O_R   0.500000 0.319660 0.381240 -0.501061
O9    O     O_R   0.417880 0.499950 0.618810 -0.500867
O10   O     O_R   0.417880 0.499980 0.381240 -0.498196
O11   O     O_R   0.500000 0.680340 0.618760 -0.534762
O12   O     O_R   0.500000 0.680360 0.381190 -0.521600

loop_
_geom_bond_atom_site_label_1
_geom_bond_atom_site_label_2
_ccdc_geom_bond_type
C16   O12   A    
C33   H8    S    
C22   C29   A    
C27   C29   A    
C41   C42   A    
Cu1   O9    S    
C19   C20   A    
C11   H12   S    
C7    C8    A    
C4    O9    A    
C10   H17   S    
C44   C45   A    
C8    H16   S    
C12   C23   A    
C26   C27   A    
C37   C38   A    
C18   C24   A    
C36   N3    A    
C5    C6    A    
C10   C17   A    
C1    O8    A    
Cu1   N4    S    
C2    O7    S    
C18   C19   A    
C48   N2    A    
Cu2   O12   S    
C35   C36   A    
C8    C9    A    
C13   C28   S    
C9    N2    S    
C39   N1    A    
C31   H6    S    
Cu2   O10   S    
C37   H3    S    
C16   O11   A    
C13   C14   A    
C1    C25   S    
C40   O5    S    
C19   H22   S    
C42   C44   A    
C32   H7    S    
C2    C45   A    
C15   H19   S    
C34   C44   A    
C24   C25   A    
C4    C6    S    
C39   C43   A    
C38   N4    A    
C16   C29   S    
C45   C46   A    
C37   N3    A    
C21   H24   S    
C48   O6    S    
C5    H14   S    
C12   C41   A    
C3    C9    A    
C7    H15   S    
C31   C32   A    
C23   C34   A    
C40   C41   A    
C1    O1    A    
C22   C24   A    
C34   C48   A    
C42   C43   A    
Cu2   N3    S    
C12   H1    S    
C2    N2    A    
C27   H2    S    
C23   H4    S    
C18   H21   S    
C15   C17   A    
C46   C47   A    
C46   H10   S    
C28   O3    A    
C39   O4    S    
Cu1   O11   S    
C3    C5    A    
C47   H11   S    
C40   N1    A    
C6    C7    A    
C4    O10   A    
C3    H13   S    
C30   H5    S    
C35   N4    A    
Cu1   O2    S    
C30   C36   A    
C32   C33   A    
C25   C26   A    
C11   C13   A    
C30   C31   A    
C26   H20   S    
C33   C35   A    
C20   H23   S    
C28   O2    A    
C10   C11   A    
Cu2   O8    S    
C38   H9    S    
Cu1   O1    S    
C20   C21   A    
Cu1   Cu2   S    
C17   N1    S    
C14   H18   S    
C14   C15   A    
C21   C22   A    
C43   C47   A    
Cu2   O3    S    
