data_mof_unit_5279.cif
_audit_creation_date              2012-10-26T19:02:58-0400
_audit_creation_method            fapswitch 2.2
_symmetry_space_group_name_H-M    P1
_symmetry_Int_Tables_number       1
_space_group_crystal_system       triclinic
_cell_length_a                    14.965216
_cell_length_b                    11.056498
_cell_length_c                    9.827042
_cell_angle_alpha                 110.958394
_cell_angle_beta                  97.737001
_cell_angle_gamma                 91.838492
_cell_volume                      1498.94432104

loop_
_atom_site_label
_atom_site_type_symbol
_atom_type_description
_atom_site_fract_x
_atom_site_fract_y
_atom_site_fract_z
_atom_type_partial_charge
C1    C     C_R   0.493436 0.254194 0.440739 0.553603
C2    C     C_2   0.492136 0.489206 0.918926 -0.022947
C3    C     C_R   0.329042 0.498218 0.501317 0.545092
C4    C     C_R   0.670995 0.502012 0.498870 0.543886
C5    C     C_R   0.821522 0.619380 0.558464 -0.130901
C6    C     C_R   0.179794 0.380304 0.457086 -0.135818
C7    C     C_R   0.767158 0.502174 0.496341 -0.007025
C8    C     C_R   0.233126 0.498122 0.505938 -0.005516
C9    C     C_R   0.805014 0.383965 0.442799 -0.130456
C10   C     C_R   0.195718 0.616370 0.562428 -0.124006
C11   C     C_R   0.899119 0.380818 0.456711 0.019084
C12   C     C_R   0.506611 0.745808 0.559253 0.554247
C13   C     C_R   0.103058 0.618708 0.569250 0.022204
C14   C     C_R   0.954180 0.499812 0.512276 0.003033
C15   C     C_R   0.048130 0.499550 0.515127 0.002752
C16   C     C_R   0.915142 0.619224 0.564354 -0.025649
C17   C     C_R   0.087032 0.380083 0.461687 -0.031468
C18   C     C_R   0.939759 0.261832 0.418351 0.271013
C19   C     C_R   0.063877 0.737301 0.628056 0.264211
C20   C     C_3   0.859973 0.129583 0.503668 -0.002429
C21   C     C_3   0.935064 0.090894 0.598683 -0.262895
C22   C     C_3   0.902386 0.087210 0.737904 -0.477450
C23   C     C_R   0.032915 0.262591 0.415596 -0.109106
C24   C     C_3   0.163385 0.878243 0.824328 -0.000905
C25   C     C_3   0.123416 0.986642 0.939656 -0.262108
C26   C     C_3   0.179528 0.023877 0.092577 -0.473656
C27   C     C_R   0.970154 0.736359 0.622820 -0.105728
C28   C     C_2   0.489892 0.114965 0.407421 -0.134035
C29   C     C_2   0.510324 0.885042 0.592534 -0.133828
C30   C     C_2   0.502134 0.069546 0.516558 -0.165001
C31   C     C_2   0.498622 0.930473 0.483368 -0.163264
C32   C     C_2   0.507824 0.510843 0.081079 -0.020827
Cu1   Cu    Cu3+1 0.515770 0.521810 0.644910 0.933436
Cu2   Cu    Cu3+1 0.484230 0.478190 0.355090 0.937037
H1    H     H_    0.790686 0.710193 0.601117 0.100588
H2    H     H_    0.477203 0.049059 0.292762 0.101438
H3    H     H_    0.439360 0.416318 0.846468 0.146908
H4    H     H_    0.560573 0.583770 0.153543 0.147362
H5    H     H_    0.589143 0.623189 0.933955 0.205174
H6    H     H_    0.410882 0.376763 0.066042 0.202146
H7    H     H_    0.803550 0.051456 0.463352 0.154478
H8    H     H_    0.831703 0.218332 0.573701 0.126516
H9    H     H_    0.955535 0.993804 0.534119 0.188804
H10   H     H_    0.995212 0.162509 0.632431 0.167777
H11   H     H_    0.882963 0.184316 0.804504 0.156610
H12   H     H_    0.210786 0.289467 0.416194 0.099513
H13   H     H_    0.957485 0.060532 0.806207 0.153664
H14   H     H_    0.843189 0.014483 0.708598 0.140715
H15   H     H_    0.234741 0.910386 0.825728 0.148693
H16   H     H_    0.165278 0.790639 0.855954 0.122465
H17   H     H_    0.121380 0.073773 0.908287 0.175295
H18   H     H_    0.053228 0.953504 0.943503 0.161689
H19   H     H_    0.180395 0.939390 0.128583 0.155144
H20   H     H_    0.149289 0.103842 0.172658 0.146896
H21   H     H_    0.250060 0.057932 0.091873 0.149140
H22   H     H_    0.760731 0.294756 0.395025 0.137190
H23   H     H_    0.239314 0.705844 0.599335 0.135952
H24   H     H_    0.063097 0.170798 0.380402 0.125133
H25   H     H_    0.940309 0.827491 0.664662 0.118755
H26   H     H_    0.486255 0.864868 0.368508 0.157310
H27   H     H_    0.514796 0.135158 0.631408 0.157083
H28   H     H_    0.522666 0.950951 0.707197 0.102716
N1    N     N_2   0.460520 0.445420 0.137370 -0.352034
N2    N     N_2   0.539480 0.554580 0.862630 -0.352355
O1    O     O_R   0.508410 0.332340 0.577400 -0.497554
O2    O     O_3   0.115238 0.855805 0.681779 -0.584057
O3    O     O_R   0.491590 0.667660 0.422600 -0.496911
O4    O     O_R   0.481780 0.295500 0.332650 -0.493136
O5    O     O_R   0.518220 0.704500 0.667350 -0.492759
O6    O     O_R   0.383570 0.518390 0.622380 -0.498137
O7    O     O_R   0.616430 0.481610 0.377620 -0.493378
O8    O     O_R   0.356940 0.481550 0.377630 -0.485824
O9    O     O_R   0.643060 0.518450 0.622370 -0.488164
O10   O     O_3   0.889950 0.143032 0.378326 -0.575427

loop_
_geom_bond_atom_site_label_1
_geom_bond_atom_site_label_2
_ccdc_geom_bond_type
C31   H26   S    
Cu2   O3    S    
C1    C28   S    
C22   H14   S    
C12   O5    A    
C25   H17   S    
C11   C18   A    
C10   H23   S    
C32   H4    S    
C12   C29   S    
C23   H24   S    
C21   H10   S    
C19   C27   A    
C1    O1    A    
Cu1   O5    S    
C4    O7    A    
C26   H21   S    
C3    O6    A    
C16   C27   A    
C28   C30   D    
C22   H13   S    
C25   H18   S    
Cu1   O1    S    
C29   C31   D    
C9    H22   S    
C27   H25   S    
C21   C22   S    
C24   C25   S    
H5    N2    S    
C9    C11   A    
C2    H3    S    
C4    O9    A    
C17   C23   A    
H6    N1    S    
Cu1   O6    S    
C4    C7    S    
C20   H7    S    
C5    H1    S    
C2    C32   S    
Cu2   N1    S    
C11   C14   A    
Cu1   Cu2   S    
C3    O8    A    
C7    C9    A    
C13   C15   A    
C3    C8    S    
C24   H16   S    
C30   C31   S    
C12   O3    A    
C14   C16   A    
C20   H8    S    
C13   C19   A    
Cu2   O8    S    
C20   O10   S    
C18   C23   A    
C26   H19   S    
C26   H20   S    
C1    O4    A    
C20   C21   S    
C28   H2    S    
C19   O2    S    
C18   O10   S    
C22   H11   S    
C30   H27   S    
Cu1   O9    S    
C24   H15   S    
C15   C17   A    
C6    C17   A    
C29   H28   S    
C5    C16   A    
C6    C8    A    
C6    H12   S    
C25   C26   S    
C14   C15   A    
C24   O2    S    
Cu2   O7    S    
C8    C10   A    
C21   H9    S    
C5    C7    A    
C32   N1    D    
C2    N2    D    
Cu2   O4    S    
C10   C13   A    
Cu1   N2    S    
