data_mof_unit_12843.cif
_audit_creation_date              2012-12-10T20:43:20-0500
_audit_creation_method            fapswitch 2.2
_symmetry_space_group_name_H-M    P1
_symmetry_Int_Tables_number       1
_space_group_crystal_system       triclinic
_cell_length_a                    15.805103
_cell_length_b                    10.683612
_cell_length_c                    9.900356
_cell_angle_alpha                 89.961423
_cell_angle_beta                  90.523966
_cell_angle_gamma                 89.923538
_cell_volume                      1671.65865042

loop_
_atom_site_label
_atom_site_type_symbol
_atom_type_description
_atom_site_fract_x
_atom_site_fract_y
_atom_site_fract_z
_atom_type_partial_charge
C1    C     C_R   0.507749 0.260482 0.499836 0.907048
C2    C     C_R   0.045781 0.495082 0.625872 -0.229756
C3    C     C_1   0.824070 0.493886 0.503663 0.028364
C4    C     C_1   0.176141 0.493401 0.500421 0.014165
C5    C     C_1   0.251042 0.496396 0.499355 -0.057054
C6    C     C_1   0.749098 0.496884 0.502092 -0.144167
C7    C     C_R   0.525687 0.064618 0.622294 -0.030799
C8    C     C_R   0.529033 0.129636 0.500322 -0.107123
C9    C     C_R   0.547992 0.063632 0.380107 0.229869
C10   C     C_R   0.541273 0.933520 0.381139 -0.260288
C11   C     C_R   0.517677 0.871835 0.500038 -0.101796
C12   C     C_R   0.339466 0.499489 0.499594 0.962247
C13   C     C_R   0.517152 0.937027 0.621340 0.050211
C14   C     C_3   0.452196 0.941176 0.731263 0.524136
C15   C     C_3   0.465927 0.081262 0.736849 -0.445002
C16   C     C_R   0.427214 0.522764 0.070221 0.089319
C17   C     C_R   0.573264 0.486781 0.072732 -0.105523
C18   C     C_R   0.573266 0.486858 0.929247 -0.119829
C19   C     C_R   0.427109 0.522233 0.928082 0.017546
C20   C     C_3   0.343658 0.452506 0.922049 0.231620
C21   C     C_3   0.344437 0.454704 0.078416 0.534840
C22   C     C_R   0.502424 0.740263 0.499865 0.929520
C23   C     C_R   0.660589 0.499810 0.500600 0.862144
C24   C     C_R   0.957976 0.495259 0.627966 0.419652
C25   C     C_R   0.913139 0.490756 0.505148 0.053742
C26   C     C_R   0.955071 0.485025 0.381768 -0.241147
C27   C     C_R   0.042678 0.484867 0.380266 -0.105770
C28   C     C_R   0.087306 0.490424 0.502221 0.075734
H1    H     H_    0.081453 0.499386 0.719815 0.170978
H2    H     H_    0.498427 0.115792 0.829471 0.186699
H3    H     H_    0.632333 0.474174 0.126883 0.157252
H4    H     H_    0.632301 0.474335 0.876669 0.175745
H5    H     H_    0.920059 0.481576 0.287173 0.180891
H6    H     H_    0.075512 0.481310 0.284693 0.202091
H7    H     H_    0.550466 0.882099 0.288077 0.167408
H8    H     H_    0.409773 0.136717 0.705566 0.229232
N1    N     N_R   0.499440 0.499140 0.142800 -0.087891
N2    N     N_R   0.499440 0.499180 0.857150 -0.106074
O1    O     O_R   0.500010 0.316790 0.614690 -0.624717
O2    O     O_R   0.500000 0.316760 0.385350 -0.544141
O3    O     O_R   0.378030 0.499990 0.614640 -0.608954
O4    O     O_R   0.378020 0.499950 0.385300 -0.536121
O5    O     O_R   0.500000 0.683240 0.614650 -0.623938
O6    O     O_R   0.499990 0.683210 0.385310 -0.616735
O7    O     O_R   0.621980 0.500050 0.614700 -0.614187
O8    O     O_R   0.621970 0.500010 0.385360 -0.640913
Zn1   Zn    Zn3+2 0.500010 0.500020 0.653130 0.963392
Zn2   Zn    Zn3+2 0.499990 0.499980 0.346870 1.023444
N3    N     N_2   0.273346 0.521807 0.859511 -0.295852
H9    H     H_    0.213866 0.493098 0.888143 0.255648
C29   C     C_3   0.280189 0.654976 0.836221 -0.625212
H10   H     H_    0.222158 0.689285 0.783991 0.253698
H11   H     H_    0.334641 0.673396 0.770153 0.275494
H12   H     H_    0.288246 0.706376 0.932758 0.265258
N4    N     N_2   0.352156 0.327891 0.863737 -0.276527
H13   H     H_    0.403274 0.277444 0.899549 0.239441
C30   C     C_3   0.274957 0.255185 0.850667 -0.657623
H14   H     H_    0.289991 0.155483 0.831037 0.261979
H15   H     H_    0.236386 0.291034 0.764649 0.237005
H16   H     H_    0.237271 0.259811 0.944658 0.266599
Cl1   Cl    Cl    0.263815 0.549013 0.153901 -0.621829
Cl2   Cl    Cl    0.353922 0.305788 0.161639 -0.575492
Cl3   Cl    Cl    0.906185 0.502278 0.784640 -0.618415
N5    N     N_2   0.567013 0.126262 0.256965 -0.260145
H17   H     H_    0.551130 0.076698 0.170974 0.238770
C31   C     C_3   0.651934 0.176160 0.251413 -0.737773
H18   H     H_    0.698920 0.098686 0.254335 0.231996
H19   H     H_    0.664062 0.240650 0.337362 0.237317
H20   H     H_    0.659855 0.229336 0.155987 0.234978
Cl4   Cl    Cl    0.347150 0.906185 0.672872 -0.676167
N6    N     N_2   0.475404 0.875594 0.855849 -0.287253
H21   H     H_    0.445695 0.790567 0.866777 0.251918
C32   C     C_3   0.563691 0.870019 0.896967 -0.790725
H22   H     H_    0.568384 0.830850 0.000705 0.240390
H23   H     H_    0.592650 0.964506 0.898060 0.241604
H24   H     H_    0.599495 0.807999 0.827845 0.255553

loop_
_geom_bond_atom_site_label_1
_geom_bond_atom_site_label_2
_ccdc_geom_bond_type
C31   H19   S    
N4    H13   S    
C16   C21   S    
C23   O7    A    
C9    N5    S    
C32   H23   S    
C14   N6    S    
C19   C20   S    
C3    C6    T    
C7    C8    A    
C26   C27   A    
C20   N3    S    
C2    H1    S    
C30   H15   S    
C31   H20   S    
C1    C8    S    
C32   H22   S    
C12   O4    A    
C1    O2    A    
C22   O6    A    
C8    C9    A    
N3    C29   S    
C10   H7    S    
C9    C10   A    
C21   Cl1   S    
C16   N1    A    
C7    C15   S    
C31   H18   S    
C23   O8    A    
C13   C14   S    
C14   Cl4   S    
C20   N4    S    
C4    C28   S    
O7    Zn1   S    
C27   H6    S    
O3    Zn1   S    
O8    Zn2   S    
C29   H10   S    
C3    C25   S    
C24   C25   A    
C5    C12   S    
N6    C32   S    
C30   H16   S    
C17   N1    A    
C25   C26   A    
C29   H11   S    
N5    C31   S    
C12   O3    A    
C19   N2    A    
C26   H5    S    
C22   O5    A    
C17   C18   A    
C21   Cl2   S    
O4    Zn2   S    
N1    Zn2   S    
N2    Zn1   S    
C24   Cl3   S    
N4    C30   S    
C2    C24   A    
C17   H3    S    
C32   H24   S    
C18   H4    S    
C15   H8    S    
C15   H2    S    
O1    Zn1   S    
O2    Zn2   S    
C4    C5    T    
C11   C22   S    
C29   H12   S    
N5    H17   S    
C18   N2    A    
N6    H21   S    
C11   C13   A    
C30   H14   S    
C16   C19   A    
C6    C23   S    
C10   C11   A    
C1    O1    A    
C7    C13   A    
C20   C21   S    
N3    H9    S    
C27   C28   A    
C14   C15   S    
C2    C28   A    
O5    Zn1   S    
O6    Zn2   S    
