data_mof_unit_6781.cif
_audit_creation_date              2013-03-05T16:48:15-0500
_audit_creation_method            fapswitch 2.2
_symmetry_space_group_name_H-M    P1
_symmetry_Int_Tables_number       1
_space_group_crystal_system       monoclinic
_cell_length_a                    23.445473
_cell_length_b                    8.925672
_cell_length_c                    8.098856
_cell_angle_alpha                 89.973473
_cell_angle_beta                  90.0
_cell_angle_gamma                 90.0
_cell_volume                      1694.81989261

loop_
_atom_site_label
_atom_site_type_symbol
_atom_site_description
_atom_site_fract_x
_atom_site_fract_y
_atom_site_fract_z
_atom_type_partial_charge
O1    O     O_R   0.500000 0.285350 0.636850 -0.613132
O2    O     O_R   0.500000 0.714650 0.363150 -0.613132
O3    O     O_R   0.500000 0.714650 0.636850 -0.613424
O4    O     O_R   0.500000 0.285350 0.363150 -0.613424
H1    H     H_    0.948186 0.128303 0.416254 0.192469
H2    H     H_    0.051793 0.871702 0.583709 0.192489
H3    H     H_    0.948186 0.871696 0.583746 0.192469
H4    H     H_    0.051793 0.128297 0.416291 0.192489
C1    C     C_R   0.500000 0.217978 0.500024 0.946010
C2    C     C_R   0.500000 0.782022 0.499976 0.946010
O5    O     O_R   0.416160 0.500000 0.636910 -0.623278
O6    O     O_R   0.583840 0.500000 0.363090 -0.623282
O7    O     O_R   0.583840 0.500000 0.636910 -0.623282
O8    O     O_R   0.416160 0.500000 0.363090 -0.623278
C3    C     C_R   0.208167 0.500000 0.500000 0.319413
C4    C     C_R   0.791830 0.500000 0.500000 0.320141
C5    C     C_R   0.388974 0.500000 0.500000 0.872410
C6    C     C_R   0.611027 0.500000 0.500000 0.872401
Zn1   Zn    Zn3+2 0.500000 0.500000 0.682780 0.995975
Zn2   Zn    Zn3+2 0.500000 0.500000 0.317220 0.995975
C7    C     C_R   0.296832 0.507295 0.649920 -0.205979
C8    C     C_R   0.703174 0.505120 0.650062 -0.205713
C9    C     C_R   0.296832 0.492705 0.350080 -0.205979
C10   C     C_R   0.703174 0.494880 0.349938 -0.205713
C11   C     C_R   0.326780 0.500000 0.500000 -0.041418
C12   C     C_R   0.673224 0.500000 0.500000 -0.041432
C13   C     C_R   0.880599 0.631338 0.529600 0.505326
C14   C     C_R   0.119380 0.368648 0.470472 0.505241
C15   C     C_R   0.880599 0.368661 0.470400 0.505326
C16   C     C_R   0.119381 0.631352 0.529528 0.505241
N1    N     N_R   0.852445 0.500000 0.500000 -0.363444
N2    N     N_R   0.147543 0.500000 0.500000 -0.363324
C17   C     C_R   0.940146 0.365792 0.469717 -0.013113
C18   C     C_R   0.059834 0.634209 0.530255 -0.013045
C19   C     C_R   0.940146 0.634207 0.530283 -0.013113
C20   C     C_R   0.059834 0.365790 0.469745 -0.013045
C21   C     C_R   0.970033 0.500000 0.500000 -0.021073
C22   C     C_R   0.029947 0.500000 0.500000 -0.021078
C23   C     C_R   0.970305 0.232659 0.439848 -0.163057
C24   C     C_R   0.029674 0.767343 0.560130 -0.163033
C25   C     C_R   0.970305 0.767341 0.560152 -0.163057
C26   C     C_R   0.029674 0.232656 0.439870 -0.163033
C27   C     C_1   0.500000 0.065201 0.500035 -0.182455
C28   C     C_1   0.500000 0.934799 0.499965 -0.182456
C29   C     C_R   0.237630 0.507461 0.649672 -0.095619
C30   C     C_R   0.762377 0.505278 0.649815 -0.095917
C31   C     C_R   0.237630 0.492538 0.350328 -0.095619
C32   C     C_R   0.762377 0.494721 0.350185 -0.095917
N3    N     N_1   0.500000 0.500000 0.073640 -0.034935
N4    N     N_1   0.500000 0.500000 0.926360 -0.034935
O9    O     O_2   0.850912 0.758439 0.557385 -0.531485
O10   O     O_2   0.149059 0.241506 0.442840 -0.531636
O11   O     O_2   0.850912 0.241561 0.442615 -0.531486
O12   O     O_2   0.149059 0.758494 0.557160 -0.531637
H5    H     H_    0.214558 0.513044 0.765359 0.138508
H6    H     H_    0.785455 0.509159 0.765601 0.138113
H7    H     H_    0.214558 0.486955 0.234640 0.138508
H8    H     H_    0.785455 0.490840 0.234399 0.138113
H9    H     H_    0.319044 0.513088 0.767005 0.164361
H10   H     H_    0.680965 0.509146 0.767268 0.164312
H11   H     H_    0.319044 0.486912 0.232995 0.164362
H12   H     H_    0.680965 0.490854 0.232732 0.164312

loop_
_geom_bond_atom_site_label_1
_geom_bond_atom_site_label_2
_geom_bond_distance
_ccdc_geom_bond_type
C16   N2    1.366732 A    
C27   C28   1.163918 T    
C32   H8    1.083207 S    
C21   C22   1.404714 A    
C29   H5    1.083045 S    
O8    Zn2   2.000468 S    
C31   H7    1.083045 S    
Zn2   N3    1.972719 S    
C16   O12   1.349938 S    
C10   C32   1.388028 A    
C20   C26   1.403884 A    
C6    C12   1.458224 S    
C14   N2    1.366733 A    
C5    C11   1.458165 S    
C13   C19   1.396339 A    
C4    C32   1.396889 A    
C20   C22   1.409361 A    
O1    C1    1.261026 A    
C3    N2    1.421368 S    
C15   N1    1.366640 A    
O3    C2    1.260881 A    
C4    N1    1.421147 S    
O3    Zn1   1.951503 S    
C4    C30   1.396889 A    
C14   O10   1.349939 S    
O8    C5    1.278958 A    
O6    Zn2   2.000465 S    
C7    C11   1.404122 A    
C17   C23   1.403867 A    
C15   O11   1.349934 S    
O7    C6    1.278974 A    
C18   C24   1.403884 A    
C24   C25   1.391932 A    
C8    C30   1.388028 A    
H4    C26   1.083151 S    
C7    H9    1.083103 S    
C23   C26   1.391930 A    
C7    C29   1.388021 A    
C9    C11   1.404123 A    
C13   N1    1.366641 A    
C8    H10   1.083275 S    
C19   C25   1.403866 A    
Zn1   N4    1.972719 S    
C1    C27   1.363640 S    
O1    Zn1   1.951842 S    
C16   C18   1.396344 A    
C2    C28   1.363640 S    
O4    Zn2   1.951503 S    
C15   C17   1.396339 A    
C9    H11   1.083103 S    
H2    C24   1.083149 S    
C9    C31   1.388021 A    
C14   C20   1.396344 A    
C17   C21   1.409389 A    
N3    N4    1.192799 T    
C8    C12   1.404376 A    
C30   H6    1.083207 S    
H1    C23   1.083152 S    
O7    Zn1   2.000465 S    
C3    C31   1.396789 A    
O5    Zn1   2.000468 S    
C10   H12   1.083276 S    
C19   C21   1.409388 A    
O4    C1    1.260881 A    
C18   C22   1.409361 A    
O2    Zn2   1.951841 S    
O2    C2    1.261026 A    
O5    C5    1.278957 A    
C10   C12   1.404376 A    
H3    C25   1.083151 S    
C13   O9    1.349934 S    
C3    C29   1.396789 A    
O6    C6    1.278974 A    
