data_mof_unit_43029.cif
_audit_creation_date              2012-12-11T15:15:38-0500
_audit_creation_method            fapswitch 2.2
_symmetry_space_group_name_H-M    P1
_symmetry_Int_Tables_number       1
_space_group_crystal_system       triclinic
_cell_length_a                    20.573348
_cell_length_b                    22.789471
_cell_length_c                    6.940687
_cell_angle_alpha                 89.852969
_cell_angle_beta                  87.450587
_cell_angle_gamma                 90.015555
_cell_volume                      3250.94895324

loop_
_atom_site_label
_atom_site_type_symbol
_atom_type_description
_atom_site_fract_x
_atom_site_fract_y
_atom_site_fract_z
_atom_type_partial_charge
O1    O     O_R   0.387100 0.552640 0.378490 -0.534023
O2    O     O_R   0.612900 0.052640 0.621510 -0.537183
O3    O     O_R   0.249610 0.559600 0.072250 -0.540213
O4    O     O_R   0.750390 0.059600 0.927750 -0.541791
O5    O     O_R   0.249120 0.447360 0.902040 -0.541758
O6    O     O_R   0.750880 0.947360 0.097960 -0.539455
C1    C     C_R   0.228714 0.575109 0.243258 0.692046
C2    C     C_R   0.771231 0.075141 0.756461 0.687325
O7    O     O_R   0.386610 0.559560 0.048860 -0.540539
O8    O     O_R   0.613390 0.059560 0.951140 -0.542144
O9    O     O_R   0.387100 0.447320 0.878470 -0.539682
O10   O     O_R   0.612900 0.947320 0.121530 -0.524375
C3    C     C_R   0.407883 0.574748 0.214655 0.681506
C4    C     C_R   0.592030 0.074610 0.785027 0.680306
O11   O     O_R   0.249120 0.552680 0.402050 -0.531212
O12   O     O_R   0.750880 0.052680 0.597950 -0.532841
O13   O     O_3   0.318110 0.463180 0.223790 -0.373896
O14   O     O_3   0.681890 0.963180 0.776210 -0.366145
V1    V     V_3+5 0.318110 0.506830 0.948930 1.451014
V2    V     V_3+5 0.681890 0.006830 0.051070 1.471684
O15   O     O_R   0.386610 0.440400 0.548840 -0.540619
O16   O     O_R   0.613390 0.940400 0.451160 -0.545576
C5    C     C_R   0.407974 0.425310 0.715232 0.704223
C6    C     C_R   0.591966 0.925226 0.285646 0.732632
O17   O     O_R   0.249610 0.440440 0.572240 -0.546379
O18   O     O_R   0.750390 0.940440 0.427760 -0.547596
C7    C     C_R   0.227080 0.426804 0.743591 0.685674
C8    C     C_R   0.772981 0.926842 0.256671 0.689532
V3    V     V_3+5 0.318110 0.493170 0.448930 1.440518
V4    V     V_3+5 0.681890 0.993170 0.551070 1.455526
O19   O     O_3   0.318110 0.536820 0.723940 -0.359101
O20   O     O_3   0.681890 0.036820 0.276060 -0.364285
C9    C     C_R   0.171311 0.386501 0.756003 -0.046367
C10   C     C_R   0.828827 0.886614 0.244765 -0.045181
C11   C     C_R   0.165210 0.342564 0.616365 -0.170154
C12   C     C_R   0.835435 0.843059 0.386174 -0.174442
C13   C     C_R   0.109500 0.307659 0.616646 -0.127893
C14   C     C_R   0.891111 0.808119 0.385556 -0.129400
C15   C     C_R   0.058579 0.317127 0.754145 0.140350
C16   C     C_R   0.941532 0.817194 0.245976 0.141017
C17   C     C_R   0.064614 0.360854 0.893867 -0.110903
C18   C     C_R   0.935043 0.860581 0.104649 -0.111604
C19   C     C_R   0.121116 0.394763 0.896849 -0.171270
C20   C     C_R   0.878553 0.894499 0.102019 -0.171070
C21   C     C_R   0.888270 0.196850 0.890672 -0.022756
C22   C     C_R   0.111326 0.696697 0.108273 -0.022868
C23   C     C_R   0.830427 0.162899 0.887213 -0.093463
C24   C     C_R   0.169170 0.662750 0.111447 -0.093955
C25   C     C_R   0.874446 0.111173 0.603483 -0.083439
C26   C     C_R   0.125568 0.610973 0.396465 -0.081743
C27   C     C_R   0.930995 0.144704 0.603469 0.210866
C28   C     C_R   0.069027 0.644499 0.396789 0.210247
C29   C     C_R   0.938474 0.188230 0.745409 0.046834
C30   C     C_R   0.061366 0.688099 0.254472 0.046836
C31   C     C_2   0.998111 0.282734 0.751347 -0.125352
C32   C     C_2   0.001944 0.782719 0.248143 -0.125984
C33   C     C_2   0.998965 0.224027 0.736821 -0.124073
C34   C     C_2   0.000972 0.724010 0.263742 -0.122737
C35   C     C_R   0.824719 0.118684 0.745080 -0.170656
C36   C     C_R   0.175120 0.618538 0.254189 -0.173140
H1    H     H_    0.203305 0.335654 0.505933 0.123739
H2    H     H_    0.797745 0.836434 0.498138 0.124201
H3    H     H_    0.870644 0.077060 0.495951 0.148007
H4    H     H_    0.129515 0.576848 0.504455 0.148867
H5    H     H_    0.045228 0.201613 0.713710 0.122456
H6    H     H_    0.954681 0.701691 0.288360 0.122501
H7    H     H_    0.025600 0.368608 0.000787 0.131917
H8    H     H_    0.973674 0.868035 0.996120 0.131550
H9    H     H_    0.124533 0.428890 0.004311 0.124412
H10   H     H_    0.874779 0.928319 0.993111 0.123485
H11   H     H_    0.952276 0.305875 0.773863 0.122907
H12   H     H_    0.047792 0.805797 0.224159 0.121419
H13   H     H_    0.105328 0.274513 0.506294 0.122716
H14   H     H_    0.895655 0.775234 0.497116 0.123625
C37   C     C_R   0.577112 0.363856 0.751428 0.009988
C38   C     C_R   0.423810 0.861969 0.369368 0.012241
H15   H     H_    0.531558 0.449104 0.761075 0.156128
H16   H     H_    0.471739 0.944576 0.414161 0.152210
C39   C     C_R   0.461440 0.381753 0.720322 -0.117915
C40   C     C_R   0.537886 0.881964 0.289213 -0.068055
C41   C     C_R   0.475265 0.095513 0.833167 -0.148996
C42   C     C_R   0.525276 0.595985 0.192834 -0.146558
C43   C     C_R   0.422822 0.133546 0.857210 -0.128461
C44   C     C_R   0.578314 0.633283 0.205629 -0.102044
C45   C     C_R   0.431116 0.193738 0.830275 -0.109059
C46   C     C_R   0.569168 0.693367 0.232265 -0.170542
C47   C     C_R   0.492129 0.217771 0.769738 0.099883
C48   C     C_R   0.506349 0.718674 0.238196 0.084262
C49   C     C_R   0.546385 0.178590 0.754984 0.026905
C50   C     C_R   0.452265 0.679312 0.242842 0.047027
C51   C     C_R   0.501861 0.279845 0.740056 0.028666
C52   C     C_R   0.495873 0.781047 0.257522 -0.016697
C53   C     C_R   0.566996 0.302114 0.734623 0.001553
C54   C     C_R   0.432166 0.801399 0.319292 0.032151
C55   C     C_R   0.619534 0.262000 0.706753 0.165407
C56   C     C_R   0.379922 0.760155 0.333972 0.171862
C57   C     C_R   0.608510 0.201565 0.715113 -0.230930
C58   C     C_R   0.390106 0.701375 0.285565 -0.230447
C59   C     C_R   0.449781 0.320645 0.713178 0.144864
C60   C     C_R   0.546272 0.824247 0.220396 0.150072
C61   C     C_R   0.524112 0.402253 0.745460 -0.214390
C62   C     C_R   0.477720 0.899403 0.367469 -0.235152
C63   C     C_R   0.537453 0.117111 0.785138 -0.077376
C64   C     C_R   0.461986 0.617826 0.215405 -0.079119
H17   H     H_    0.467727 0.049027 0.858965 0.123530
H18   H     H_    0.533641 0.549402 0.172755 0.117663
H19   H     H_    0.389710 0.220645 0.870055 0.153544
H20   H     H_    0.612011 0.718662 0.257822 0.121912
H21   H     H_    0.375516 0.116394 0.902909 0.135660
H22   H     H_    0.627076 0.615329 0.198593 0.136179
H23   H     H_    0.649950 0.172600 0.693859 0.111184
H24   H     H_    0.348629 0.672049 0.295525 0.105962
N1    N     N_3   0.980812 0.133085 0.457529 -0.655350
H25   H     H_    0.992043 0.172094 0.384041 0.279339
H26   H     H_    0.022393 0.118637 0.524683 0.219297
N2    N     N_3   0.019409 0.632805 0.543478 -0.654362
H27   H     H_    0.008314 0.671772 0.616654 0.279435
H28   H     H_    0.977711 0.618393 0.477033 0.220389
N3    N     N_3   0.684088 0.281805 0.654284 -0.682979
H29   H     H_    0.697747 0.264180 0.519510 0.264051
H30   H     H_    0.715739 0.265126 0.754745 0.213378
N4    N     N_3   0.315992 0.776237 0.405365 -0.692835
H31   H     H_    0.304219 0.750990 0.528061 0.270249
H32   H     H_    0.282934 0.765920 0.300306 0.221928
C65   C     C_2   0.640881 0.389804 0.796796 0.437461
H33   H     H_    0.675410 0.365032 0.877953 0.074678
O21   O     O_2   0.654838 0.439997 0.748608 -0.528608
C66   C     C_2   0.359915 0.889702 0.417345 0.432665
H34   H     H_    0.318003 0.879886 0.333872 0.086500
O22   O     O_2   0.354124 0.925810 0.546719 -0.530771
N5    N     N_3   0.386870 0.300637 0.660532 -0.690604
H35   H     H_    0.351834 0.317012 0.760160 0.205434
H36   H     H_    0.377409 0.317716 0.524656 0.236630
N6    N     N_3   0.601799 0.813881 0.091900 -0.675945
H37   H     H_    0.593487 0.779787 0.995744 0.244760
H38   H     H_    0.642914 0.806342 0.171575 0.206912
C67   C     C_2   0.775428 0.173026 0.030545 0.359265
H39   H     H_    0.725695 0.170493 0.985245 0.038226
O23   O     O_2   0.784820 0.181391 0.200783 -0.536757
C68   C     C_2   0.223920 0.672936 0.967219 0.363674
H40   H     H_    0.273729 0.670838 0.012039 0.039060
O24   O     O_2   0.214222 0.680868 0.796821 -0.538309
C69   C     C_2   0.895863 0.240213 0.048169 0.420529
H41   H     H_    0.855172 0.267599 0.095892 0.071619
O25   O     O_2   0.947103 0.244767 0.129030 -0.537934
C70   C     C_2   0.103490 0.740036 0.950101 0.417779
H42   H     H_    0.144193 0.767261 0.900724 0.073707
O26   O     O_2   0.052019 0.744750 0.870500 -0.538297

loop_
_geom_bond_atom_site_label_1
_geom_bond_atom_site_label_2
_ccdc_geom_bond_type
V4    O20   S    
C25   H3    S    
C47   C51   A    
H16   C62   S    
C26   H4    S    
H15   C61   S    
O4    C2    A    
V1    O19   S    
C66   H34   S    
C15   C17   A    
C7    C9    S    
C67   O23   D    
O9    V1    S    
C27   N1    S    
O10   V2    S    
C39   C59   A    
C11   C13   A    
C44   C46   A    
C70   H42   S    
C28   N2    S    
O3    C1    A    
C2    C35   S    
C41   C63   A    
C57   H23   S    
C46   C48   A    
O12   V4    S    
C69   H41   S    
O13   V3    S    
N2    H27   S    
O7    V1    S    
O7    C3    A    
C53   C55   A    
C38   C54   A    
O5    C7    A    
C6    C40   S    
C15   C31   S    
C48   C52   A    
C60   N6    S    
C25   C27   A    
C56   C58   A    
C26   C28   A    
C43   H21   S    
C20   H10   S    
O14   V4    S    
C10   C12   A    
C24   C36   A    
C28   C30   A    
N3    H30   S    
C8    C10   S    
C2    O12   A    
C40   C60   A    
C38   C62   A    
C17   C19   A    
C23   C67   S    
C18   C20   A    
C12   H2    S    
O1    V3    S    
C41   C43   A    
C34   H6    S    
O11   V3    S    
C70   O26   D    
C21   C23   A    
O17   V3    S    
C22   C24   A    
C23   C35   A    
C58   H24   S    
C24   C68   S    
C45   C47   A    
C9    C19   A    
C10   C20   A    
C68   H40   S    
C17   H7    S    
O8    C4    A    
O8    V2    S    
C29   C33   S    
N6    H38   S    
C1    O11   A    
C14   H14   S    
C16   C32   S    
O15   V3    S    
C44   H22   S    
C40   C62   A    
C37   C65   S    
C54   C56   A    
C51   C53   A    
C21   C69   S    
C33   H5    S    
C22   C30   A    
C52   C54   A    
C11   H1    S    
C3    C64   S    
O3    V1    S    
C50   C64   A    
N2    H28   S    
C43   C45   A    
C48   C50   A    
O18   V4    S    
C42   C44   A    
C31   C33   D    
C65   H33   S    
C38   C66   S    
O16   C6    A    
O1    C3    A    
N4    H32   S    
N5    H35   S    
C1    C36   S    
C52   C60   A    
C37   C61   A    
N1    H25   S    
V2    O20   S    
C69   O25   D    
C41   H17   S    
C13   H13   S    
O16   V4    S    
C32   H12   S    
C46   H20   S    
C19   H9    S    
C68   O24   D    
C16   C18   A    
N5    H36   S    
C66   O22   D    
N3    H29   S    
C55   C57   A    
N6    H37   S    
O5    V1    S    
C59   N5    S    
O17   C7    A    
O6    V2    S    
C67   H39   S    
O10   C6    A    
O18   C8    A    
C25   C35   A    
C56   N4    S    
O2    V4    S    
C26   C36   A    
O15   C5    A    
V3    O19   S    
C51   C59   A    
C12   C14   A    
C14   C16   A    
C9    C11   A    
C4    C63   S    
C22   C70   S    
C37   C53   A    
O9    C5    A    
O13   V1    S    
C32   C34   D    
O14   V2    S    
C42   H18   S    
C18   H8    S    
O2    C4    A    
C31   H11   S    
C55   N3    S    
C27   C29   A    
C21   C29   A    
O4    V2    S    
O6    C8    A    
C30   C34   S    
C13   C15   A    
C49   C57   A    
C65   O21   D    
C47   C49   A    
C42   C64   A    
C39   C61   A    
C5    C39   S    
N4    H31   S    
C45   H19   S    
C50   C58   A    
C49   C63   A    
N1    H26   S    
