data_mof_unit_22136.cif
_audit_creation_date              2013-03-05T16:46:36-0500
_audit_creation_method            fapswitch 2.2
_symmetry_space_group_name_H-M    P1
_symmetry_Int_Tables_number       1
_space_group_crystal_system       triclinic
_cell_length_a                    12.891062
_cell_length_b                    8.933204
_cell_length_c                    8.113892
_cell_angle_alpha                 89.971196
_cell_angle_beta                  97.294927
_cell_angle_gamma                 90.027412
_cell_volume                      926.820134497

loop_
_atom_site_label
_atom_site_type_symbol
_atom_site_description
_atom_site_fract_x
_atom_site_fract_y
_atom_site_fract_z
_atom_type_partial_charge
O1    O     O_R   0.499990 0.285340 0.636850 -0.619374
O2    O     O_R   0.500010 0.714660 0.363150 -0.619376
O3    O     O_R   0.500010 0.285340 0.363150 -0.602067
O4    O     O_R   0.499990 0.714660 0.636850 -0.602051
N1    N     N_1   0.500020 0.500000 0.073640 0.005873
N2    N     N_1   0.499980 0.500000 0.926360 0.005868
C1    C     C_R   0.499968 0.218017 0.500018 0.947861
C2    C     C_R   0.500033 0.781983 0.499982 0.947914
O5    O     O_R   0.346350 0.500000 0.614250 -0.581099
O6    O     O_R   0.653650 0.500000 0.385750 -0.581076
O7    O     O_R   0.346360 0.500000 0.340500 -0.624212
O8    O     O_R   0.653640 0.500000 0.659500 -0.624201
C3    C     C_R   0.297934 0.503631 0.467545 0.926564
C4    C     C_R   0.702067 0.496368 0.532454 0.926497
Zn1   Zn    Zn3+2 0.499990 0.500000 0.682780 1.071809
Zn2   Zn    Zn3+2 0.500010 0.500000 0.317220 1.071810
C5    C     C_R   0.813790 0.498219 0.553135 -0.145653
C6    C     C_R   0.186210 0.501798 0.446857 -0.145638
C7    C     C_R   0.029064 0.383206 0.321073 -0.122376
C8    C     C_R   0.970933 0.616833 0.678907 -0.122390
C9    C     C_R   0.134562 0.409440 0.324489 -0.227171
C10   C     C_R   0.865437 0.590579 0.675503 -0.227149
C11   C     C_R   0.132706 0.576024 0.562683 0.267460
C12   C     C_R   0.867296 0.424015 0.437295 0.267473
C13   C     C_R   0.026155 0.548802 0.561060 0.011307
C14   C     C_R   0.973846 0.451236 0.438925 0.011318
H1    H     H_    0.823004 0.648718 0.763243 0.189003
H2    H     H_    0.176993 0.351292 0.236754 0.188993
H3    H     H_    0.992280 0.306790 0.228071 0.205529
H4    H     H_    0.007710 0.693262 0.771900 0.205554
C15   C     C_1   0.499991 0.065197 0.500032 -0.124798
C16   C     C_1   0.500010 0.934803 0.499968 -0.124778
N3    N     N_R   0.812928 0.322427 0.318691 0.198674
O9    O     O_R   0.800357 0.355967 0.161309 -0.383018
O10   O     O_R   0.764281 0.207087 0.369967 -0.394353
N4    N     N_R   0.187075 0.677661 0.681237 0.198695
O11   O     O_R   0.235799 0.792897 0.629902 -0.394377
O12   O     O_R   0.199588 0.644230 0.838648 -0.383044

loop_
_geom_bond_atom_site_label_1
_geom_bond_atom_site_label_2
_geom_bond_distance
_ccdc_geom_bond_type
O1    Zn1   1.953664 S    
C12   N3    1.438700 S    
C6    C9    1.393638 A    
O2    Zn2   1.953663 S    
O7    Zn2   2.013433 S    
C15   C16   1.164830 T    
O8    Zn1   2.013433 S    
O4    C2    1.262715 A    
O4    Zn1   1.953295 S    
N4    O12   1.301475 A    
N3    O9    1.301470 A    
O5    Zn1   1.988018 S    
C13   C14   1.423737 A    
O6    Zn2   1.988018 S    
O7    C3    1.271551 A    
C4    C5    1.428748 S    
C3    C6    1.428740 S    
N4    O11   1.301203 A    
C7    C9    1.376729 A    
C9    H2    1.084119 S    
O8    C4    1.271560 A    
O3    C1    1.262715 A    
C10   H1    1.084122 S    
C11   C13   1.393229 A    
N1    N2    1.194949 T    
C12   C14   1.393195 A    
C5    C12   1.401534 A    
C1    C15   1.365177 S    
C8    C13   1.401517 A    
C6    C11   1.401533 A    
C7    H3    1.081492 S    
C11   N4    1.438728 S    
O6    C4    1.272333 A    
C7    C14   1.401515 A    
O5    C3    1.272338 A    
N1    Zn2   1.976397 S    
C8    H4    1.081481 S    
N3    O10   1.301237 A    
N2    Zn1   1.976399 S    
O1    C1    1.262901 A    
O2    C2    1.262901 A    
O3    Zn2   1.953296 S    
C5    C10   1.393641 A    
C8    C10   1.376745 A    
C2    C16   1.365177 S    
