data_mof_unit_46119.cif
_audit_creation_date              2012-12-10T18:09:34-0500
_audit_creation_method            fapswitch 2.2
_symmetry_space_group_name_H-M    P1
_symmetry_Int_Tables_number       1
_space_group_crystal_system       triclinic
_cell_length_a                    14.955762
_cell_length_b                    15.894641
_cell_length_c                    9.578152
_cell_angle_alpha                 91.260665
_cell_angle_beta                  91.02838
_cell_angle_gamma                 89.34849
_cell_volume                      2275.82947897

loop_
_atom_site_label
_atom_site_type_symbol
_atom_type_description
_atom_site_fract_x
_atom_site_fract_y
_atom_site_fract_z
_atom_type_partial_charge
C1    C     C_R   0.125863 0.386748 0.500535 0.828155
C2    C     C_R   0.120429 0.618231 0.502001 0.796818
C3    C     C_R   0.625857 0.886740 0.500538 0.828172
C4    C     C_R   0.620431 0.118229 0.502000 0.796769
C5    C     C_3   0.064985 0.562980 0.087306 -0.429046
C6    C     C_3   0.066714 0.561305 0.920005 -0.443750
C7    C     C_3   0.564980 0.062983 0.087304 -0.429050
C8    C     C_3   0.566726 0.061293 0.920005 -0.443750
C9    C     C_R   0.876385 0.381768 0.498403 0.950987
C10   C     C_R   0.882461 0.622579 0.500396 0.881889
C11   C     C_R   0.376391 0.881762 0.498406 0.950977
C12   C     C_R   0.382469 0.122585 0.500397 0.881814
C13   C     C_3   0.746253 0.315491 0.634727 0.186694
C14   C     C_3   0.851444 0.221868 0.504314 0.174729
C15   C     C_3   0.797902 0.729932 0.654711 0.157538
C16   C     C_3   0.852920 0.775156 0.424266 0.169433
C17   C     C_3   0.246286 0.815461 0.634776 0.186671
C18   C     C_3   0.351447 0.721855 0.504263 0.174775
C19   C     C_3   0.297996 0.230020 0.654694 0.157602
C20   C     C_3   0.352885 0.275129 0.424103 0.169459
C21   C     C_3   0.188713 0.735446 0.646689 -0.435821
C22   C     C_3   0.281860 0.651014 0.480666 -0.399218
C23   C     C_3   0.237024 0.308993 0.651190 -0.407947
C24   C     C_3   0.276593 0.341853 0.405529 -0.387390
C25   C     C_3   0.688658 0.235490 0.646637 -0.435809
C26   C     C_3   0.781867 0.151015 0.480749 -0.399236
C27   C     C_3   0.736930 0.808905 0.651238 -0.407965
C28   C     C_3   0.776636 0.841887 0.405678 -0.387379
C29   C     C_3   0.736948 0.311117 0.365489 0.710442
C30   C     C_3   0.724382 0.668972 0.428780 0.679557
C31   C     C_3   0.236934 0.811138 0.365538 0.710388
C32   C     C_3   0.224357 0.168944 0.428941 0.679491
C33   C     C_3   0.804616 0.311507 0.496878 -0.242670
C34   C     C_3   0.815844 0.695602 0.500698 -0.212453
C35   C     C_3   0.304625 0.811500 0.496892 -0.242679
C36   C     C_3   0.315854 0.195611 0.500697 -0.212480
C37   C     C_3   0.186958 0.686797 0.505181 -0.087898
C38   C     C_3   0.197697 0.321140 0.501743 -0.129138
C39   C     C_3   0.686957 0.186798 0.505171 -0.087896
C40   C     C_3   0.697687 0.821129 0.501757 -0.129159
C41   C     C_3   0.160753 0.749248 0.389899 -0.394108
C42   C     C_3   0.154145 0.238989 0.450514 -0.337201
C43   C     C_3   0.660783 0.249206 0.389817 -0.394157
C44   C     C_3   0.654157 0.738999 0.450380 -0.337223
C45   C     C_3   0.913891 0.525951 0.080609 0.326019
C46   C     C_3   0.914157 0.527505 0.916454 0.348044
C47   C     C_3   0.034092 0.418528 0.080081 0.349917
C48   C     C_3   0.030165 0.416904 0.915191 0.331990
C49   C     C_3   0.413884 0.025934 0.080605 0.325933
C50   C     C_3   0.414166 0.027524 0.916455 0.348122
C51   C     C_3   0.534093 0.918528 0.080083 0.349928
C52   C     C_3   0.530152 0.916901 0.915193 0.331938
Cu1   Cu    Cu3+1 0.000100 0.500000 0.642410 1.020331
Cu2   Cu    Cu3+1 0.000100 0.500000 0.357590 1.063761
Cu3   Cu    Cu3+1 0.500100 0.000000 0.642410 1.020355
Cu4   Cu    Cu3+1 0.500100 1.000000 0.357590 1.063735
H1    H     H_    0.791197 0.317731 0.727994 0.223530
H2    H     H_    0.881590 0.214950 0.610628 0.172214
H3    H     H_    0.862840 0.747924 0.704910 0.125758
H4    H     H_    0.905957 0.803943 0.492317 0.134564
H5    H     H_    0.291242 0.817710 0.728029 0.223569
H6    H     H_    0.381600 0.714912 0.610569 0.172177
H7    H     H_    0.362962 0.248032 0.704781 0.125740
H8    H     H_    0.405959 0.303947 0.492046 0.134564
H9    H     H_    0.217672 0.694623 0.729482 0.190923
H10   H     H_    0.296993 0.598962 0.553633 0.166273
H11   H     H_    0.276141 0.365484 0.683945 0.162241
H12   H     H_    0.302633 0.405707 0.431611 0.170150
H13   H     H_    0.717572 0.194687 0.729494 0.190938
H14   H     H_    0.796986 0.098991 0.553775 0.166299
H15   H     H_    0.776027 0.865383 0.684129 0.162267
H16   H     H_    0.802664 0.905730 0.431879 0.170143
H17   H     H_    0.119275 0.751205 0.679226 0.224702
H18   H     H_    0.285215 0.623909 0.372705 0.244068
H19   H     H_    0.182650 0.303649 0.728020 0.257579
H20   H     H_    0.252354 0.342339 0.295007 0.245408
H21   H     H_    0.619208 0.251271 0.679081 0.224664
H22   H     H_    0.785250 0.123874 0.372815 0.244043
H23   H     H_    0.682509 0.803515 0.727979 0.257613
H24   H     H_    0.752458 0.842425 0.295129 0.245389
H25   H     H_    0.098240 0.782450 0.422703 0.221975
H26   H     H_    0.142377 0.717005 0.289485 0.215646
H27   H     H_    0.104637 0.221091 0.529782 0.243086
H28   H     H_    0.116324 0.249398 0.351410 0.259828
H29   H     H_    0.598237 0.282387 0.422525 0.221891
H30   H     H_    0.642471 0.216927 0.289407 0.215593
H31   H     H_    0.604628 0.721061 0.529586 0.243079
H32   H     H_    0.616361 0.749446 0.351267 0.259830
H33   H     H_    0.898091 0.591139 0.117257 0.168773
H34   H     H_    0.902080 0.594034 0.887591 0.129910
H35   H     H_    0.105921 0.410286 0.110563 0.073494
H36   H     H_    0.099725 0.403703 0.881008 0.081957
H37   H     H_    0.398050 0.091105 0.117292 0.168877
H38   H     H_    0.402127 0.094065 0.887644 0.129949
H39   H     H_    0.605923 0.910289 0.110556 0.073498
H40   H     H_    0.599707 0.903685 0.880998 0.081969
H41   H     H_    0.046831 0.627625 0.124645 0.235815
H42   H     H_    0.052311 0.625750 0.881695 0.212168
H43   H     H_    0.133909 0.551232 0.128724 0.206921
H44   H     H_    0.135586 0.545657 0.884857 0.200428
H45   H     H_    0.546810 0.127629 0.124624 0.235813
H46   H     H_    0.552348 0.125738 0.881677 0.212198
H47   H     H_    0.633902 0.051247 0.128740 0.206937
H48   H     H_    0.635597 0.045624 0.884876 0.200401
N1    N     N_3   0.001260 0.500000 0.143650 -0.257373
N2    N     N_3   0.001260 0.500000 0.856350 -0.252825
N3    N     N_3   0.501260 1.000000 0.143650 -0.257378
N4    N     N_3   0.501260 1.000000 0.856350 -0.252814
O1    O     O_R   0.091250 0.408820 0.620260 -0.584480
O2    O     O_R   0.091250 0.408820 0.379740 -0.574218
O3    O     O_R   0.091250 0.591180 0.620260 -0.616562
O4    O     O_R   0.091250 0.591180 0.379740 -0.607337
O5    O     O_R   0.591250 0.908820 0.620260 -0.584512
O6    O     O_R   0.591250 0.908820 0.379740 -0.574225
O7    O     O_R   0.591250 0.091180 0.620260 -0.616554
O8    O     O_R   0.591250 0.091180 0.379740 -0.607356
O9    O     O_R   0.908940 0.408800 0.620260 -0.510876
O10   O     O_R   0.908940 0.408800 0.379740 -0.455724
O11   O     O_R   0.908940 0.591200 0.620260 -0.561334
O12   O     O_R   0.908940 0.591200 0.379740 -0.519284
O13   O     O_R   0.408940 0.908800 0.620260 -0.510884
O14   O     O_R   0.408940 0.908800 0.379740 -0.455723
O15   O     O_R   0.408940 0.091200 0.620260 -0.561212
O16   O     O_R   0.408940 0.091200 0.379740 -0.519314
Cl1   Cl    Cl    0.671482 0.403663 0.650729 -0.370139
Cl2   Cl    Cl    0.942505 0.202256 0.391297 -0.471938
Cl3   Cl    Cl    0.749035 0.657838 0.771669 -0.420422
Cl4   Cl    Cl    0.908373 0.756683 0.261550 -0.576203
Cl5   Cl    Cl    0.171483 0.903605 0.650824 -0.370194
Cl6   Cl    Cl    0.442500 0.702256 0.391227 -0.471908
Cl7   Cl    Cl    0.249184 0.158004 0.771836 -0.420608
Cl8   Cl    Cl    0.408247 0.256592 0.261327 -0.576211
Cl9   Cl    Cl    0.682376 0.408671 0.331233 -0.331458
Cl10  Cl    Cl    0.787648 0.278117 0.204709 -0.389579
Cl11  Cl    Cl    0.680583 0.576056 0.498187 -0.329336
Cl12  Cl    Cl    0.732823 0.647810 0.244659 -0.398108
Cl13  Cl    Cl    0.182409 0.908727 0.331333 -0.331418
Cl14  Cl    Cl    0.287593 0.778115 0.204733 -0.389622
Cl15  Cl    Cl    0.180592 0.076069 0.498564 -0.329305
Cl16  Cl    Cl    0.232711 0.147663 0.244841 -0.397810
Cl17  Cl    Cl    0.824741 0.468751 0.144486 -0.282354
Cl18  Cl    Cl    0.820944 0.475270 0.840245 -0.320666
Cl19  Cl    Cl    0.988121 0.327508 0.152897 -0.337981
Cl20  Cl    Cl    0.971844 0.327004 0.844214 -0.468832
Cl21  Cl    Cl    0.324754 0.968672 0.144390 -0.282326
Cl22  Cl    Cl    0.320937 0.975360 0.840175 -0.320536
Cl23  Cl    Cl    0.488119 0.827508 0.152899 -0.338008
Cl24  Cl    Cl    0.471805 0.827013 0.844235 -0.468919

loop_
_geom_bond_atom_site_label_1
_geom_bond_atom_site_label_2
_ccdc_geom_bond_type
C16   C28   S    
C29   Cl9   S    
Cu3   Cu4   S    
Cu3   O13   S    
Cu2   O12   S    
C9    O9    A    
C4    O7    A    
C13   C25   S    
C14   C33   S    
C7    C8    S    
C46   Cl18  S    
C5    N1    S    
Cu1   Cu2   S    
C48   Cl20  S    
C26   H22   S    
C25   H21   S    
Cu4   O16   S    
C38   C42   S    
C27   H23   S    
C19   C36   S    
C5    C6    S    
Cu1   O9    S    
C26   C39   S    
C13   H1    S    
C28   C40   S    
C21   H17   S    
Cu2   O2    S    
C21   C37   S    
C16   H4    S    
C23   H11   S    
C22   H10   S    
C10   O11   A    
C1    O1    A    
Cu1   N2    S    
C48   N2    S    
C20   C24   S    
C29   C33   S    
C19   H7    S    
C47   N1    S    
C24   C38   S    
C12   C36   S    
C44   H31   S    
C45   H33   S    
C18   C35   S    
C15   C34   S    
C13   Cl1   S    
C50   Cl22  S    
C29   Cl10  S    
C41   H25   S    
C52   Cl24  S    
C7    H47   S    
C29   C43   S    
C50   N4    S    
C9    O10   A    
C30   C44   S    
C11   O13   A    
C47   H35   S    
C20   Cl8   S    
C8    N4    S    
C45   N1    S    
C19   Cl7   S    
C14   H2    S    
Cu3   O15   S    
C2    O3    A    
C30   C34   S    
C17   Cl5   S    
C51   C52   S    
C43   H29   S    
C5    H43   S    
C42   H28   S    
C32   Cl15  S    
C49   N3    S    
C3    O5    A    
C18   H6    S    
C39   C43   S    
Cu3   O5    S    
C45   C46   S    
C22   C37   S    
C17   C21   S    
Cu4   O14   S    
C20   H8    S    
C19   C23   S    
Cu4   N3    S    
C13   C33   S    
C1    O2    A    
C16   Cl4   S    
C15   C27   S    
C47   C48   S    
C12   O16   A    
C4    C39   S    
C51   Cl23  S    
C27   C40   S    
C16   C34   S    
Cu1   O11   S    
Cu4   O8    S    
C49   Cl21  S    
C10   C34   S    
C14   C26   S    
C31   Cl14  S    
C8    H48   S    
C1    C38   S    
C9    C33   S    
C5    H41   S    
C3    C40   S    
C49   C50   S    
C30   Cl12  S    
Cu2   O10   S    
C48   H36   S    
C26   H14   S    
C7    N3    S    
C18   Cl6   S    
C11   O14   A    
C31   Cl13  S    
C22   H18   S    
C17   H5    S    
C6    H42   S    
C27   H15   S    
Cu1   O1    S    
C32   C42   S    
C31   C41   S    
Cu2   N1    S    
C21   H9    S    
C18   C22   S    
C43   H30   S    
C15   H3    S    
C4    O8    A    
C50   H38   S    
C42   H27   S    
C47   Cl19  S    
C23   H19   S    
C3    O6    A    
C32   C36   S    
C32   Cl16  S    
C46   H34   S    
C23   C38   S    
C45   Cl17  S    
C14   Cl2   S    
Cu3   N4    S    
C11   C35   S    
C28   H16   S    
C2    C37   S    
Cu1   O3    S    
C12   O15   A    
Cu3   O7    S    
C41   H26   S    
C46   N2    S    
C2    O4    A    
C52   H40   S    
C31   C35   S    
C37   C41   S    
C28   H24   S    
C10   O12   A    
C24   H12   S    
C24   H20   S    
C20   C36   S    
C40   C44   S    
C25   H13   S    
C52   N4    S    
C51   N3    S    
C30   Cl11  S    
C7    H45   S    
C51   H39   S    
Cu4   O6    S    
Cu2   O4    S    
C15   Cl3   S    
C17   C35   S    
C49   H37   S    
C44   H32   S    
C8    H46   S    
C25   C39   S    
C6    H44   S    
C6    N2    S    
