data_mof_unit_49879.cif
_audit_creation_date              2012-12-11T16:24:18-0500
_audit_creation_method            fapswitch 2.2
_symmetry_space_group_name_H-M    P1
_symmetry_Int_Tables_number       1
_space_group_crystal_system       triclinic
_cell_length_a                    8.580231
_cell_length_b                    17.505442
_cell_length_c                    17.318619
_cell_angle_alpha                 98.370863
_cell_angle_beta                  96.166025
_cell_angle_gamma                 97.695819
_cell_volume                      2528.92179603

loop_
_atom_site_label
_atom_site_type_symbol
_atom_type_description
_atom_site_fract_x
_atom_site_fract_y
_atom_site_fract_z
_atom_type_partial_charge
Ba1   Ba    Ba6+2 0.160000 0.538340 0.465920 1.802999
Ba2   Ba    Ba6+2 0.650170 0.461650 0.534010 1.740730
C1    C     C_3   0.557835 0.751313 0.216778 -0.263342
C2    C     C_3   0.590171 0.764603 0.307349 0.279600
C3    C     C_3   0.540914 0.708399 0.728708 0.245927
C4    C     C_3   0.557187 0.775476 0.798603 -0.297266
C5    C     C_3   0.856773 0.231073 0.702291 0.256482
C6    C     C_3   0.867310 0.163342 0.750464 -0.148165
C7    C     C_3   0.415979 0.251393 0.744965 0.163995
C8    C     C_3   0.455058 0.192387 0.801393 -0.150500
C9    C     C_2   0.741683 0.733885 0.513712 -0.174284
C10   C     C_3   0.619814 0.788166 0.507665 0.013689
C11   C     C_2   0.689464 0.873438 0.510767 -0.152703
C12   C     C_3   0.079708 0.731519 0.274036 0.313646
C13   C     C_2   0.850172 0.896219 0.526739 0.045620
C14   C     C_2   0.955615 0.835540 0.545681 -0.042913
C15   C     C_1   0.892844 0.760009 0.540545 -0.097199
C16   C     C_R   0.096620 0.144752 0.537929 -0.140766
C17   C     C_R   0.157498 0.224250 0.549935 -0.003367
C18   C     C_R   0.913675 0.252848 0.482820 0.042472
C19   C     C_R   0.855281 0.171640 0.468053 -0.054656
C20   C     C_R   0.943233 0.117126 0.498536 0.023705
C21   C     C_2   0.922489 0.981282 0.533675 -0.017448
C22   C     C_2   0.876156 0.031686 0.485944 -0.025159
C23   C     C_3   0.132318 0.788079 0.218931 -0.251119
C24   C     C_R   0.064432 0.278373 0.525273 -0.295299
C25   C     C_R   0.607610 0.517779 0.276826 -0.275561
C26   C     C_R   0.450835 0.480426 0.251357 0.117354
C27   C     C_R   0.395554 0.465909 0.170943 -0.059580
C28   C     C_R   0.493349 0.489288 0.115946 -0.058492
C29   C     C_R   0.652541 0.526488 0.141276 -0.081821
C30   C     C_R   0.709920 0.541080 0.223430 0.001260
C31   C     C_R   0.418208 0.492188 0.830942 -0.085564
C32   C     C_R   0.368531 0.483482 0.749806 0.000560
C33   C     C_R   0.109816 0.419959 0.769864 0.060797
C34   C     C_3   0.762955 0.301142 0.260502 0.165021
C35   C     C_R   0.160306 0.428514 0.851056 -0.064130
C36   C     C_R   0.316893 0.462167 0.881417 0.007564
C37   C     C_1   0.372978 0.469916 0.964595 0.056162
C38   C     C_1   0.425453 0.477704 0.033594 -0.006218
C39   C     C_R   0.218197 0.443124 0.719241 -0.241291
C40   C     C_3   0.766243 0.237932 0.186660 -0.217667
C41   C     C_3   0.959776 0.661549 0.717656 0.165597
C42   C     C_3   0.962343 0.713301 0.797681 -0.327412
C43   C     C_3   0.241005 0.302199 0.365160 0.263226
C44   C     C_3   0.274145 0.217475 0.354691 -0.256647
H1    H     H_    0.840333 0.648128 0.685419 0.024390
H2    H     H_    0.968559 0.246458 0.680157 -0.103221
H3    H     H_    0.740898 0.151081 0.433126 0.120120
H4    H     H_    0.070713 0.764431 0.332630 0.098652
H5    H     H_    0.275672 0.436221 0.151142 0.100622
O1    O     O_2   0.169780 0.691990 0.551040 -0.404726
O2    O     O_3   0.277216 0.336058 0.299210 -0.627598
O3    O     O_3   0.931282 0.688113 0.241514 -0.591521
O4    O     O_2   0.640500 0.307960 0.448930 -0.437046
O5    O     O_3   0.913680 0.405980 0.454370 -0.508925
O6    O     O_3   0.425430 0.355970 0.589750 -0.530877
O7    O     O_3   0.825791 0.273737 0.328649 -0.638772
O8    O     O_3   0.389690 0.539950 0.593560 -0.395978
O9    O     O_3   0.853010 0.395500 0.630820 -0.469271
O10   O     O_2   0.805782 0.445996 0.774075 -0.468669
O11   O     O_3   0.813756 0.295403 0.750506 -0.597835
O12   O     O_3   0.896620 0.594010 0.545570 -0.429816
O13   O     O_3   0.420600 0.460050 0.406370 -0.459934
O14   O     O_2   0.650040 0.537900 0.687840 -0.491037
O15   O     O_3   0.448709 0.642501 0.746265 -0.640577
O16   O     O_2   0.455226 0.217721 0.518362 -0.458063
O17   O     O_3   0.443576 0.216694 0.668582 -0.609851
O18   O     O_3   0.384860 0.644020 0.410190 -0.392746
O19   O     O_2   0.293956 0.776934 0.456601 -0.425062
O20   O     O_3   0.064226 0.698851 0.674214 -0.656367
O21   O     O_3   0.449501 0.778202 0.338896 -0.613833
O22   O     O_2   0.160250 0.462050 0.312130 -0.464623
O23   O     O_3   0.957280 0.604490 0.369120 -0.501315
O24   O     O_2   0.046853 0.556231 0.227905 -0.404698
P1    P     P_3+3 0.996700 0.679700 0.572930 1.038325
P2    P     P_3+3 0.328720 0.438370 0.322170 1.080900
P3    P     P_3+3 0.913649 0.593789 0.265672 1.041953
P4    P     P_3+3 0.813590 0.320290 0.427010 1.024629
P5    P     P_3+3 0.898617 0.387045 0.730140 1.006458
P6    P     P_3+3 0.443411 0.745841 0.430073 1.116796
P7    P     P_3+3 0.470661 0.550939 0.693028 1.032931
P8    P     P_3+3 0.369253 0.255434 0.584708 0.921382
H6    H     H_    0.636806 0.712531 0.325471 0.056617
C45   C     C_2   0.679994 0.158964 0.195173 0.569640
H7    H     H_    0.568996 0.135169 0.158071 -0.001082
O25   O     O_2   0.732147 0.121907 0.243996 -0.514328
H8    H     H_    0.703525 0.256211 0.134233 0.017455
C46   C     C_2   0.931217 0.229960 0.167802 0.656951
H9    H     H_    0.033138 0.266422 0.203165 0.003151
O26   O     O_2   0.951338 0.184185 0.110743 -0.535188
C47   C     C_2   0.012599 0.586553 0.728749 0.626103
H10   H     H_    0.045768 0.572909 0.786866 -0.118548
O27   O     O_2   0.019783 0.540057 0.670394 -0.572471
H11   H     H_    0.077089 0.714880 0.834732 0.147037
H12   H     H_    0.866319 0.688148 0.828979 0.059546
C48   C     C_2   0.942094 0.795682 0.788937 0.594426
H13   H     H_    0.898913 0.809835 0.732240 -0.066225
O28   O     O_2   0.969636 0.847162 0.846375 -0.493515
H14   H     H_    0.114644 0.303081 0.370675 -0.005550
H15   H     H_    0.312043 0.332804 0.421043 0.084548
C49   C     C_2   0.441783 0.679516 0.181929 0.460345
H16   H     H_    0.410727 0.665838 0.118549 0.036125
O29   O     O_2   0.382023 0.636111 0.223216 -0.582763
C50   C     C_2   0.199343 0.170184 0.277417 0.529906
H17   H     H_    0.240491 0.183975 0.223250 0.026516
O30   O     O_2   0.094827 0.114886 0.274939 -0.510523
H18   H     H_    0.229177 0.188919 0.402564 0.095940
H19   H     H_    0.403839 0.216871 0.359007 0.115797
C51   C     C_2   0.712462 0.836032 0.332070 0.409977
H20   H     H_    0.683852 0.892843 0.322842 0.059265
O31   O     O_2   0.844718 0.830840 0.362176 -0.635608
H21   H     H_    0.670513 0.745713 0.191806 0.113624
H22   H     H_    0.659280 0.697250 0.721565 -0.070486
C52   C     C_2   0.470374 0.731850 0.655073 0.474374
H23   H     H_    0.429603 0.787893 0.655047 -0.072851
O32   O     O_2   0.460982 0.687607 0.593371 -0.574200
H24   H     H_    0.629742 0.760144 0.849666 0.152989
H25   H     H_    0.620968 0.829835 0.783608 0.042722
C53   C     C_2   0.399673 0.791608 0.822046 0.607777
H26   H     H_    0.312794 0.808839 0.780305 -0.016227
O33   O     O_2   0.369130 0.786290 0.888463 -0.533132
H27   H     H_    0.511627 0.802550 0.196898 0.083761
H28   H     H_    0.249206 0.822756 0.243773 0.071613
C54   C     C_2   0.740608 0.207078 0.629618 0.510800
H29   H     H_    0.716191 0.251186 0.594413 0.042579
O34   O     O_2   0.676081 0.139539 0.608395 -0.586435
C55   C     C_2   0.966047 0.104778 0.718078 0.539355
H30   H     H_    0.078750 0.123427 0.698667 -0.013184
O35   O     O_2   0.921482 0.035116 0.715402 -0.571228
H31   H     H_    0.917850 0.187156 0.812311 0.157722
H32   H     H_    0.748013 0.131255 0.752450 0.114301
C56   C     C_2   0.250846 0.267986 0.746256 0.410969
H33   H     H_    0.201786 0.295225 0.699899 -0.124329
O36   O     O_2   0.178184 0.260098 0.802002 -0.617324
C57   C     C_2   0.520785 0.328643 0.770041 0.498241
H34   H     H_    0.540532 0.366690 0.727209 0.041180
O37   O     O_2   0.581934 0.350544 0.838088 -0.596863
H35   H     H_    0.395864 0.132732 0.773629 0.129934
C58   C     C_2   0.414407 0.209003 0.884313 0.585485
H36   H     H_    0.468111 0.262242 0.923461 0.051318
O38   O     O_2   0.321737 0.161758 0.908614 -0.516222
H37   H     H_    0.173079 0.694595 0.282563 0.121679
H38   H     H_    0.583678 0.191718 0.807887 0.069388
H39   H     H_    0.781745 0.010578 0.437630 0.094137
C59   C     C_2   0.123566 0.861523 0.580678 0.569010
H40   H     H_    0.176086 0.833459 0.626589 -0.025539
O39   O     O_2   0.206177 0.913655 0.557679 -0.540035
H41   H     H_    0.173320 0.104575 0.555998 0.123426
H42   H     H_    0.016334 0.003050 0.581589 0.127197
C60   C     C_2   0.579866 0.932343 0.512592 0.489828
H43   H     H_    0.606183 0.984819 0.556427 0.085800
O40   O     O_2   0.463245 0.924464 0.463630 -0.505339
H44   H     H_    0.691545 0.676061 0.521648 0.135686
H45   H     H_    0.115436 0.339304 0.532545 0.066123
H46   H     H_    0.533865 0.524798 0.855083 0.092019
C61   C     C_2   0.753954 0.547428 0.080421 0.538946
H47   H     H_    0.726101 0.516545 0.020436 0.004264
O41   O     O_2   0.866168 0.600170 0.094891 -0.532821
H48   H     H_    0.077863 0.409584 0.890132 0.109968
C62   C     C_2   0.668330 0.530547 0.360325 0.543155
H49   H     H_    0.729995 0.488190 0.385193 0.042788
O42   O     O_2   0.651957 0.589998 0.402059 -0.609125
H50   H     H_    0.180408 0.436206 0.656681 0.093461
H51   H     H_    0.145284 0.753941 0.161196 0.148394
C63   C     C_2   0.016871 0.843896 0.207624 0.595382
H52   H     H_    0.003723 0.888177 0.256224 0.056439
O43   O     O_2   0.939203 0.840785 0.143619 -0.512356
C64   C     C_2   0.596874 0.311453 0.264481 0.355179
H53   H     H_    0.500694 0.284378 0.218676 -0.025762
O44   O     O_2   0.570428 0.354029 0.320812 -0.628855
C65   C     C_2   0.853598 0.379097 0.253120 0.410621
H54   H     H_    0.878597 0.424477 0.303981 0.010391
O45   O     O_2   0.893175 0.393392 0.190393 -0.615888

loop_
_geom_bond_atom_site_label_1
_geom_bond_atom_site_label_2
_ccdc_geom_bond_type
O16   P8    D    
C61   H47   S    
C3    H22   S    
Ba1   P2    S    
C64   H53   S    
C4    H25   S    
C34   C40   S    
O8    P7    S    
Ba2   O14   S    
C55   H30   S    
C19   H3    S    
C62   H49   S    
C31   H46   S    
C5    C6    S    
C45   H7    S    
C65   H54   S    
C10   C11   S    
C50   O30   D    
C34   C64   S    
C35   C36   A    
O5    P4    S    
Ba1   O23   S    
C35   H48   S    
O11   P5    S    
C26   C27   A    
C33   C35   A    
Ba1   O5    S    
C58   O38   D    
C16   C17   A    
C34   O7    S    
Ba2   O4    S    
Ba1   O8    S    
C3    C4    S    
Ba2   O9    S    
O12   P1    S    
O10   P5    D    
C52   H23   S    
C44   C50   S    
C33   P5    S    
C14   C59   S    
Ba1   Ba2   S    
O13   P2    S    
C17   C24   A    
O19   P6    D    
C51   H20   S    
Ba2   P4    S    
C9    H44   S    
C48   O28   D    
C6    C55   S    
O9    P5    S    
C1    H27   S    
C14   C15   D    
C52   O32   D    
C44   H18   S    
C6    H32   S    
C15   P1    S    
C21   C22   D    
O6    P8    S    
C46   O26   D    
C16   H41   S    
C7    C8    S    
O21   P6    S    
C13   C21   S    
C43   O2    S    
C61   O41   D    
C19   C20   A    
C3    C52   S    
C63   O43   D    
C64   O44   D    
C24   H45   S    
C32   C39   A    
C8    C58   S    
C17   P8    S    
Ba1   O12   S    
C4    C53   S    
C62   O42   D    
C65   O45   D    
C48   H13   S    
C59   O39   D    
C45   O25   D    
C36   C37   S    
Ba2   O6    S    
C34   C65   S    
C58   H36   S    
Ba2   O13   S    
C57   O37   D    
C1    H21   S    
C37   C38   T    
Ba2   O8    S    
C3    O15   S    
C23   H51   S    
O24   P3    D    
C43   C44   S    
Ba1   O18   S    
O2    P2    S    
C41   C42   S    
C5    O11   S    
C27   C28   A    
C42   H12   S    
O15   P7    S    
C56   H33   S    
O4    P4    D    
C42   C48   S    
C29   C30   A    
C2    H6    S    
C28   C29   A    
C60   H43   S    
C6    H31   S    
C47   O27   D    
C31   C32   A    
C28   C38   S    
C40   C45   S    
C8    H38   S    
C5    C54   S    
C49   O29   D    
C26   P2    S    
C11   C60   S    
C29   C61   S    
C43   H15   S    
O7    P4    S    
C1    C49   S    
C12   O3    S    
C21   H42   S    
C11   C13   D    
C54   H29   S    
C20   C22   S    
C39   H50   S    
C40   H8    S    
C8    H35   S    
C1    C2    S    
Ba1   O13   S    
O20   P1    S    
C2    O21   S    
Ba2   O12   S    
C53   O33   D    
C56   O36   D    
C59   H40   S    
C27   H5    S    
C2    C51   S    
C12   H37   S    
C9    C15   D    
C41   O20   S    
C18   P4    S    
C25   C30   A    
C16   C20   A    
O17   P8    S    
C31   C36   A    
C57   H34   S    
O1    P1    D    
C43   H14   S    
C55   O35   D    
C9    C10   S    
C23   C63   S    
C50   H17   S    
C41   C47   S    
Ba1   O1    S    
C22   H39   S    
C40   C46   S    
Ba1   O22   S    
C5    H2    S    
C7    O17   S    
C42   H11   S    
Ba2   O5    S    
C25   C62   S    
O14   P7    D    
C12   H4    S    
C63   H52   S    
C18   C24   A    
C47   H10   S    
Ba1   P1    S    
C10   P6    S    
C60   O40   D    
C12   C23   S    
C49   H16   S    
C33   C39   A    
C23   H28   S    
C51   O31   D    
O18   P6    S    
C30   P3    S    
C7    C57   S    
C18   C19   A    
O23   P3    S    
C44   H19   S    
C25   C26   A    
C54   O34   D    
O22   P2    D    
C53   H26   S    
C32   P7    S    
C46   H9    S    
C41   H1    S    
C4    H24   S    
C13   C14   S    
O3    P3    S    
C7    C56   S    
