data_mof_unit_9592.cif
_audit_creation_date              2012-12-11T14:54:23-0500
_audit_creation_method            fapswitch 2.2
_symmetry_space_group_name_H-M    P1
_symmetry_Int_Tables_number       1
_space_group_crystal_system       triclinic
_cell_length_a                    18.975254
_cell_length_b                    10.931313
_cell_length_c                    18.842538
_cell_angle_alpha                 90.138844
_cell_angle_beta                  90.261745
_cell_angle_gamma                 90.026607
_cell_volume                      3908.35020616

loop_
_atom_site_label
_atom_site_type_symbol
_atom_type_description
_atom_site_fract_x
_atom_site_fract_y
_atom_site_fract_z
_atom_type_partial_charge
C1    C     C_R   0.727576 0.371372 0.643572 0.545266
C2    C     C_R   0.269451 0.377381 0.353731 0.541222
C3    C     C_R   0.227576 0.871372 0.643572 0.545266
C4    C     C_R   0.769451 0.877381 0.353731 0.541222
C5    C     C_3   0.437686 0.358921 0.469548 -0.246031
C6    C     C_3   0.450361 0.355929 0.548994 -0.282999
C7    C     C_3   0.937686 0.858922 0.469548 -0.246031
C8    C     C_3   0.950361 0.855929 0.548994 -0.282999
C9    C     C_R   0.704061 0.856011 0.538830 -0.154592
C10   C     C_R   0.308442 0.882680 0.462893 -0.141807
C11   C     C_R   0.204061 0.356011 0.538830 -0.154592
C12   C     C_R   0.808442 0.382680 0.462893 -0.141807
C13   C     C_R   0.706219 0.839994 0.465736 -0.142150
C14   C     C_R   0.302808 0.870503 0.536050 -0.152471
C15   C     C_R   0.206219 0.339994 0.465736 -0.142150
C16   C     C_R   0.802808 0.370503 0.536050 -0.152471
C17   C     C_R   0.748727 0.916877 0.424033 0.021986
C18   C     C_R   0.238240 0.894253 0.568680 0.033986
C19   C     C_R   0.248727 0.416877 0.424033 0.021986
C20   C     C_R   0.738240 0.394253 0.568680 0.033986
C21   C     C_R   0.784231 0.015285 0.454969 -0.142327
C22   C     C_R   0.178606 0.922573 0.527314 -0.128150
C23   C     C_R   0.284231 0.515285 0.454969 -0.142327
C24   C     C_R   0.678606 0.422573 0.527314 -0.128150
C25   C     C_R   0.783173 0.029618 0.527576 -0.125387
C26   C     C_R   0.183803 0.931984 0.454834 -0.137501
C27   C     C_R   0.283172 0.529618 0.527576 -0.125387
C28   C     C_R   0.683803 0.431984 0.454834 -0.137501
C29   C     C_R   0.744708 0.948164 0.570135 0.029850
C30   C     C_R   0.249249 0.917787 0.422495 0.028444
C31   C     C_R   0.244708 0.448164 0.570135 0.029850
C32   C     C_R   0.749249 0.417787 0.422495 0.028444
C33   C     C_R   0.471667 0.068543 0.954589 -0.201039
C34   C     C_R   0.463041 0.064573 0.026907 -0.195276
C35   C     C_R   0.971667 0.568544 0.954589 -0.201039
C36   C     C_R   0.963041 0.564573 0.026907 -0.195276
C37   C     C_R   0.482507 0.164387 0.069765 0.003968
C38   C     C_R   0.499572 0.172835 0.923005 -0.023550
C39   C     C_R   0.982507 0.664387 0.069765 0.003968
C40   C     C_R   0.999572 0.672835 0.923005 -0.023550
C41   C     C_R   0.505768 0.274016 0.038568 0.271952
C42   C     C_R   0.510999 0.280657 0.964163 0.264210
C43   C     C_R   0.005768 0.774016 0.038568 0.271952
C44   C     C_R   0.010999 0.780657 0.964163 0.264210
C45   C     C_R   0.537516 0.154042 0.643383 0.544161
C46   C     C_R   0.468607 0.155706 0.353083 0.550382
C47   C     C_R   0.037517 0.654042 0.643383 0.544161
C48   C     C_R   0.968607 0.655706 0.353083 0.550382
C49   C     C_R   0.792447 0.018052 0.972734 -0.139106
C50   C     C_R   0.208976 0.020584 0.027347 -0.092475
C51   C     C_R   0.292447 0.518052 0.972734 -0.139106
C52   C     C_R   0.708976 0.520583 0.027347 -0.092475
C53   C     C_R   0.792479 0.008760 0.045468 -0.141387
C54   C     C_R   0.207746 0.009074 0.954767 -0.104094
C55   C     C_R   0.292479 0.508760 0.045468 -0.141388
C56   C     C_R   0.707746 0.509074 0.954767 -0.104094
C57   C     C_R   0.748991 0.923171 0.078336 0.036498
C58   C     C_R   0.250457 0.921991 0.922018 0.033718
C59   C     C_R   0.248991 0.423171 0.078336 0.036498
C60   C     C_R   0.750457 0.421992 0.922018 0.033718
C61   C     C_R   0.698159 0.859453 0.038364 -0.132719
C62   C     C_R   0.300078 0.856114 0.962143 -0.140079
C63   C     C_R   0.198159 0.359453 0.038364 -0.132719
C64   C     C_R   0.800078 0.356114 0.962143 -0.140079
C65   C     C_R   0.696433 0.871887 0.964900 -0.136252
C66   C     C_R   0.301470 0.868368 0.035563 -0.147023
C67   C     C_R   0.196433 0.371887 0.964900 -0.136252
C68   C     C_R   0.801470 0.368368 0.035563 -0.147023
C69   C     C_R   0.745556 0.948147 0.931570 0.033645
C70   C     C_R   0.254224 0.948154 0.068582 0.050069
C71   C     C_R   0.245556 0.448146 0.931570 0.033645
C72   C     C_R   0.754224 0.448154 0.068582 0.050069
C73   C     C_R   0.739884 0.974994 0.645226 0.544620
C74   C     C_R   0.258598 0.968020 0.352115 0.550499
C75   C     C_R   0.239884 0.474994 0.645226 0.544620
C76   C     C_R   0.758598 0.468020 0.352115 0.550499
C77   C     C_R   0.730479 0.379792 0.851810 0.559035
C78   C     C_R   0.269370 0.380016 0.148292 0.545667
C79   C     C_R   0.230479 0.879792 0.851810 0.559035
C80   C     C_R   0.769370 0.880016 0.148292 0.545666
C81   C     C_R   0.531480 0.158394 0.853036 0.561605
C82   C     C_R   0.465252 0.156771 0.144927 0.578723
C83   C     C_R   0.031480 0.658394 0.853036 0.561604
C84   C     C_R   0.965252 0.656771 0.144927 0.578723
C85   C     C_R   0.739999 0.976394 0.856467 0.549439
C86   C     C_R   0.259954 0.976265 0.143608 0.555583
C87   C     C_R   0.239999 0.476394 0.856467 0.549439
C88   C     C_R   0.759954 0.476265 0.143608 0.555583
C89   C     C_R   0.505431 0.166951 0.420409 0.017942
C90   C     C_R   0.524851 0.159009 0.567603 0.025138
C91   C     C_R   0.005431 0.666951 0.420409 0.017942
C92   C     C_R   0.024851 0.659009 0.567603 0.025138
C93   C     C_R   0.498479 0.272999 0.461825 0.005323
C94   C     C_R   0.509194 0.269362 0.534358 0.006328
C95   C     C_R   0.998479 0.772999 0.461825 0.005323
C96   C     C_R   0.009194 0.769362 0.534358 0.006328
C97   C     C_R   0.543936 0.058112 0.525040 -0.145946
C98   C     C_R   0.534936 0.062455 0.451738 -0.153937
C99   C     C_R   0.043936 0.558112 0.525040 -0.145946
C100  C     C_R   0.034936 0.562455 0.451738 -0.153937
Cr1   Cr    Cr6+3 0.771950 0.169480 0.750100 0.988335
Cr2   Cr    Cr6+3 0.228050 0.169480 0.249900 1.010447
Cr3   Cr    Cr6+3 0.271950 0.669480 0.750100 0.988335
Cr4   Cr    Cr6+3 0.728050 0.669480 0.249900 1.010447
Cr5   Cr    Cr6+3 0.614930 0.323340 0.749170 1.010872
Cr6   Cr    Cr6+3 0.385070 0.323340 0.250830 1.003440
Cr7   Cr    Cr6+3 0.114930 0.823340 0.749170 1.010872
Cr8   Cr    Cr6+3 0.885070 0.823340 0.250830 1.003440
Cr9   Cr    Cr6+3 0.616590 0.010620 0.750610 1.007709
Cr10  Cr    Cr6+3 0.383410 0.010620 0.249390 1.006332
Cr11  Cr    Cr6+3 0.116590 0.510620 0.750610 1.007709
Cr12  Cr    Cr6+3 0.883410 0.510620 0.249390 1.006332
H1    H     H_    0.563270 0.974082 0.548378 0.143858
H2    H     H_    0.544323 0.980240 0.420975 0.134852
H3    H     H_    0.063270 0.474082 0.548378 0.143858
H4    H     H_    0.044323 0.480240 0.420975 0.134852
H5    H     H_    0.828835 0.081733 0.948973 0.115515
H6    H     H_    0.174949 0.087992 0.051022 0.118480
H7    H     H_    0.328835 0.581733 0.948973 0.115515
H8    H     H_    0.674949 0.587992 0.051022 0.118480
H9    H     H_    0.830093 0.062632 0.075587 0.117435
H10   H     H_    0.170210 0.063185 0.924828 0.125258
H11   H     H_    0.330093 0.562632 0.075587 0.117435
H12   H     H_    0.670210 0.563185 0.924828 0.125258
H13   H     H_    0.662225 0.796206 0.063399 0.115412
H14   H     H_    0.335016 0.790984 0.937297 0.111018
H15   H     H_    0.162225 0.296206 0.063399 0.115411
H16   H     H_    0.835016 0.290984 0.937297 0.111018
H17   H     H_    0.657466 0.821631 0.934366 0.114071
H18   H     H_    0.338788 0.815747 0.066436 0.113533
H19   H     H_    0.157466 0.321631 0.934366 0.114071
H20   H     H_    0.838789 0.315747 0.066436 0.113533
H21   H     H_    0.886856 0.815915 0.453995 0.167454
H22   H     H_    0.969588 0.944528 0.570755 0.134287
H23   H     H_    0.386856 0.315915 0.453995 0.167454
H24   H     H_    0.469588 0.444528 0.570755 0.134287
H25   H     H_    0.448382 0.449787 0.445526 0.138509
H26   H     H_    0.406505 0.313132 0.579058 0.140903
H27   H     H_    0.948381 0.949787 0.445526 0.138509
H28   H     H_    0.906505 0.813132 0.579058 0.140903
H29   H     H_    0.672128 0.795459 0.570824 0.118768
H30   H     H_    0.359738 0.871559 0.438733 0.134783
H31   H     H_    0.172128 0.295459 0.570824 0.118768
H32   H     H_    0.859738 0.371559 0.438733 0.134783
H33   H     H_    0.678317 0.762997 0.442660 0.138377
H34   H     H_    0.348653 0.844618 0.567007 0.118301
H35   H     H_    0.178317 0.262997 0.442660 0.138377
H36   H     H_    0.848653 0.344618 0.567007 0.118301
H37   H     H_    0.816691 0.076084 0.423625 0.127499
H38   H     H_    0.127220 0.936707 0.550720 0.141739
H39   H     H_    0.316691 0.576084 0.423625 0.127499
H40   H     H_    0.627220 0.436707 0.550720 0.141739
H41   H     H_    0.812623 0.105098 0.550305 0.140779
H42   H     H_    0.137369 0.957770 0.424683 0.131434
H43   H     H_    0.312623 0.605098 0.550305 0.140779
H44   H     H_    0.637369 0.457770 0.424683 0.131434
H45   H     H_    0.460265 0.986899 0.923833 0.147145
H46   H     H_    0.441493 0.981584 0.049318 0.155745
H47   H     H_    0.960265 0.486898 0.923833 0.147145
H48   H     H_    0.941493 0.481584 0.049318 0.155744
O1    O     O_R   0.787510 0.042610 0.670410 -0.533737
O2    O     O_R   0.212490 0.042610 0.329590 -0.523081
O3    O     O_R   0.287510 0.542610 0.670410 -0.533737
O4    O     O_R   0.712490 0.542610 0.329590 -0.523081
O5    O     O_R   0.556450 0.252890 0.823790 -0.466892
O6    O     O_R   0.443550 0.252890 0.176210 -0.491170
O7    O     O_R   0.056450 0.752890 0.823790 -0.466892
O8    O     O_R   0.943550 0.752890 0.176210 -0.491170
O9    O     O_R   0.545750 0.051070 0.830560 -0.524779
O10   O     O_R   0.454250 0.051070 0.169440 -0.531768
O11   O     O_R   0.045750 0.551070 0.830560 -0.524779
O12   O     O_R   0.954250 0.551070 0.169440 -0.531768
O13   O     O_R   0.681210 0.959150 0.825320 -0.499186
O14   O     O_R   0.318790 0.959150 0.174680 -0.513486
O15   O     O_R   0.181210 0.459150 0.825320 -0.499186
O16   O     O_R   0.818790 0.459150 0.174680 -0.513486
O17   O     O_3   0.667820 0.167810 0.749960 -0.245239
O18   O     O_3   0.332180 0.167810 0.250040 -0.248450
O19   O     O_3   0.167820 0.667810 0.749960 -0.245239
O20   O     O_3   0.832180 0.667810 0.250040 -0.248450
O21   O     O_R   0.765670 0.292090 0.675090 -0.508219
O22   O     O_R   0.234330 0.292090 0.324910 -0.504853
O23   O     O_R   0.265670 0.792090 0.675090 -0.508219
O24   O     O_R   0.734330 0.792090 0.324910 -0.504853
O25   O     O_R   0.670220 0.409020 0.668560 -0.536635
O26   O     O_R   0.329780 0.409020 0.331440 -0.531881
O27   O     O_R   0.170220 0.909020 0.668560 -0.536635
O28   O     O_R   0.829780 0.909020 0.331440 -0.531881
O29   O     O_R   0.556580 0.251590 0.674980 -0.509347
O30   O     O_R   0.443420 0.251590 0.325020 -0.500834
O31   O     O_R   0.056580 0.751590 0.674980 -0.509347
O32   O     O_R   0.943420 0.751590 0.325020 -0.500834
O33   O     O_R   0.545890 0.049670 0.670030 -0.531043
O34   O     O_R   0.454110 0.049670 0.329970 -0.524425
O35   O     O_R   0.045890 0.549670 0.670030 -0.531043
O36   O     O_R   0.954110 0.549670 0.329970 -0.524425
O37   O     O_R   0.681340 0.957860 0.676500 -0.506275
O38   O     O_R   0.318660 0.957860 0.323500 -0.506065
O39   O     O_R   0.181340 0.457860 0.676500 -0.506275
O40   O     O_R   0.818660 0.457860 0.323500 -0.506065
O41   O     O_R   0.787380 0.044010 0.830940 -0.540769
O42   O     O_R   0.212620 0.044010 0.169060 -0.521295
O43   O     O_R   0.287380 0.544010 0.830940 -0.540769
O44   O     O_R   0.712620 0.544010 0.169060 -0.521295
O45   O     O_R   0.765540 0.293390 0.823910 -0.510632
O46   O     O_R   0.234460 0.293390 0.176090 -0.508771
O47   O     O_R   0.265540 0.793390 0.823910 -0.510632
O48   O     O_R   0.734460 0.793390 0.176090 -0.508771
O49   O     O_R   0.670090 0.410410 0.829090 -0.507471
O50   O     O_R   0.329910 0.410410 0.170910 -0.545486
O51   O     O_R   0.170090 0.910410 0.829090 -0.507471
O52   O     O_R   0.829910 0.910410 0.170910 -0.545486
O53   O     O_3   0.533424 0.366588 0.080910 -0.544297
C101  C     C_3   0.485956 0.466108 0.086210 0.057644
H49   H     H_    0.467185 0.472140 0.141804 0.172230
H50   H     H_    0.438225 0.457032 0.052169 0.109223
C102  C     C_3   0.524873 0.585118 0.069697 -0.267587
H51   H     H_    0.564652 0.602737 0.111973 0.168204
H52   H     H_    0.552668 0.576479 0.018360 0.197285
C103  C     C_3   0.474819 0.693817 0.065527 -0.505566
H53   H     H_    0.436901 0.681079 0.021051 0.129186
H54   H     H_    0.505549 0.778530 0.055772 0.152477
H55   H     H_    0.445626 0.704274 0.116138 0.149116
O54   O     O_3   0.537107 0.386859 0.934012 -0.531117
C104  C     C_3   0.481825 0.448387 0.897985 0.020425
H56   H     H_    0.443001 0.484304 0.936432 0.109916
H57   H     H_    0.453426 0.387246 0.860054 0.129423
C105  C     C_3   0.512375 0.556120 0.856545 -0.258600
H58   H     H_    0.542410 0.616923 0.893058 0.146237
H59   H     H_    0.548934 0.521258 0.815377 0.193892
C106  C     C_3   0.454660 0.630750 0.820334 -0.461638
H60   H     H_    0.424715 0.572658 0.782290 0.167536
H61   H     H_    0.478803 0.707692 0.790717 0.131825
H62   H     H_    0.418098 0.669139 0.860439 0.150729
O55   O     O_3   0.033424 0.866588 0.080910 -0.544297
C107  C     C_3   0.985956 0.966108 0.086209 0.057644
H63   H     H_    0.967185 0.972140 0.141804 0.172230
H64   H     H_    0.938225 0.957032 0.052169 0.109223
C108  C     C_3   0.024873 0.085118 0.069697 -0.267587
H65   H     H_    0.064652 0.102737 0.111973 0.168204
H66   H     H_    0.052668 0.076479 0.018360 0.197284
C109  C     C_3   0.974819 0.193817 0.065527 -0.505566
H67   H     H_    0.936902 0.181079 0.021051 0.129186
H68   H     H_    0.005549 0.278530 0.055772 0.152476
H69   H     H_    0.945626 0.204274 0.116138 0.149116
O56   O     O_3   0.037106 0.886859 0.934012 -0.531118
C110  C     C_3   0.981825 0.948387 0.897985 0.020426
H70   H     H_    0.943001 0.984304 0.936431 0.109915
H71   H     H_    0.953426 0.887246 0.860054 0.129423
C111  C     C_3   0.012375 0.056121 0.856545 -0.258601
H72   H     H_    0.042409 0.116923 0.893059 0.146237
H73   H     H_    0.048934 0.021259 0.815377 0.193893
C112  C     C_3   0.954660 0.130750 0.820334 -0.461638
H74   H     H_    0.924716 0.072657 0.782290 0.167535
H75   H     H_    0.978803 0.207692 0.790717 0.131825
H76   H     H_    0.918098 0.169138 0.860439 0.150730

loop_
_geom_bond_atom_site_label_1
_geom_bond_atom_site_label_2
_ccdc_geom_bond_type
C8    H28   S    
C58   C62   A    
Cr11  O19   S    
C82   O10   A    
C93   C94   A    
C48   O36   A    
C55   C59   A    
C103  H55   S    
Cr10  O38   S    
C34   C37   A    
C41   C42   A    
C14   C18   A    
Cr9   O37   S    
C95   C96   A    
C8    C96   S    
C100  H4    S    
C13   H33   S    
O54   C104  S    
C22   H38   S    
C97   C98   A    
Cr2   O42   S    
C103  H53   S    
C7    C8    S    
C46   C89   S    
C58   C79   S    
O53   C101  S    
C65   C69   A    
C102  C103  S    
C79   O51   A    
C50   C54   A    
C37   C41   A    
Cr11  O15   S    
C5    C6    S    
C64   C68   A    
C47   O35   A    
C108  H65   S    
Cr3   O47   S    
C39   C84   S    
C38   C42   A    
C10   H30   S    
C112  H74   S    
C30   C74   S    
C101  H50   S    
C98   H2    S    
Cr3   O19   S    
Cr7   O51   S    
Cr10  O18   S    
C111  H73   S    
C2    O26   A    
Cr6   O50   S    
Cr7   O27   S    
C92   C96   A    
C104  C105  S    
Cr5   O49   S    
C107  H63   S    
Cr8   O20   S    
C3    C18   S    
C75   O3    A    
C2    O22   A    
Cr5   O25   S    
Cr8   O52   S    
C68   H20   S    
C9    C13   A    
Cr12  O36   S    
C6    H24   S    
C75   O39   A    
C24   H40   S    
Cr11  O39   S    
C11   C15   A    
C49   H5    S    
C12   C16   A    
C33   H45   S    
C6    C94   S    
C48   C91   S    
C83   O11   A    
Cr10  O34   S    
C51   H7    S    
O55   C107  S    
Cr9   O33   S    
C12   H32   S    
Cr4   O48   S    
C23   C27   A    
C91   C100  A    
C108  C109  S    
Cr3   O43   S    
C78   O50   A    
C90   C97   A    
C67   C71   A    
Cr9   O17   S    
C77   O49   A    
C80   O52   A    
Cr7   O19   S    
C5    C93   S    
C111  C112  S    
C110  H71   S    
C54   H10   S    
C11   C31   A    
C49   C69   A    
C12   C32   A    
C25   C29   A    
C40   C83   S    
C87   O15   A    
C103  H54   S    
Cr12  O12   S    
C51   C71   A    
C46   O30   A    
C47   C92   S    
C42   O54   S    
C59   C78   S    
C87   O43   A    
C105  H58   S    
C72   C88   S    
Cr9   O9    S    
C60   C64   A    
C90   C94   A    
C55   H11   S    
Cr10  O14   S    
C27   H43   S    
C43   O55   S    
Cr7   O7    S    
C60   C77   S    
C109  H69   S    
C62   C66   A    
C107  H64   S    
C27   C31   A    
Cr2   O22   S    
Cr5   O29   S    
C28   C32   A    
C33   C34   A    
Cr6   O26   S    
C106  H61   S    
C10   C14   A    
C109  H68   S    
C74   O2    A    
C53   C57   A    
C101  H49   S    
C39   C43   A    
C51   C55   A    
C64   H16   S    
C111  H72   S    
C86   O42   A    
C83   O7    A    
C73   O1    A    
C88   O44   A    
C74   O38   A    
C56   C60   A    
C46   O34   A    
C73   O37   A    
C68   C72   A    
C86   O14   A    
C35   C36   A    
C53   H9    S    
C6    H26   S    
C15   C19   A    
C43   C44   A    
C78   O46   A    
C63   C67   A    
C32   C76   S    
C84   O8    A    
C69   C85   S    
C77   O45   A    
C41   O53   S    
C10   C30   A    
C85   O13   A    
C99   C100  A    
C8    H22   S    
C16   C20   A    
C52   C72   A    
C54   C58   A    
C104  H56   S    
Cr8   O8    S    
C108  H66   S    
C4    O24   A    
C57   C61   A    
C45   C90   S    
Cr2   O46   S    
Cr1   O45   S    
C85   O41   A    
C71   C87   S    
C4    C17   S    
C52   H8    S    
Cr4   O44   S    
C45   O29   A    
C62   H14   S    
Cr12  O16   S    
C57   C80   S    
C26   C30   A    
C21   H37   S    
C38   C81   S    
C76   O40   A    
C105  H59   S    
Cr2   O18   S    
Cr3   O23   S    
C37   C82   S    
C76   O4    A    
Cr6   O30   S    
C97   H1    S    
C70   C86   S    
C56   H12   S    
C31   C75   S    
Cr1   O21   S    
Cr2   O2    S    
C19   C23   A    
C112  H75   S    
C82   O6    A    
C110  C111  S    
C5    H23   S    
C21   C25   A    
O56   C110  S    
C1    C20   S    
C1    O21   A    
C34   H46   S    
Cr4   O24   S    
C2    C19   S    
C50   H6    S    
C59   C63   A    
Cr8   O28   S    
C36   C39   A    
C67   H19   S    
Cr4   O20   S    
C24   C28   A    
Cr5   O17   S    
C84   O12   A    
C101  C102  S    
C3    O27   A    
Cr4   O4    S    
C112  H76   S    
C65   H17   S    
C110  H70   S    
C47   O31   A    
C7    H21   S    
C9    C29   A    
Cr1   O17   S    
C102  H52   S    
Cr12  O40   S    
C7    C95   S    
C14   H34   S    
Cr3   O3    S    
C81   O9    A    
C88   O16   A    
C107  C108  S    
Cr12  O20   S    
C89   C98   A    
C16   H36   S    
C1    O25   A    
C4    O28   A    
C18   C22   A    
C35   C40   A    
C102  H51   S    
C5    H25   S    
C25   H41   S    
Cr1   O41   S    
C7    H27   S    
C26   H42   S    
C66   C70   A    
C11   H31   S    
Cr6   O6    S    
C79   O47   A    
C109  H67   S    
C99   H3    S    
Cr1   O1    S    
C104  H57   S    
Cr5   O5    S    
C106  H62   S    
Cr9   O13   S    
C45   O33   A    
C80   O48   A    
C89   C93   A    
C20   C24   A    
C35   H47   S    
C50   C70   A    
C48   O32   A    
C49   C53   A    
C9    H29   S    
C36   H48   S    
C23   H39   S    
C13   C17   A    
C61   C65   A    
C40   C44   A    
C29   C73   S    
C44   O56   S    
Cr10  O10   S    
C91   C95   A    
C22   C26   A    
Cr7   O31   S    
C106  H60   S    
C28   H44   S    
C15   H35   S    
C81   O5    A    
Cr8   O32   S    
C33   C38   A    
C61   H13   S    
C3    O23   A    
Cr6   O18   S    
C105  C106  S    
C63   H15   S    
C52   C56   A    
C92   C99   A    
Cr11  O35   S    
C66   H18   S    
Cr11  O11   S    
C17   C21   A    
