data_mof_unit_35778.cif
_audit_creation_date              2013-03-05T15:44:04-0500
_audit_creation_method            fapswitch 2.2
_symmetry_space_group_name_H-M    P1
_symmetry_Int_Tables_number       1
_space_group_crystal_system       triclinic
_cell_length_a                    6.946991
_cell_length_b                    17.775089
_cell_length_c                    18.939864
_cell_angle_alpha                 89.952524
_cell_angle_beta                  90.0
_cell_angle_gamma                 90.00005
_cell_volume                      2338.7576832

loop_
_atom_site_label
_atom_site_type_symbol
_atom_site_description
_atom_site_fract_x
_atom_site_fract_y
_atom_site_fract_z
_atom_type_partial_charge
O1    O     O_R   0.377350 0.828520 0.186660 -0.556529
O2    O     O_R   0.622650 0.171480 0.813340 -0.556529
O3    O     O_R   0.122650 0.171480 0.686660 -0.558098
O4    O     O_R   0.877350 0.828520 0.313340 -0.558098
O5    O     O_R   0.877350 0.671480 0.313340 -0.556530
O6    O     O_R   0.122650 0.328520 0.686660 -0.556530
O7    O     O_R   0.622650 0.328520 0.813340 -0.558098
O8    O     O_R   0.377350 0.671480 0.186660 -0.558098
O9    O     O_R   0.707090 0.671930 0.178410 -0.556573
O10   O     O_R   0.292910 0.328070 0.821590 -0.556573
O11   O     O_R   0.792910 0.328070 0.678410 -0.551228
O12   O     O_R   0.207090 0.671930 0.321590 -0.551227
O13   O     O_R   0.207090 0.828070 0.321590 -0.556573
O14   O     O_R   0.792910 0.171930 0.678410 -0.556573
O15   O     O_R   0.292910 0.171930 0.821590 -0.551228
O16   O     O_R   0.707090 0.828070 0.178410 -0.551228
C1    C     C_R   0.539675 0.645644 0.161514 0.847273
C2    C     C_R   0.460325 0.354356 0.838486 0.847273
C3    C     C_R   0.960565 0.354271 0.661484 0.845521
C4    C     C_R   0.039435 0.645729 0.338516 0.845521
C5    C     C_R   0.039675 0.854356 0.338486 0.847274
C6    C     C_R   0.960325 0.145644 0.661514 0.847274
C7    C     C_R   0.460565 0.145729 0.838516 0.845521
C8    C     C_R   0.539435 0.854271 0.161484 0.845521
O17   O     O_3   0.543850 0.750000 0.294270 -0.266816
O18   O     O_3   0.456150 0.250000 0.705730 -0.266816
O19   O     O_3   0.956150 0.250000 0.794270 -0.266815
O20   O     O_3   0.043850 0.750000 0.205730 -0.266815
V1    V     V_3+5 0.818700 0.750000 0.241790 1.189430
V2    V     V_3+5 0.181300 0.250000 0.758210 1.189430
V3    V     V_3+5 0.681300 0.250000 0.741790 1.189429
V4    V     V_3+5 0.318700 0.750000 0.258210 1.189430
C9    C     C_R   0.960532 0.416451 0.608957 -0.161698
C10   C     C_R   0.039467 0.583549 0.391043 -0.161698
C11   C     C_R   0.541760 0.583892 0.108474 -0.165818
C12   C     C_R   0.458240 0.416108 0.891526 -0.165817
C13   C     C_R   0.460531 0.083549 0.891043 -0.161700
C14   C     C_R   0.539468 0.916451 0.108957 -0.161700
C15   C     C_R   0.041760 0.916108 0.391526 -0.165816
C16   C     C_R   0.958240 0.083892 0.608474 -0.165817
C17   C     C_R   0.205762 0.474186 0.440812 0.406075
C18   C     C_R   0.794235 0.525813 0.559187 0.406074
C19   C     C_R   0.283460 0.521576 0.944760 0.397906
C20   C     C_R   0.716540 0.478424 0.055239 0.397906
C21   C     C_R   0.705767 0.025812 0.059186 0.406078
C22   C     C_R   0.294233 0.974188 0.940814 0.406078
C23   C     C_R   0.783460 0.978424 0.555240 0.397901
C24   C     C_R   0.216539 0.021576 0.444760 0.397903
C25   C     C_R   0.184754 0.528915 0.387943 -0.069974
C26   C     C_R   0.815244 0.471084 0.612056 -0.069977
C27   C     C_R   0.301505 0.465934 0.892737 -0.087677
C28   C     C_R   0.698496 0.534066 0.107263 -0.087677
C29   C     C_R   0.684758 0.971084 0.112055 -0.069972
C30   C     C_R   0.315241 0.028916 0.887945 -0.069972
C31   C     C_R   0.801504 0.034066 0.607263 -0.087677
C32   C     C_R   0.198495 0.965934 0.392736 -0.087676
C33   C     C_R   0.910044 0.582377 0.447701 -0.052284
C34   C     C_R   0.089956 0.417624 0.552300 -0.052285
C35   C     C_R   0.599528 0.422258 0.943921 -0.035096
C36   C     C_R   0.400472 0.577741 0.056079 -0.035094
C37   C     C_R   0.410044 0.917624 0.052300 -0.052281
C38   C     C_R   0.589956 0.082376 0.947700 -0.052281
C39   C     C_R   0.099527 0.077742 0.556078 -0.035095
C40   C     C_R   0.900472 0.922258 0.443921 -0.035098
C41   C     C_R   0.924408 0.527149 0.501476 -0.016804
C42   C     C_R   0.075591 0.472851 0.498524 -0.016804
C43   C     C_R   0.579706 0.474679 0.999850 -0.005729
C44   C     C_R   0.420294 0.525320 0.000150 -0.005728
C45   C     C_R   0.424408 0.972851 0.998524 -0.016805
C46   C     C_R   0.575592 0.027149 0.001476 -0.016805
C47   C     C_R   0.079705 0.025321 0.500150 -0.005727
C48   C     C_R   0.920294 0.974679 0.499850 -0.005730
H1    H     H_    0.195609 0.373114 0.549291 0.149982
H2    H     H_    0.804392 0.626886 0.450709 0.149983
H3    H     H_    0.278447 0.615365 0.058636 0.145348
H4    H     H_    0.721553 0.384635 0.941364 0.145348
H5    H     H_    0.695607 0.126886 0.950709 0.149984
H6    H     H_    0.304393 0.873114 0.049291 0.149984
H7    H     H_    0.778447 0.884634 0.441364 0.145348
H8    H     H_    0.221553 0.115365 0.558636 0.145348
H9    H     H_    0.712798 0.469785 0.655211 0.118725
H10   H     H_    0.287199 0.530213 0.344788 0.118723
H11   H     H_    0.806634 0.537400 0.148394 0.124371
H12   H     H_    0.193366 0.462600 0.851606 0.124370
H13   H     H_    0.212795 0.030216 0.844789 0.118729
H14   H     H_    0.787205 0.969784 0.155211 0.118729
H15   H     H_    0.306633 0.962601 0.351605 0.124371
H16   H     H_    0.693366 0.037400 0.648394 0.124371
N1    N     N_R   0.363088 0.421941 0.435417 0.093656
O21   O     O_R   0.408598 0.393838 0.374233 -0.295192
O22   O     O_R   0.482056 0.413467 0.487878 -0.357141
N2    N     N_R   0.636905 0.578056 0.564581 0.093657
O23   O     O_R   0.591382 0.606156 0.625765 -0.295198
O24   O     O_R   0.517944 0.586531 0.512118 -0.357144
N3    N     N_R   0.126674 0.574091 0.939611 0.087585
O25   O     O_R   0.958252 0.551074 0.918728 -0.359033
O26   O     O_R   0.160672 0.646054 0.941484 -0.310181
N4    N     N_R   0.873327 0.425910 0.060389 0.087585
O27   O     O_R   0.041749 0.448927 0.081272 -0.359034
O28   O     O_R   0.839331 0.353947 0.058516 -0.310180
N5    N     N_R   0.863102 0.078054 0.064579 0.093661
O29   O     O_R   0.908641 0.106148 0.125764 -0.295204
O30   O     O_R   0.982053 0.086531 0.012114 -0.357145
N6    N     N_R   0.136898 0.921946 0.935421 0.093660
O31   O     O_R   0.091358 0.893853 0.874236 -0.295204
O32   O     O_R   0.017947 0.913469 0.987886 -0.357146
N7    N     N_R   0.626673 0.925909 0.560389 0.087584
O33   O     O_R   0.458251 0.948926 0.581272 -0.359034
O34   O     O_R   0.660672 0.853946 0.558516 -0.310178
N8    N     N_R   0.373323 0.074093 0.439610 0.087585
O35   O     O_R   0.541745 0.051077 0.418725 -0.359029
O36   O     O_R   0.339322 0.146055 0.441483 -0.310176

loop_
_geom_bond_atom_site_label_1
_geom_bond_atom_site_label_2
_geom_bond_distance
_ccdc_geom_bond_type
C33   H2    1.080723 S    
C17   N1    1.437895 S    
N5    O29   1.301261 A    
O3    V2    1.988352 S    
C38   H5    1.080721 S    
C24   N8    1.437726 S    
N3    O25   1.301175 A    
O14   V3    1.992647 S    
C12   C35   1.400106 A    
N6    O32   1.301051 A    
C13   C38   1.400110 A    
O5    C4    1.305524 A    
C15   C40   1.400107 A    
O11   C3    1.294578 A    
C9    C34   1.400112 A    
C16   C39   1.400107 A    
O20   V1    1.706724 S    
N4    O27   1.301176 A    
C38   C46   1.417508 A    
C31   H16   1.083888 S    
N8    O35   1.301178 A    
C22   C45   1.418819 A    
O13   V4    1.992646 S    
C35   C43   1.418063 A    
C20   N4    1.437723 S    
C34   C42   1.417507 A    
C19   C44   1.417290 A    
C18   C41   1.418816 A    
C19   N3    1.437723 S    
N7    O33   1.301178 A    
C29   H14   1.084010 S    
N1    O22   1.301053 A    
O4    V1    1.988351 S    
O9    V1    1.992646 S    
C14   C37   1.400110 A    
C4    C10   1.486443 S    
C20   C28   1.402281 A    
O17   V4    1.706724 S    
O15   C7    1.294578 A    
O11   V3    1.991259 S    
O18   V3    1.706724 S    
N5    O30   1.301052 A    
O12   V4    1.991260 S    
O19   V2    1.706724 S    
N7    O34   1.301278 A    
C22   C30   1.403108 A    
C17   C25   1.403106 A    
N6    O31   1.301263 A    
O5    V1    1.986776 S    
C39   H8    1.080858 S    
O17   V1    2.152602 S    
O7    V3    1.988351 S    
O19   V3    2.152602 S    
C43   C44   1.427137 A    
O8    V4    1.988353 S    
O20   V4    2.152602 S    
C3    C9    1.486443 S    
C32   H15   1.083888 S    
C9    C26   1.401897 A    
C7    C13   1.486443 S    
C22   N6    1.437897 S    
O1    V4    1.986774 S    
C11   C36   1.400107 A    
C25   H10   1.084010 S    
C28   H11   1.083888 S    
O6    C3    1.305524 A    
C10   C33   1.400112 A    
O10   V2    1.992644 S    
C8    C14   1.486443 S    
C15   C32   1.403755 A    
C5    C15   1.488636 S    
C37   H6    1.080721 S    
O7    C2    1.307565 A    
C6    C16   1.488637 S    
O12   C4    1.294578 A    
N2    O24   1.301055 A    
O13   C5    1.293677 A    
C12   C27   1.403754 A    
C21   N5    1.437898 S    
C18   C26   1.403108 A    
C13   C30   1.401895 A    
O9    C1    1.293676 A    
O6    V2    1.986774 S    
C39   C47   1.418061 A    
O18   V2    2.152602 S    
N4    O28   1.301276 A    
C40   H7    1.080857 S    
C24   C47   1.417291 A    
C11   C28   1.403754 A    
O15   V2    1.991261 S    
C23   C31   1.402279 A    
C26   H9    1.084010 S    
C37   C45   1.417508 A    
C24   C32   1.402282 A    
C10   C25   1.401897 A    
C21   C46   1.418818 A    
C33   C41   1.417507 A    
C20   C43   1.417290 A    
C16   C31   1.403755 A    
C30   H13   1.084009 S    
N3    O26   1.301278 A    
C17   C42   1.418816 A    
C36   H3    1.080857 S    
C23   N7    1.437725 S    
O8    C1    1.307564 A    
O14   C6    1.293677 A    
O16   V1    1.991260 S    
C47   C48   1.427138 A    
O4    C5    1.307564 A    
C19   C27   1.402281 A    
C14   C29   1.401896 A    
O10   C2    1.293676 A    
C27   H12   1.083887 S    
N2    O23   1.301265 A    
C18   N2    1.437896 S    
C40   C48   1.418063 A    
C45   C46   1.427515 A    
N8    O36   1.301277 A    
C23   C48   1.417291 A    
C21   C29   1.403107 A    
C36   C44   1.418063 A    
O1    C8    1.305524 A    
O16   C8    1.294578 A    
C41   C42   1.427512 A    
O2    C7    1.305525 A    
O2    V3    1.986775 S    
O3    C6    1.307564 A    
C1    C11   1.488636 S    
N1    O21   1.301269 A    
C2    C12   1.488636 S    
C35   H4    1.080857 S    
C34   H1    1.080723 S    
