data_mof_unit_54486.cif
_audit_creation_date              2012-12-10T17:27:50-0500
_audit_creation_method            fapswitch 2.2
_symmetry_space_group_name_H-M    P1
_symmetry_Int_Tables_number       1
_space_group_crystal_system       triclinic
_cell_length_a                    10.699311
_cell_length_b                    12.055201
_cell_length_c                    12.850042
_cell_angle_alpha                 93.718231
_cell_angle_beta                  92.816661
_cell_angle_gamma                 86.254306
_cell_volume                      1648.72769445

loop_
_atom_site_label
_atom_site_type_symbol
_atom_type_description
_atom_site_fract_x
_atom_site_fract_y
_atom_site_fract_z
_atom_type_partial_charge
C1    C     C_R   0.497690 0.522200 0.700469 0.867700
C2    C     C_R   0.387254 0.603182 0.854404 0.069225
C3    C     C_R   0.567755 0.469927 0.875795 -0.007232
C4    C     C_R   0.739963 0.499727 0.501345 0.910994
C5    C     C_R   0.543031 0.464081 0.979804 0.198020
C6    C     C_R   0.444385 0.533134 0.023022 0.133502
C7    C     C_R   0.425877 0.532896 0.128692 -0.228931
C8    C     C_R   0.594965 0.389326 0.146614 -0.189917
C9    C     C_R   0.615930 0.390421 0.041779 -0.147313
C10   C     C_R   0.368909 0.955494 0.413568 -0.301275
C11   C     C_R   0.382384 0.839561 0.420423 0.011610
C12   C     C_R   0.946523 0.448143 0.584229 0.078372
C13   C     C_R   0.561050 0.857967 0.536399 0.203336
C14   C     C_R   0.549315 0.976183 0.534042 0.093397
C15   C     C_R   0.452224 0.024576 0.470277 0.010634
C16   C     C_R   0.498524 0.477776 0.300079 0.908896
C17   C     C_R   0.441336 0.141477 0.464059 -0.028576
C18   C     C_R   0.615791 0.163427 0.582405 -0.036075
C19   C     C_R   0.631676 0.048077 0.591827 0.013949
C20   C     C_R   0.260969 0.500249 0.499733 0.918644
C21   C     C_R   0.894525 0.391659 0.663247 -0.238533
C22   C     C_R   0.968457 0.351195 0.746600 -0.172099
C23   C     C_R   0.873328 0.497706 0.502352 -0.177106
C24   C     C_R   0.095893 0.367183 0.753819 0.220945
C25   C     C_R   0.149781 0.419190 0.675181 -0.191636
C26   C     C_R   0.076239 0.456287 0.587715 0.018642
C27   C     C_R   0.928021 0.545790 0.420304 0.094994
C28   C     C_R   0.057439 0.546451 0.420620 0.042112
C29   C     C_R   0.129265 0.502020 0.503757 -0.123153
C30   C     C_R   0.503267 0.463247 0.189756 -0.030781
C31   C     C_R   0.486736 0.535607 0.812024 -0.078305
C32   C     C_R   0.368180 0.603217 0.960834 -0.232191
H1    H     H_    0.690259 0.334785 0.010262 0.169061
H2    H     H_    0.654946 0.335748 0.195044 0.166456
H3    H     H_    0.292143 0.655653 0.994081 0.151506
H4    H     H_    0.212592 0.643360 0.796016 0.191976
H5    H     H_    0.305036 0.751817 0.817115 0.198893
H6    H     H_    0.729519 0.473878 0.803732 0.185486
H7    H     H_    0.657878 0.349336 0.784401 0.202594
H8    H     H_    0.716806 0.043110 0.735493 0.191187
H9    H     H_    0.815486 0.031731 0.635992 0.192837
H10   H     H_    0.635584 0.747464 0.640024 0.227880
H11   H     H_    0.731693 0.775168 0.542270 0.223902
H12   H     H_    0.368068 0.179778 0.414664 0.137831
H13   H     H_    0.087124 0.673032 0.329606 0.211246
H14   H     H_    0.093662 0.544130 0.266644 0.211582
H15   H     H_    0.678463 0.218068 0.625677 0.119829
H16   H     H_    0.293417 0.990935 0.364419 0.157399
H17   H     H_    0.317043 0.787122 0.377236 0.141737
H18   H     H_    0.796954 0.377240 0.661788 0.155454
H19   H     H_    0.926090 0.308717 0.806296 0.166589
H20   H     H_    0.249007 0.430774 0.684177 0.168933
H21   H     H_    0.354113 0.588770 0.164239 0.143505
I1    I     I_    0.819012 0.608919 0.289647 -0.394140
I2    I     I_    0.207890 0.312051 0.882441 -0.407094
N1    N     N_R   0.523130 0.207800 0.519340 -0.107409
N2    N     N_R   0.476870 0.792180 0.480660 -0.118899
N3    N     N_3   0.303314 0.668566 0.788971 -0.435753
N4    N     N_3   0.680356 0.414677 0.837783 -0.488246
N5    N     N_3   0.730700 0.006380 0.660638 -0.437336
N6    N     N_3   0.664951 0.807920 0.594252 -0.432978
N7    N     N_3   0.118177 0.589593 0.335853 -0.460861
O1    O     O_R   0.506170 0.421690 0.658830 -0.632376
O2    O     O_R   0.491330 0.609320 0.646410 -0.619526
O3    O     O_R   0.690660 0.406170 0.506210 -0.629781
O4    O     O_R   0.675810 0.593790 0.493790 -0.620132
O5    O     O_R   0.508670 0.390680 0.353590 -0.621658
O6    O     O_R   0.493830 0.578310 0.341170 -0.596368
O7    O     O_R   0.324190 0.406210 0.506210 -0.628535
O8    O     O_R   0.309340 0.593830 0.493790 -0.605216
Zn1   Zn    Zn3+2 0.509910 0.374720 0.508290 0.946792
Zn2   Zn    Zn3+2 0.490090 0.625280 0.491710 0.961785

loop_
_geom_bond_atom_site_label_1
_geom_bond_atom_site_label_2
_ccdc_geom_bond_type
C8    C9    A    
C6    C32   A    
C2    N3    S    
C28   N7    S    
C5    C9    A    
C6    C7    A    
C16   O6    A    
C23   C27   A    
C19   N5    S    
H4    N3    S    
H5    N3    S    
C17   N1    A    
C18   N1    A    
C10   C15   A    
N1    Zn1   S    
H7    N4    S    
C18   H15   S    
C25   H20   S    
C17   H12   S    
C8    C30   A    
C7    C30   A    
C8    H2    S    
C13   C14   A    
C24   I2    S    
C3    C31   A    
H10   N6    S    
C20   O8    A    
C5    C6    A    
C9    H1    S    
C11   H17   S    
C1    O1    A    
C2    C32   A    
C21   C22   A    
C28   C29   A    
C12   C26   A    
H14   N7    S    
O5    Zn1   S    
C20   C29   S    
O2    Zn2   S    
N2    Zn2   S    
C10   H16   S    
C4    O3    A    
C22   C24   A    
C20   O7    A    
C27   I1    S    
C13   N2    A    
C10   C11   A    
C7    H21   S    
C16   C30   S    
H6    N4    S    
C12   C21   A    
C32   H3    S    
H13   N7    S    
C1    C31   S    
C13   N6    S    
C24   C25   A    
C4    O4    A    
C26   C29   A    
C15   C17   A    
C18   C19   A    
C1    O2    A    
H8    N5    S    
O7    Zn1   S    
C4    C23   S    
C14   C15   A    
C22   H19   S    
C12   C23   A    
C21   H18   S    
C3    C5    A    
C25   C26   A    
C11   N2    A    
C16   O5    A    
H11   N6    S    
C14   C19   A    
O8    Zn2   S    
O6    Zn2   S    
O4    Zn2   S    
O3    Zn1   S    
H9    N5    S    
O1    Zn1   S    
C2    C31   A    
C27   C28   A    
C3    N4    S    
