data_mof_unit_40210.cif
_audit_creation_date              2012-12-10T19:06:30-0500
_audit_creation_method            fapswitch 2.2
_symmetry_space_group_name_H-M    P1
_symmetry_Int_Tables_number       1
_space_group_crystal_system       triclinic
_cell_length_a                    23.525015
_cell_length_b                    10.816141
_cell_length_c                    9.531855
_cell_angle_alpha                 90.060295
_cell_angle_beta                  90.124272
_cell_angle_gamma                 90.456538
_cell_volume                      2425.29526785

loop_
_atom_site_label
_atom_site_type_symbol
_atom_type_description
_atom_site_fract_x
_atom_site_fract_y
_atom_site_fract_z
_atom_type_partial_charge
C1    C     C_R   0.500918 0.262266 0.499988 0.805697
C2    C     C_R   0.970203 0.279763 0.426017 -0.163341
C3    C     C_R   0.029516 0.280587 0.425823 -0.161669
C4    C     C_R   0.059921 0.388250 0.462413 -0.014808
C5    C     C_R   0.030127 0.495861 0.499539 -0.015131
C6    C     C_R   0.060186 0.604253 0.536681 -0.015432
C7    C     C_R   0.030049 0.711151 0.573192 -0.158159
C8    C     C_R   0.970742 0.710446 0.572952 -0.159476
C9    C     C_R   0.119556 0.391235 0.463232 0.532290
C10   C     C_R   0.119809 0.602811 0.535961 0.533028
C11   C     C_R   0.238766 0.493073 0.372741 -0.107083
C12   C     C_R   0.390912 0.499892 0.499925 0.818864
C13   C     C_R   0.298029 0.494052 0.372631 -0.219923
C14   C     C_R   0.328321 0.499630 0.499805 -0.032450
C15   C     C_R   0.298228 0.504780 0.626953 -0.216850
C16   C     C_R   0.238961 0.504235 0.626717 -0.105692
C17   C     C_R   0.209063 0.498194 0.499701 0.363423
C18   C     C_R   0.761571 0.492769 0.628659 0.547304
C19   C     C_R   0.702077 0.496056 0.627719 -0.303558
C20   C     C_R   0.671832 0.495615 0.500425 -0.100524
C21   C     C_R   0.702055 0.491296 0.373565 -0.217270
C22   C     C_R   0.761278 0.490291 0.373921 -0.179951
C23   C     C_R   0.501230 0.737677 0.499938 0.839038
C24   C     C_R   0.791216 0.492509 0.500917 0.266211
C25   C     C_R   0.509910 0.063871 0.625637 -0.057010
C26   C     C_R   0.506600 0.129299 0.499680 -0.104115
C27   C     C_R   0.512193 0.064510 0.372470 -0.161647
C28   C     C_R   0.512615 0.935671 0.372394 -0.215052
C29   C     C_R   0.507111 0.870737 0.499452 -0.033611
C30   C     C_R   0.509355 0.936566 0.625317 -0.045321
C31   C     C_3   0.473739 0.926687 0.754834 0.278709
C32   C     C_3   0.473191 0.067921 0.755383 0.273059
C33   C     C_R   0.522900 0.597155 0.073739 0.147482
C34   C     C_R   0.609144 0.498887 0.500097 0.810131
C35   C     C_R   0.469040 0.414044 0.074915 0.577687
C36   C     C_R   0.470456 0.413282 0.924395 -0.153913
C37   C     C_R   0.522777 0.597261 0.926621 0.220673
C38   C     C_3   0.582373 0.644527 0.920877 -0.464820
C39   C     C_3   0.582451 0.644508 0.080229 -0.465717
C40   C     C_R   0.880727 0.599854 0.535411 0.600277
C41   C     C_R   0.880442 0.387978 0.463833 0.525976
C42   C     C_R   0.940066 0.386619 0.462668 -0.013069
C43   C     C_R   0.970132 0.495083 0.499532 -0.017615
C44   C     C_R   0.940346 0.602788 0.536357 -0.031412
Cu1   Cu    Cu3+1 0.500000 0.499980 0.640670 0.953230
Cu2   Cu    Cu3+1 0.500000 0.500020 0.359330 0.982338
H1    H     H_    0.948088 0.195201 0.397356 0.190280
H2    H     H_    0.679908 0.498607 0.726778 0.159831
H3    H     H_    0.680095 0.488824 0.273896 0.160184
H4    H     H_    0.784042 0.488477 0.275316 0.165038
H5    H     H_    0.513479 0.112524 0.272827 0.193618
H6    H     H_    0.514202 0.887629 0.272730 0.158177
H7    H     H_    0.497644 0.882453 0.842437 0.088579
H8    H     H_    0.430534 0.107117 0.733008 0.119782
H9    H     H_    0.051420 0.196632 0.397001 0.190727
H10   H     H_    0.448600 0.341972 0.865590 0.180818
H11   H     H_    0.612117 0.576232 0.875903 0.209573
H12   H     H_    0.585123 0.738768 0.874876 0.183300
H13   H     H_    0.612312 0.576374 0.125360 0.208334
H14   H     H_    0.585102 0.738799 0.126373 0.192224
H15   H     H_    0.052158 0.795678 0.602012 0.190221
H16   H     H_    0.948837 0.794441 0.601615 0.189560
H17   H     H_    0.215847 0.488781 0.274188 0.138735
H18   H     H_    0.320037 0.490385 0.273125 0.156238
H19   H     H_    0.320397 0.509323 0.726558 0.151449
H20   H     H_    0.216189 0.508053 0.725215 0.138266
N1    N     N_R   0.852168 0.493470 0.499960 -0.452871
N2    N     N_R   0.148121 0.497390 0.499635 -0.470753
N3    N     N_R   0.500360 0.500930 0.147930 -0.229488
N4    N     N_R   0.500360 0.500890 0.852020 -0.212605
O1    O     O_R   0.500000 0.319640 0.618810 -0.584789
O2    O     O_2   0.850903 0.284662 0.430089 -0.546403
O3    O     O_2   0.148815 0.288772 0.428955 -0.533676
O4    O     O_2   0.149311 0.706042 0.570265 -0.531362
O5    O     O_R   0.500010 0.319680 0.381230 -0.529782
O6    O     O_R   0.417880 0.499940 0.618820 -0.585075
O7    O     O_R   0.417880 0.499980 0.381240 -0.556205
O8    O     O_R   0.499990 0.680320 0.618770 -0.560512
O9    O     O_R   0.500000 0.680360 0.381190 -0.597242
O10   O     O_R   0.582120 0.500020 0.618760 -0.588793
O11   O     O_R   0.582120 0.500060 0.381180 -0.589612
O12   O     O_2   0.851458 0.702484 0.568989 -0.517248
O13   O     O_3   0.419745 0.874936 0.724415 -0.570494
C45   C     C_3   0.392257 0.844504 0.851053 -0.280975
H21   H     H_    0.388416 0.926681 0.920753 0.162271
H22   H     H_    0.414852 0.768633 0.906144 0.151179
H23   H     H_    0.348683 0.810895 0.826507 0.196554
O14   O     O_3   0.496700 0.119393 0.880908 -0.594101
C46   C     C_3   0.556744 0.123893 0.883812 -0.291162
H24   H     H_    0.573212 0.192458 0.806913 0.187095
H25   H     H_    0.575543 0.031358 0.865347 0.140823
H26   H     H_    0.570511 0.155031 0.989564 0.182739
O15   O     O_3   0.440220 0.323564 0.150375 -0.536954
C47   C     C_3   0.386072 0.297660 0.092810 -0.336329
H27   H     H_    0.359158 0.256086 0.176025 0.201628
H28   H     H_    0.364083 0.382428 0.055470 0.125308
H29   H     H_    0.389414 0.228418 0.007154 0.180126
O16   O     O_3   0.791077 0.497411 0.754068 -0.563095
C48   C     C_3   0.790962 0.378136 0.813478 -0.310652
H30   H     H_    0.810806 0.309605 0.741745 0.183875
H31   H     H_    0.747194 0.347886 0.842250 0.150887
H32   H     H_    0.816623 0.380711 0.911228 0.201957

loop_
_geom_bond_atom_site_label_1
_geom_bond_atom_site_label_2
_ccdc_geom_bond_type
O15   C47   S    
Cu1   O1    S    
C28   H6    S    
C41   C42   A    
C19   C20   A    
C45   H23   S    
C15   H19   S    
C21   H3    S    
C7    C8    A    
C41   N1    A    
Cu1   Cu2   S    
C26   C27   A    
C33   C39   S    
Cu1   O6    S    
C18   C24   A    
C23   C29   S    
C21   C22   A    
C28   C29   A    
C45   H22   S    
C11   H17   S    
C5    C6    A    
C15   C16   A    
C38   H11   S    
C31   O13   S    
C18   C19   A    
C7    H15   S    
Cu2   N3    S    
C24   N1    S    
C34   O10   A    
C38   H12   S    
C3    H9    S    
Cu2   O9    S    
C35   C36   A    
C36   N4    A    
C16   C17   A    
C40   N1    A    
Cu1   O8    S    
C10   O4    S    
C34   O11   A    
C46   H25   S    
C29   C30   A    
C33   N3    A    
C22   H4    S    
C20   C34   S    
C25   C32   S    
C5    C43   A    
C13   C14   A    
C9    O3    S    
C32   H8    S    
Cu2   O5    S    
C27   H5    S    
C35   O15   S    
C1    O5    A    
C40   O12   S    
C45   H21   S    
C19   H2    S    
C47   H29   S    
C25   C26   A    
C33   C37   A    
C43   C44   A    
C37   C38   S    
C36   H10   S    
Cu2   O11   S    
C31   C32   S    
C30   C31   S    
C39   H13   S    
C12   O7    A    
C20   C21   A    
C1    O1    A    
C31   H7    S    
C46   H26   S    
C47   H28   S    
C41   O2    S    
C48   H31   S    
C12   C14   S    
C12   O6    A    
C1    C26   S    
C22   C24   A    
O13   C45   S    
C16   H20   S    
C42   C43   A    
C3    C4    A    
C25   C30   A    
C11   C17   A    
C17   N2    S    
Cu1   N4    S    
C8    C44   A    
C4    C5    A    
C6    C10   A    
Cu2   O7    S    
C6    C7    A    
C10   N2    A    
C2    H1    S    
C48   H30   S    
C2    C3    A    
C4    C9    A    
C9    N2    A    
C11   C13   A    
C38   C39   S    
C13   H18   S    
C2    C42   A    
C39   H14   S    
Cu1   O10   S    
C23   O8    A    
C47   H27   S    
C40   C44   A    
C48   H32   S    
O14   C46   S    
C35   N3    A    
O16   C48   S    
C27   C28   A    
C14   C15   A    
C18   O16   S    
C23   O9    A    
C46   H24   S    
C37   N4    A    
C8    H16   S    
C32   O14   S    
