data_mof_unit_67499.cif
_audit_creation_date              2012-12-10T16:46:06-0500
_audit_creation_method            fapswitch 2.2
_symmetry_space_group_name_H-M    P1
_symmetry_Int_Tables_number       1
_space_group_crystal_system       triclinic
_cell_length_a                    10.874572
_cell_length_b                    8.739424
_cell_length_c                    7.651804
_cell_angle_alpha                 102.952271
_cell_angle_beta                  94.026358
_cell_angle_gamma                 94.865986
_cell_volume                      703.164184057

loop_
_atom_site_label
_atom_site_type_symbol
_atom_type_description
_atom_site_fract_x
_atom_site_fract_y
_atom_site_fract_z
_atom_type_partial_charge
C1    C     C_R   0.486793 0.199971 0.453155 0.682300
C2    C     C_3   0.878961 0.484027 0.504669 -0.127714
C3    C     C_3   0.941270 0.652822 0.490927 0.546284
C4    C     C_3   0.913353 0.349994 0.350864 -0.537367
C5    C     C_2   0.466536 0.028965 0.427681 0.340528
C6    C     C_2   0.502365 0.967384 0.566948 -0.465838
C7    C     C_R   0.261097 0.492034 0.501843 0.806785
C8    C     C_R   0.500366 0.798993 0.545981 0.917203
C9    C     C_R   0.739163 0.491637 0.498529 0.863362
C10   C     C_3   0.080637 0.450587 0.687269 0.234502
C11   C     C_3   0.934757 0.436447 0.682615 0.748034
C12   C     C_3   0.082721 0.644335 0.481450 -0.476373
C13   C     C_3   0.056685 0.346368 0.354336 0.314046
C14   C     C_3   0.123956 0.486083 0.508160 -0.182004
Cu1   Cu    Cu3+1 0.514070 0.517380 0.684380 0.992254
Cu2   Cu    Cu3+1 0.485930 0.482620 0.315620 1.024799
H1    H     H_    0.867142 0.353506 0.222954 0.188858
H2    H     H_    0.109740 0.656947 0.347603 0.226937
H3    H     H_    0.542474 0.040993 0.695432 0.127459
H4    H     H_    0.405968 0.370015 0.950813 0.207262
H5    H     H_    0.105441 0.327999 0.676509 0.115230
H6    H     H_    0.134175 0.747257 0.576755 0.140190
H7    H     H_    0.078386 0.234224 0.391809 0.063199
H8    H     H_    0.872102 0.232809 0.363023 0.170697
N1    N     N_2   0.464720 0.456420 0.038520 -0.181523
N2    N     N_2   0.535280 0.543580 0.961480 -0.018419
O1    O     O_R   0.509140 0.286130 0.619770 -0.643385
O2    O     O_R   0.485380 0.256770 0.308360 -0.604600
O3    O     O_R   0.329570 0.514650 0.655700 -0.578355
O4    O     O_R   0.305810 0.485300 0.344290 -0.518664
O5    O     O_R   0.514620 0.743230 0.691640 -0.592184
O6    O     O_R   0.490860 0.713870 0.380230 -0.492650
O7    O     O_R   0.694190 0.514700 0.655710 -0.532725
O8    O     O_R   0.670430 0.485350 0.344300 -0.556777
O9    O     O_3   0.149200 0.521695 0.856548 -0.546275
C15   C     C_3   0.167332 0.687434 0.903816 -0.224178
H9    H     H_    0.080425 0.741095 0.904782 0.186742
H10   H     H_    0.233660 0.735821 0.822465 0.155564
H11   H     H_    0.209038 0.722615 0.045119 0.203353
O10   O     O_3   0.890676 0.692501 0.332946 -0.582052
C16   C     C_3   0.935950 0.846106 0.315067 -0.280323
H12   H     H_    0.026722 0.895337 0.391263 0.148480
H13   H     H_    0.867262 0.930521 0.358703 0.216145
H14   H     H_    0.946684 0.842037 0.171142 0.193944
O11   O     O_3   0.393252 0.933225 0.278884 -0.583582
C17   C     C_3   0.422124 0.965626 0.112678 -0.234010
H15   H     H_    0.520637 0.011537 0.112013 0.179824
H16   H     H_    0.359431 0.047710 0.072401 0.145092
H17   H     H_    0.406874 0.854337 0.008005 0.193583
I1    I     I_    0.655499 0.734058 0.096759 -0.199891
O12   O     O_3   0.900042 0.272336 0.679803 -0.663536
C18   C     C_3   0.774191 0.227574 0.692164 -0.289583
H18   H     H_    0.731420 0.309472 0.796690 0.212382
H19   H     H_    0.766913 0.115007 0.734740 0.202709
H20   H     H_    0.723039 0.203838 0.557655 0.150711
O13   O     O_3   0.897922 0.542320 0.832691 -0.599287
C19   C     C_3   0.914270 0.493300 0.992189 -0.082988
H21   H     H_    0.989833 0.570226 0.080059 0.240672
H22   H     H_    0.936106 0.370879 0.975793 0.208038
H23   H     H_    0.825921 0.502877 0.053353 0.210922
I2    I     I_    0.898123 0.841589 0.714995 -0.458089
O14   O     O_3   0.098408 0.351272 0.184182 -0.538655
C20   C     C_3   0.101780 0.196834 0.078470 -0.296687
H24   H     H_    0.170043 0.133100 0.141338 0.149653
H25   H     H_    0.131267 0.204704 0.944734 0.207751
H26   H     H_    0.008582 0.128884 0.057554 0.172218

loop_
_geom_bond_atom_site_label_1
_geom_bond_atom_site_label_2
_ccdc_geom_bond_type
Cu2   O2    S    
C1    O2    A    
C2    C4    S    
C20   H25   S    
Cu1   O5    S    
O14   C20   S    
C7    O3    A    
Cu2   O6    S    
C16   H12   S    
Cu1   O1    S    
O9    C15   S    
C18   H20   S    
C15   H10   S    
C2    C3    S    
C20   H26   S    
C11   O13   S    
C7    O4    A    
C13   C14   S    
O13   C19   S    
C9    O7    A    
C6    H3    S    
C16   H13   S    
C17   H17   S    
C19   H21   S    
C10   O9    S    
C1    C5    S    
C2    C11   S    
C15   H9    S    
C12   C14   S    
C3    O10   S    
Cu1   O3    S    
C10   C11   S    
N2    I1    S    
C10   H5    S    
C9    O8    A    
C4    H8    S    
C16   H14   S    
C17   H16   S    
C19   H22   S    
C11   O12   S    
H4    N1    S    
C4    H1    S    
C3    I2    S    
Cu2   O4    S    
O12   C18   S    
C8    O6    A    
C12   H6    S    
Cu2   N1    S    
C2    C9    S    
C18   H18   S    
C13   H7    S    
C1    O1    A    
C10   C14   S    
C12   H2    S    
C4    C13   S    
C5    C6    D    
C17   H15   S    
O10   C16   S    
Cu1   N2    S    
C6    C8    S    
C3    C12   S    
Cu2   O8    S    
N1    N2    D    
O11   C17   S    
C8    O5    A    
C5    O11   S    
Cu1   O7    S    
C15   H11   S    
C7    C14   S    
C13   O14   S    
Cu1   Cu2   S    
C18   H19   S    
C20   H24   S    
C19   H23   S    
