data_mof_unit_7704.cif
_audit_creation_date              2012-12-10T17:49:36-0500
_audit_creation_method            fapswitch 2.2
_symmetry_space_group_name_H-M    P1
_symmetry_Int_Tables_number       1
_space_group_crystal_system       triclinic
_cell_length_a                    10.498427
_cell_length_b                    10.691985
_cell_length_c                    9.984018
_cell_angle_alpha                 93.435272
_cell_angle_beta                  91.496272
_cell_angle_gamma                 93.734514
_cell_volume                      1115.80016932

loop_
_atom_site_label
_atom_site_type_symbol
_atom_type_description
_atom_site_fract_x
_atom_site_fract_y
_atom_site_fract_z
_atom_type_partial_charge
C1    C     C_R   0.519607 0.263584 0.497542 0.890992
C2    C     C_R   0.591661 0.080874 0.611330 0.110842
C3    C     C_R   0.552375 0.134150 0.493439 -0.154464
C4    C     C_R   0.257571 0.499631 0.498724 0.841291
C5    C     C_R   0.515006 0.059542 0.380318 -0.308945
C6    C     C_R   0.476936 0.935286 0.391513 0.220859
C7    C     C_R   0.504391 0.878461 0.512869 -0.163059
C8    C     C_R   0.285563 0.381422 0.118190 0.276852
C9    C     C_R   0.172762 0.364535 0.038285 -0.255242
C10   C     C_R   0.182214 0.350640 0.900506 -0.246052
C11   C     C_R   0.299962 0.373703 0.844279 -0.108327
C12   C     C_3   0.965714 0.613742 0.529725 -0.192517
C13   C     C_R   0.400559 0.438473 0.920088 0.089600
C14   C     C_R   0.397632 0.440108 0.064008 0.099226
C15   C     C_R   0.595500 0.558467 0.079572 -0.130701
C16   C     C_R   0.499672 0.741510 0.504619 0.878665
C17   C     C_R   0.595805 0.560248 0.937371 0.176052
C18   C     C_R   0.742228 0.498190 0.501104 0.828376
C19   C     C_3   0.033698 0.379259 0.469588 -0.218374
C20   C     C_3   0.950942 0.454942 0.378223 -0.147401
C21   C     C_3   0.877246 0.495583 0.501989 0.059172
C22   C     C_3   0.957194 0.419476 0.592902 -0.162159
C23   C     C_3   0.041873 0.573360 0.406086 -0.174270
C24   C     C_3   0.048358 0.537831 0.620897 -0.140506
C25   C     C_3   0.623548 0.953754 0.010124 -0.441949
C26   C     C_3   0.757093 0.958304 0.076257 -0.884911
C27   C     C_3   0.273946 0.833308 0.308827 -0.764567
C28   C     C_3   0.290960 0.168629 0.177618 -0.843194
C29   C     C_3   0.705988 0.633224 0.879719 -0.384115
C30   C     C_3   0.827130 0.562352 0.886968 -0.861482
C31   C     C_3   0.122104 0.497667 0.497171 0.031785
C32   C     C_R   0.661180 0.154362 0.713900 -0.207687
C33   C     C_R   0.676500 0.110596 0.840444 -0.153192
C34   C     C_R   0.625905 0.991178 0.866764 0.227612
C35   C     C_R   0.569008 0.911885 0.760620 -0.252151
C36   C     C_R   0.556561 0.953668 0.628164 0.032128
H1    H     H_    0.907652 0.420654 0.279000 0.135244
H2    H     H_    0.933444 0.708929 0.555022 0.129334
H3    H     H_    0.078361 0.634348 0.327840 0.138496
H4    H     H_    0.502457 0.101269 0.286029 0.180835
H5    H     H_    0.700605 0.248142 0.697666 0.154073
H6    H     H_    0.722547 0.172689 0.919476 0.141443
H7    H     H_    0.752599 0.909365 0.171232 0.257330
H8    H     H_    0.825332 0.912504 0.009257 0.257884
H9    H     H_    0.793481 0.057062 0.100871 0.251248
H10   H     H_    0.565881 0.020117 0.068016 0.197386
H11   H     H_    0.576212 0.858399 0.016289 0.197250
H12   H     H_    0.526316 0.823500 0.788067 0.171766
H13   H     H_    0.414049 0.909929 0.190972 0.212812
H14   H     H_    0.219626 0.917315 0.330922 0.217375
H15   H     H_    0.267567 0.773311 0.395527 0.235658
H16   H     H_    0.229052 0.779210 0.219496 0.229658
H17   H     H_    0.219437 0.309784 0.288900 0.220314
H18   H     H_    0.291735 0.110621 0.265404 0.242252
H19   H     H_    0.373824 0.151608 0.113628 0.242112
H20   H     H_    0.201521 0.138591 0.119137 0.235613
H21   H     H_    0.811087 0.467183 0.836623 0.269308
H22   H     H_    0.904858 0.615872 0.837991 0.248186
H23   H     H_    0.672691 0.607023 0.140020 0.158373
H24   H     H_    0.857293 0.552751 0.993131 0.238775
H25   H     H_    0.684241 0.659870 0.777350 0.256414
H26   H     H_    0.724472 0.723110 0.939091 0.191729
H27   H     H_    0.084386 0.330712 0.081600 0.143893
H28   H     H_    0.101325 0.311324 0.838873 0.157504
H29   H     H_    0.310551 0.338538 0.742899 0.204745
H30   H     H_    0.063730 0.282859 0.446939 0.121100
H31   H     H_    0.919454 0.355324 0.667877 0.115614
H32   H     H_    0.093483 0.571664 0.719374 0.150482
N1    N     N_R   0.498800 0.498800 0.142780 -0.126739
N2    N     N_R   0.498760 0.498720 0.857170 -0.135736
N3    N     N_2   0.405672 0.869744 0.281808 -0.273163
N4    N     N_2   0.293228 0.299750 0.224254 -0.230914
O1    O     O_R   0.500000 0.316780 0.614690 -0.638233
O2    O     O_R   0.499990 0.316750 0.385360 -0.585905
O3    O     O_R   0.313960 0.499980 0.614650 -0.636940
O4    O     O_R   0.313940 0.499960 0.385310 -0.620219
O5    O     O_R   0.500010 0.683250 0.614640 -0.651769
O6    O     O_R   0.500000 0.683220 0.385310 -0.570768
O7    O     O_R   0.686060 0.500040 0.614690 -0.636009
O8    O     O_R   0.686040 0.500020 0.385350 -0.632627
Zn1   Zn    Zn3+2 0.500010 0.500020 0.653130 0.910167
Zn2   Zn    Zn3+2 0.499990 0.499980 0.346870 0.956464

loop_
_geom_bond_atom_site_label_1
_geom_bond_atom_site_label_2
_ccdc_geom_bond_type
C8    C9    A    
C18   C21   S    
C17   C29   S    
C7    C36   A    
C35   C36   A    
C19   C31   S    
C28   H20   S    
C26   H8    S    
C12   C23   S    
C1    O2    A    
C34   C35   A    
C5    C6    A    
C13   N2    A    
C30   H21   S    
C19   H30   S    
C2    C32   A    
C16   O5    A    
N2    Zn1   S    
C4    O3    A    
N1    Zn2   S    
C26   H9    S    
C19   C20   S    
C18   O7    A    
C30   H24   S    
C32   H5    S    
C9    C10   A    
C25   H11   S    
C27   H14   S    
C25   C34   S    
C17   N2    A    
C13   C14   A    
C28   N4    S    
O2    Zn2   S    
C35   H12   S    
O1    Zn1   S    
C28   H19   S    
C27   H15   S    
C26   H7    S    
C6    N3    S    
C15   N1    A    
C29   H25   S    
C8    N4    S    
C19   C22   S    
O8    Zn2   S    
O4    Zn2   S    
O7    Zn1   S    
C28   H18   S    
O3    Zn1   S    
C25   C26   S    
C12   C21   S    
C1    C3    S    
C23   C31   S    
C29   C30   S    
O6    Zn2   S    
C20   C23   S    
O5    Zn1   S    
C33   C34   A    
C7    C16   S    
C14   N1    A    
C22   C24   S    
C33   H6    S    
C27   N3    S    
C27   H16   S    
C2    C36   A    
C15   C17   A    
C29   H26   S    
C8    C14   A    
C9    H27   S    
C15   H23   S    
C10   H28   S    
C3    C5    A    
C6    C7    A    
C12   C24   S    
C1    O1    A    
C32   C33   A    
C2    C3    A    
C24   C31   S    
C20   H1    S    
C11   C13   A    
C23   H3    S    
C30   H22   S    
C16   O6    A    
C12   H2    S    
C22   H31   S    
C4    O4    A    
C4    C31   S    
C10   C11   A    
C24   H32   S    
C20   C21   S    
C18   O8    A    
H13   N3    S    
C5    H4    S    
C21   C22   S    
H17   N4    S    
C25   H10   S    
C11   H29   S    
