data_mof_unit_9974.cif
_audit_creation_date              2013-03-05T15:46:12-0500
_audit_creation_method            fapswitch 2.2
_symmetry_space_group_name_H-M    P1
_symmetry_Int_Tables_number       1
_space_group_crystal_system       triclinic
_cell_length_a                    10.590096
_cell_length_b                    10.727229
_cell_length_c                    17.189992
_cell_angle_alpha                 80.381922
_cell_angle_beta                  89.763721
_cell_angle_gamma                 119.385117
_cell_volume                      1669.20980485

loop_
_atom_site_label
_atom_site_type_symbol
_atom_site_description
_atom_site_fract_x
_atom_site_fract_y
_atom_site_fract_z
_atom_type_partial_charge
O1    O     O_R   0.521780 0.757110 0.108900 -0.466069
O2    O     O_R   0.275160 0.783810 0.101120 -0.494711
C1    C     C_R   0.223483 0.854845 0.128834 0.548634
O3    O     O_R   0.237900 0.972600 0.090980 -0.465685
O4    O     O_R   0.511190 0.220540 0.061620 -0.449048
C2    C     C_R   0.636370 0.280643 0.086182 0.559165
O5    O     O_R   0.736920 0.257720 0.063840 -0.522088
O6    O     O_R   0.710450 0.984050 0.081720 -0.498343
C3    C     C_R   0.640042 0.858696 0.125529 0.552642
O7    O     O_R   0.524090 0.765520 0.933110 -0.500398
O8    O     O_R   0.277300 0.791600 0.938160 -0.500081
C4    C     C_R   0.230008 0.868573 0.896700 0.542110
O9    O     O_R   0.240210 0.981010 0.915190 -0.540929
O10   O     O_R   0.513330 0.228330 0.898660 -0.537060
C5    C     C_R   0.637591 0.284638 0.860974 0.545631
O11   O     O_R   0.739230 0.266130 0.888050 -0.470907
O12   O     O_R   0.712580 0.991850 0.918770 -0.508979
C6    C     C_R   0.648144 0.865769 0.900422 0.546602
Cr1   Cr    Cr6+3 0.402240 0.783890 0.019450 1.089629
Cr2   Cr    Cr6+3 0.382360 0.097900 0.991800 1.074499
Cr3   Cr    Cr6+3 0.715380 0.118170 0.988700 1.059075
O13   O     O_3   0.499990 0.999980 0.999980 -0.280965
C7    C     C_R   0.529678 0.328337 0.200653 0.189851
C8    C     C_R   0.533783 0.330982 0.282105 0.183011
C9    C     C_R   0.662758 0.357362 0.317116 -0.024907
C10   C     C_R   0.786083 0.385143 0.270340 -0.178895
H1    H     H_    0.889226 0.413171 0.294188 0.181219
C11   C     C_R   0.781823 0.381948 0.191214 -0.182067
H2    H     H_    0.878501 0.399395 0.158298 0.174221
C12   C     C_R   0.652074 0.343519 0.156841 -0.025078
C13   C     C_1   0.668648 0.848683 0.205495 -0.005274
C14   C     C_1   0.680456 0.838792 0.274751 -0.006898
C15   C     C_1   0.180755 0.826037 0.211261 -0.009233
C16   C     C_1   0.150866 0.819796 0.279678 -0.000551
C17   C     C_1   0.645332 0.325053 0.778262 -0.017520
C18   C     C_1   0.652824 0.347508 0.707816 -0.012707
C19   C     C_R   0.623733 0.709903 0.806120 -0.142020
H3    H     H_    0.563156 0.611907 0.850999 0.149909
C20   C     C_R   0.618771 0.698467 0.727452 -0.170989
H4    H     H_    0.565884 0.591149 0.713144 0.133115
C21   C     C_R   0.684469 0.823502 0.667651 0.015221
C22   C     C_R   0.777206 0.961384 0.688207 0.188690
C23   C     C_R   0.779426 0.971360 0.767912 -0.119691
H5    H     H_    0.839998 0.077617 0.783911 0.183673
C24   C     C_R   0.694816 0.847708 0.826051 -0.018446
C25   C     C_R   0.222450 0.971310 0.755468 -0.025771
C26   C     C_R   0.225093 0.956260 0.677364 -0.135859
H6    H     H_    0.252888 0.048436 0.630179 0.167293
C27   C     C_R   0.170445 0.819191 0.658464 -0.002836
C28   C     C_R   0.143303 0.697683 0.717728 0.185116
C29   C     C_R   0.160185 0.715903 0.795887 -0.130767
H7    H     H_    0.143205 0.624565 0.841455 0.160678
C30   C     C_R   0.195655 0.849501 0.815911 -0.012023
O14   O     O_R   0.083770 0.911170 0.376030 -0.443045
O15   O     O_R   0.808770 0.880340 0.383890 -0.489834
C31   C     C_R   0.686926 0.809337 0.357039 0.546200
O16   O     O_R   0.584340 0.689460 0.394160 -0.477660
O17   O     O_R   0.614320 0.443940 0.423590 -0.454086
C32   C     C_R   0.687100 0.392950 0.395672 0.570016
O18   O     O_R   0.805020 0.410040 0.421340 -0.513390
O19   O     O_R   0.049240 0.685450 0.403290 -0.511480
C33   C     C_R   0.102992 0.810067 0.359020 0.552293
O20   O     O_R   0.077520 0.903010 0.551800 -0.484720
O21   O     O_R   0.802980 0.872780 0.546830 -0.445093
C34   C     C_R   0.680902 0.799246 0.586901 0.552222
O22   O     O_R   0.578090 0.681300 0.569920 -0.518688
O23   O     O_R   0.608530 0.436370 0.586530 -0.538189
C35   C     C_R   0.679662 0.384078 0.624764 0.552284
O24   O     O_R   0.798770 0.401880 0.597100 -0.397380
O25   O     O_R   0.043450 0.677890 0.566230 -0.443024
C36   C     C_R   0.102235 0.802297 0.584927 0.549428
Cr4   Cr    Cr6+3 0.936650 0.882420 0.465510 1.156298
Cr5   Cr    Cr6+3 0.605770 0.565620 0.493360 1.093501
Cr6   Cr    Cr6+3 0.921340 0.550490 0.496380 1.152854
O26   O     O_3   0.821250 0.666180 0.485090 -0.316676
N1    N     N_R   0.400905 0.306502 0.163574 0.116193
O27   O     O_R   0.273619 0.198059 0.193806 -0.276549
O28   O     O_R   0.410601 0.397292 0.100149 -0.322810
N2    N     N_R   0.093388 0.555075 0.700748 0.080980
O29   O     O_R   0.154947 0.538635 0.640638 -0.316004
O30   O     O_R   0.997410 0.440022 0.750327 -0.345009
N3    N     N_R   0.408342 0.308008 0.328440 0.114783
O31   O     O_R   0.355652 0.209621 0.393362 -0.314769
O32   O     O_R   0.347673 0.386626 0.306495 -0.266823
N4    N     N_R   0.865053 0.092974 0.630854 0.060397
O33   O     O_R   0.874086 0.212836 0.643333 -0.277543
O34   O     O_R   0.970617 0.104713 0.585738 -0.314058
C37   C     C_3   0.244458 0.114443 0.774024 -0.252536
C38   C     C_3   0.262833 0.234873 0.705671 -0.328658
C39   C     C_3   0.282066 0.365947 0.738373 -0.391268
H8    H     H_    0.176595 0.341969 0.767116 0.221869
H9    H     H_    0.361816 0.392555 0.783263 0.122525
H10   H     H_    0.323088 0.461502 0.689282 0.219658
H11   H     H_    0.360555 0.269369 0.665116 0.177786
H12   H     H_    0.165757 0.195850 0.672456 0.246320
H13   H     H_    0.149166 0.089222 0.814489 0.181833
H14   H     H_    0.345230 0.162683 0.803033 0.198663

loop_
_geom_bond_atom_site_label_1
_geom_bond_atom_site_label_2
_geom_bond_distance
_ccdc_geom_bond_type
O15   C31   1.271242 A    
C37   H13   1.113025 S    
O11   Cr3   2.064422 S    
C21   C22   1.424458 A    
C17   C18   1.188994 T    
C7    N1    1.436812 S    
C34   O22   1.282822 A    
C28   N2    1.435884 S    
C20   C21   1.399072 A    
O4    Cr2   1.952524 S    
N4    O33   1.296172 A    
C4    O9    1.252187 A    
O8    Cr1   1.947864 S    
C10   H1    1.083590 S    
C11   H2    1.084066 S    
N1    O28   1.301497 A    
O4    C2    1.268134 A    
C1    C15   1.420951 S    
C5    O11   1.263956 A    
C16   C33   1.422293 S    
C31   O16   1.261027 A    
O16   Cr5   2.065492 S    
C38   H11   1.107231 S    
C8    N3    1.436752 S    
C26   H6    1.080118 S    
C35   O24   1.257763 A    
O25   Cr6   1.951545 S    
C7    C8    1.405599 A    
O25   C36   1.265507 A    
O23   Cr5   1.945876 S    
O15   Cr4   1.949241 S    
C32   O18   1.262801 A    
Cr3   O13   1.980950 S    
Cr5   O26   1.980289 S    
Cr4   O26   1.985280 S    
C5    C17   1.405154 S    
C15   C16   1.199038 T    
C25   C37   1.525343 S    
N4    O34   1.299673 A    
O1    Cr1   2.067566 S    
Cr6   O26   1.978253 S    
O23   C35   1.268718 A    
C7    C12   1.420440 A    
O10   Cr2   1.942550 S    
Cr1   O13   1.984943 S    
O1    C3    1.267063 A    
C8    C9    1.411467 A    
C26   C27   1.388722 A    
C20   H4    1.078191 S    
N2    O30   1.301152 A    
O6    C3    1.266621 A    
C21   C34   1.451700 S    
O14   C33   1.274891 A    
C28   C29   1.389507 A    
O17   C32   1.273562 A    
O5    Cr3   2.067563 S    
O22   Cr5   2.063340 S    
O12   Cr3   1.946097 S    
C29   H7    1.084164 S    
C29   C30   1.396812 A    
C38   H12   1.104758 S    
C23   H5    1.083984 S    
C19   H3    1.083926 S    
C39   H9    1.110233 S    
C13   C14   1.190063 T    
O7    Cr1   2.058703 S    
O12   C6    1.277887 A    
O24   Cr6   2.062128 S    
C22   N4    1.438312 S    
N1    O27   1.301426 A    
C23   C24   1.394415 A    
C4    C30   1.459077 S    
C2    C12   1.457136 S    
O20   C36   1.277941 A    
N3    O31   1.301566 A    
N3    O32   1.301453 A    
C22   C23   1.391422 A    
C19   C24   1.395931 A    
C1    O3    1.256031 A    
C6    C24   1.444914 S    
C39   H10   1.105660 S    
C25   C26   1.380585 A    
O9    Cr2   2.070867 S    
O2    Cr1   1.940357 S    
C37   H14   1.097269 S    
Cr2   O13   1.977659 S    
O6    Cr3   1.945859 S    
O8    C4    1.285569 A    
C18   C35   1.404637 S    
C2    O5    1.275536 A    
O19   Cr6   1.942899 S    
C10   C11   1.366688 A    
O21   C34   1.256340 A    
C11   C12   1.392598 A    
O2    C1    1.278868 A    
C9    C10   1.403701 A    
C19   C20   1.377040 A    
C39   H8    1.108560 S    
O7    C6    1.266359 A    
C25   C30   1.430901 A    
O18   Cr6   2.071842 S    
O20   Cr4   2.068564 S    
O21   Cr4   1.939166 S    
O19   C33   1.264864 A    
C3    C13   1.406742 S    
N2    O29   1.300750 A    
O3    Cr2   2.061201 S    
O14   Cr4   2.058795 S    
C37   C38   1.526965 S    
C27   C28   1.416207 A    
C27   C36   1.451966 S    
O10   C5    1.264269 A    
C9    C32   1.454036 S    
C38   C39   1.522664 S    
C14   C31   1.406452 S    
O17   Cr5   1.946438 S    
