data_mof_unit_60155.cif
_audit_creation_date              2013-03-05T16:37:16-0500
_audit_creation_method            fapswitch 2.2
_symmetry_space_group_name_H-M    P1
_symmetry_Int_Tables_number       1
_space_group_crystal_system       triclinic
_cell_length_a                    21.723242
_cell_length_b                    21.721744
_cell_length_c                    24.75268
_cell_angle_alpha                 115.966555
_cell_angle_beta                  116.021064
_cell_angle_gamma                 90.105512
_cell_volume                      9160.55316819

loop_
_atom_site_label
_atom_site_type_symbol
_atom_site_description
_atom_site_fract_x
_atom_site_fract_y
_atom_site_fract_z
_atom_type_partial_charge
O1    O     O_R   0.049920 0.497760 0.599870 -0.584160
O2    O     O_R   0.049920 0.602100 0.599840 -0.590769
C1    C     C_R   0.066249 0.566282 0.632583 0.771068
O3    O     O_R   0.090180 0.447830 0.500020 -0.574479
O4    O     O_R   0.090180 0.552170 0.499990 -0.594164
C2    C     C_R   0.117824 0.499134 0.498278 0.797787
Cu1   Cu    Cu3+1 0.000000 0.438230 0.500020 1.075376
Cu2   Cu    Cu3+1 0.000000 0.561770 0.499980 0.973983
O5    O     O_R   0.950080 0.397900 0.400160 -0.536273
O6    O     O_R   0.950080 0.502240 0.400130 -0.592840
O7    O     O_R   0.909820 0.447830 0.500010 -0.528319
O8    O     O_R   0.909820 0.552170 0.499980 -0.591396
C3    C     C_R   0.932188 0.433759 0.367552 0.834205
C4    C     C_R   0.881775 0.500404 0.500985 0.818845
H1    H     H_    0.983064 0.202910 0.266864 0.172732
C5    C     C_R   0.080723 0.253317 0.362911 -0.188258
H2    H     H_    0.081199 0.208438 0.371379 0.165358
C6    C     C_R   0.135584 0.314206 0.410782 0.702434
C7    C     C_R   0.134798 0.372637 0.399975 0.040352
C8    C     C_R   0.078843 0.369258 0.340817 -0.218266
H3    H     H_    0.077633 0.413816 0.331742 0.139938
C9    C     C_R   0.024597 0.307919 0.292762 -0.116158
H4    H     H_    0.981978 0.305034 0.246760 0.162438
C10   C     C_R   0.025329 0.250170 0.303965 -0.167600
C11   C     C_R   0.258486 0.437860 0.452098 0.325283
C12   C     C_R   0.313790 0.499680 0.499994 -0.200545
C13   C     C_R   0.303940 0.560225 0.547010 -0.036386
C14   C     C_R   0.238425 0.558601 0.543868 -0.234062
H5    H     H_    0.230198 0.604799 0.579389 0.156932
C15   C     C_R   0.183612 0.498124 0.496424 -0.109322
C16   C     C_R   0.192952 0.437221 0.450131 -0.051012
C17   C     C_R   0.379322 0.654886 0.669621 -0.138981
H6    H     H_    0.354957 0.627804 0.685700 0.134803
C18   C     C_R   0.430429 0.718335 0.719196 -0.134393
H7    H     H_    0.445209 0.739816 0.772935 0.140086
C19   C     C_R   0.462235 0.754186 0.699412 -0.111145
H8    H     H_    0.501640 0.803386 0.737789 0.131285
C20   C     C_R   0.443062 0.726573 0.630056 -0.122985
H9    H     H_    0.467524 0.754521 0.614767 0.128769
C21   C     C_R   0.392271 0.662947 0.580452 -0.114046
H10   H     H_    0.378289 0.641815 0.527152 0.098898
C22   C     C_R   0.360001 0.626439 0.599717 0.142824
C23   C     C_R   0.100922 0.673834 0.745206 -0.188225
H11   H     H_    0.070615 0.700599 0.718233 0.157497
C24   C     C_R   0.135805 0.709262 0.817164 -0.167761
H12   H     H_    0.132239 0.762874 0.844118 0.158229
C25   C     C_R   0.175677 0.676156 0.853807 0.052714
C26   C     C_R   0.179294 0.606649 0.817067 -0.171545
H13   H     H_    0.209268 0.579661 0.843930 0.154006
C27   C     C_R   0.143369 0.570796 0.745115 -0.180733
H14   H     H_    0.146695 0.517092 0.718085 0.157743
C28   C     C_R   0.104133 0.604177 0.708551 -0.013105
N1    N     N_R   0.269732 0.694132 0.965597 -0.234361
N2    N     N_R   0.304379 0.728680 0.034198 -0.235645
C29   C     C_R   0.283961 0.784183 0.069908 0.412347
N3    N     N_R   0.227630 0.803877 0.034238 -0.227124
N4    N     N_R   0.193336 0.769687 0.965632 -0.235819
C30   C     C_R   0.213617 0.714040 0.929928 0.405562
C31   C     C_R   0.289286 0.861989 0.182850 -0.139311
H15   H     H_    0.235271 0.864745 0.156025 0.156028
C32   C     C_R   0.325312 0.897603 0.254819 -0.152714
H16   H     H_    0.298459 0.927451 0.281873 0.159898
C33   C     C_R   0.395507 0.895467 0.291366 -0.029064
C34   C     C_R   0.428814 0.856531 0.254621 -0.148622
H17   H     H_    0.482815 0.853770 0.281528 0.166370
C35   C     C_R   0.392344 0.819801 0.182642 -0.142074
H18   H     H_    0.419249 0.789992 0.155640 0.157931
C36   C     C_R   0.322319 0.822434 0.146042 0.047860
H19   H     H_    0.032614 0.499755 0.767663 0.154218
C37   C     C_R   0.948685 0.433683 0.663963 -0.190985
H20   H     H_    0.965730 0.386316 0.662009 0.172263
C38   C     C_R   0.888667 0.430195 0.607103 0.384289
C39   C     C_R   0.868315 0.493636 0.611617 -0.036849
C40   C     C_R   0.907318 0.557835 0.672657 -0.226591
H21   H     H_    0.892434 0.606590 0.676613 0.158190
C41   C     C_R   0.965965 0.559859 0.728700 -0.112260
H22   H     H_    0.995730 0.609625 0.775465 0.157648
C42   C     C_R   0.986772 0.497953 0.724264 -0.166834
C43   C     C_R   0.743609 0.497547 0.552538 -0.191192
H23   H     H_    0.737847 0.493508 0.592312 0.159377
C44   C     C_R   0.686417 0.503407 0.500367 -0.106346
C45   C     C_R   0.694272 0.509408 0.449014 0.016960
C46   C     C_R   0.758900 0.507616 0.450113 -0.178329
H24   H     H_    0.765505 0.512345 0.410998 0.161384
C47   C     C_R   0.815348 0.500540 0.501537 -0.045325
C48   C     C_R   0.808074 0.495570 0.553354 0.066514
C49   C     C_R   0.608059 0.469356 0.325653 -0.134903
H25   H     H_    0.626431 0.421427 0.310804 0.152278
C50   C     C_R   0.554467 0.479808 0.274858 -0.221946
H26   H     H_    0.531737 0.440171 0.221185 0.166777
C51   C     C_R   0.530404 0.541505 0.293283 -0.221130
H27   H     H_    0.489104 0.549587 0.253824 0.156970
C52   C     C_R   0.559868 0.592881 0.362560 0.675202
C53   C     C_R   0.612978 0.582331 0.413617 -0.164959
H28   H     H_    0.635465 0.622451 0.467171 0.154688
C54   C     C_R   0.637312 0.520370 0.395377 0.031464
C55   C     C_R   0.909107 0.420589 0.255289 -0.253237
H29   H     H_    0.950511 0.467817 0.282648 0.163089
C56   C     C_R   0.875064 0.383749 0.183457 -0.155336
H30   H     H_    0.890090 0.404162 0.157019 0.164981
C57   C     C_R   0.822083 0.321656 0.146324 -0.010420
C58   C     C_R   0.803842 0.297136 0.182532 -0.222130
H31   H     H_    0.762346 0.249859 0.154555 0.191493
C59   C     C_R   0.837484 0.333782 0.254779 0.320792
C60   C     C_R   0.891612 0.395802 0.291673 -0.137740
N5    N     N_R   0.723330 0.233750 0.033995 -0.231638
N6    N     N_R   0.689264 0.199617 0.965422 -0.238094
C61   C     C_R   0.715431 0.213262 0.930010 0.407496
N7    N     N_R   0.777090 0.262535 0.966057 -0.239506
N8    N     N_R   0.810998 0.296940 0.034674 -0.238294
C62   C     C_R   0.784836 0.283208 0.070074 0.437085
C63   C     C_R   0.710994 0.177307 0.817116 -0.175363
H32   H     H_    0.765371 0.206076 0.843971 0.158634
C64   C     C_R   0.675005 0.141392 0.745168 -0.199020
H33   H     H_    0.702283 0.143642 0.718242 0.160278
C65   C     C_R   0.604402 0.103597 0.708488 -0.023174
C66   C     C_R   0.570575 0.101893 0.745007 -0.212271
H34   H     H_    0.516237 0.072907 0.717966 0.158154
C67   C     C_R   0.606784 0.137149 0.816935 -0.182162
H35   H     H_    0.579259 0.134865 0.843638 0.159226
C68   C     C_R   0.677326 0.175442 0.853790 0.050012
O9    O     O_R   0.471120 0.561280 0.442210 -0.590022
O10   O     O_R   0.528910 0.619050 0.557800 -0.590683
C69   C     C_R   0.498396 0.618901 0.499693 0.768637
O11   O     O_R   0.380930 0.471140 0.442200 -0.542859
O12   O     O_R   0.438710 0.528900 0.557790 -0.579912
C70   C     C_R   0.380958 0.500144 0.500052 0.850784
Cu3   Cu    Cu3+1 0.465780 0.465820 0.431560 1.021244
Cu4   Cu    Cu3+1 0.534220 0.534230 0.568440 0.972915
O13   O     O_R   0.471090 0.380990 0.442200 -0.549859
O14   O     O_R   0.528880 0.438760 0.557790 -0.598587
O15   O     O_R   0.561290 0.471140 0.442210 -0.583352
O16   O     O_R   0.619070 0.528910 0.557800 -0.591531
C71   C     C_R   0.501111 0.380999 0.499926 0.861950
C72   C     C_R   0.619129 0.501577 0.500040 0.782652
O17   O     O_R   0.552160 0.089990 0.499980 -0.541037
O18   O     O_R   0.447770 0.089950 0.499980 -0.579850
C73   C     C_R   0.500395 0.118983 0.500690 0.864997
O19   O     O_R   0.502270 0.949920 0.400150 -0.559038
O20   O     O_R   0.397880 0.949890 0.400140 -0.593475
C74   C     C_R   0.433668 0.933527 0.367397 0.807095
Cu5   Cu    Cu3+1 0.561810 0.999860 0.500000 1.050820
Cu6   Cu    Cu3+1 0.438190 0.999810 0.500000 0.970746
O21   O     O_R   0.552230 0.909720 0.500030 -0.547665
O22   O     O_R   0.447840 0.909680 0.500020 -0.604136
O23   O     O_R   0.602120 0.049780 0.599860 -0.588586
O24   O     O_R   0.497730 0.049740 0.599850 -0.587295
C75   C     C_R   0.500683 0.881856 0.501429 0.788884
C76   C     C_R   0.566312 0.065994 0.632557 0.774714
H36   H     H_    0.194452 0.496952 0.266389 0.136374
C77   C     C_R   0.301073 0.532086 0.291773 -0.142187
H37   H     H_    0.296819 0.488058 0.245834 0.132470
C78   C     C_R   0.364337 0.583850 0.339522 -0.057097
H38   H     H_    0.408478 0.579455 0.329773 0.163355
C79   C     C_R   0.370659 0.640380 0.399914 0.087721
C80   C     C_R   0.311533 0.646564 0.409720 -0.205267
H39   H     H_    0.314583 0.691246 0.454653 0.133849
C81   C     C_R   0.248423 0.594601 0.362020 -0.123301
H40   H     H_    0.203434 0.598961 0.370513 0.135487
C82   C     C_R   0.243324 0.537164 0.303278 -0.081827
C83   C     C_R   0.439833 0.760868 0.454066 -0.190470
H41   H     H_    0.394145 0.769081 0.417959 0.145984
C84   C     C_R   0.500712 0.815509 0.502221 -0.041569
C85   C     C_R   0.560293 0.805760 0.549578 0.075157
C86   C     C_R   0.557946 0.740664 0.547454 -0.178659
H42   H     H_    0.603564 0.733145 0.584241 0.146171
C87   C     C_R   0.497424 0.685434 0.498720 -0.060012
C88   C     C_R   0.437521 0.695345 0.451056 0.042100
C89   C     C_R   0.689175 0.864584 0.605483 0.375592
C90   C     C_R   0.748759 0.918143 0.662826 -0.188277
H43   H     H_    0.799329 0.920139 0.664361 0.176144
C91   C     C_R   0.743659 0.969951 0.718403 -0.168927
H44   H     H_    0.789883 0.010873 0.762212 0.153561
C92   C     C_R   0.679158 0.968964 0.717689 -0.106018
H45   H     H_    0.675611 0.008640 0.761244 0.162639
C93   C     C_R   0.619344 0.916564 0.661184 -0.227748
H46   H     H_    0.569782 0.916121 0.661806 0.133444
C94   C     C_R   0.623632 0.863907 0.604980 -0.016337
H47   H     H_    0.578665 0.285770 0.276427 0.171501
C95   C     C_R   0.503504 0.233645 0.286916 -0.215182
H48   H     H_    0.467523 0.204008 0.232019 0.170646
C96   C     C_R   0.487141 0.225828 0.332643 0.737617
C97   C     C_R   0.533574 0.264688 0.404024 0.024348
C98   C     C_R   0.596526 0.310925 0.428752 -0.202079
H49   H     H_    0.632907 0.341262 0.483563 0.157290
C99   C     C_R   0.612682 0.318239 0.382716 -0.040996
H50   H     H_    0.661196 0.353764 0.401820 0.194283
C100  C     C_R   0.566153 0.279808 0.311921 -0.205546
C101  C     C_R   0.515387 0.193868 0.454158 0.633389
C102  C     C_R   0.501156 0.186269 0.501296 -0.213308
C103  C     C_R   0.487977 0.242918 0.548211 -0.079296
C104  C     C_R   0.488766 0.306302 0.546923 -0.183039
H51   H     H_    0.478554 0.349975 0.582929 0.173615
C105  C     C_R   0.502484 0.313966 0.499776 -0.145926
C106  C     C_R   0.516171 0.257556 0.452938 -0.059050
C107  C     C_R   0.410194 0.237710 0.596994 -0.095412
H52   H     H_    0.365970 0.237699 0.553530 0.166291
C108  C     C_R   0.400394 0.236378 0.648702 -0.135623
H53   H     H_    0.348818 0.235076 0.644965 0.145543
C109  C     C_R   0.457302 0.237412 0.705544 -0.107354
H54   H     H_    0.449806 0.236941 0.745811 0.132957
C110  C     C_R   0.524031 0.239611 0.710665 -0.120919
H55   H     H_    0.568260 0.241603 0.755232 0.155183
C111  C     C_R   0.533802 0.239665 0.658495 -0.157690
H56   H     H_    0.585752 0.241363 0.662991 0.122075
C112  C     C_R   0.476905 0.238933 0.601467 0.133514
N9    N     N_R   0.850247 0.362708 0.545985 0.135437
O25   O     O_R   0.783460 0.351064 0.504220 -0.361451
O26   O     O_R   0.880835 0.310532 0.534318 -0.334868
F1    F     F_    0.189089 0.316480 0.467742 -0.656220
F2    F     F_    0.537190 0.653120 0.380119 -0.651823
N10   N     N_R   0.813898 0.309015 0.289302 0.129954
O27   O     O_R   0.791764 0.241702 0.264072 -0.334158
O28   O     O_R   0.804168 0.353271 0.339406 -0.360732
N11   N     N_R   0.696102 0.812220 0.548785 0.106793
O29   O     O_R   0.756858 0.797258 0.558836 -0.368330
O30   O     O_R   0.644075 0.784440 0.485992 -0.289228
F3    F     F_    0.425665 0.181387 0.307512 -0.626737
F4    F     F_    0.528370 0.139083 0.409206 -0.629122
N12   N     N_R   0.269635 0.374861 0.407324 0.138841
O31   O     O_R   0.229142 0.344793 0.340889 -0.346819
O32   O     O_R   0.318889 0.346154 0.433131 -0.329625

loop_
_geom_bond_atom_site_label_1
_geom_bond_atom_site_label_2
_geom_bond_distance
_ccdc_geom_bond_type
C11   C16   1.402786 A    
C35   C36   1.405163 A    
C49   H25   1.083236 S    
C52   C53   1.398588 A    
C37   C42   1.396009 A    
C89   C90   1.407116 A    
Cu5   O23   1.950047 S    
C7    C8    1.403903 A    
O20   Cu6   1.950049 S    
C61   C68   1.479698 S    
C29   N3    1.358186 A    
O14   C71   1.286465 A    
C7    C16   1.482388 S    
Cu3   Cu4   2.657316 S    
O22   C75   1.292337 A    
N12   O32   1.301259 A    
C64   H33   1.082920 S    
C110  C111  1.398014 A    
N12   O31   1.301063 A    
O10   C69   1.291324 A    
C73   C102  1.455048 S    
C24   H12   1.082876 S    
C65   C66   1.403751 A    
Cu1   O7    1.970357 S    
N10   O27   1.301316 A    
C12   C13   1.417394 A    
C86   H42   1.084863 S    
H36   C82   1.082320 S    
O4    C2    1.292944 A    
C85   C86   1.391788 A    
C6    F1    1.357281 S    
C41   C42   1.393229 A    
C6    C7    1.405764 A    
C66   C67   1.396476 A    
C15   C16   1.407764 A    
C43   C48   1.392676 A    
O7    C4    1.291199 A    
C23   C28   1.403993 A    
C90   H43   1.082532 S    
C69   C87   1.455951 S    
C55   H29   1.083437 S    
C107  H52   1.083200 S    
C61   N7    1.358532 A    
Cu6   O22   1.969547 S    
C18   H7    1.082315 S    
C39   C40   1.404549 A    
C32   C33   1.404427 A    
O5    C3    1.298329 A    
C96   C97   1.406734 A    
C65   C76   1.474099 S    
O17   Cu5   1.969549 S    
C95   C100  1.397558 A    
C55   C56   1.395297 A    
N8    C62   1.358296 A    
C84   C85   1.407591 A    
Cu5   Cu6   2.685423 S    
C46   H24   1.085113 S    
C91   C92   1.393492 A    
C5    H2    1.082327 S    
C52   F2    1.354988 S    
O11   Cu3   1.969830 S    
C27   C28   1.404101 A    
C77   H37   1.082292 S    
C93   H46   1.083569 S    
C108  H53   1.082268 S    
C50   C51   1.397802 A    
C18   C19   1.397307 A    
O21   C75   1.292783 A    
C53   C54   1.405213 A    
C55   C60   1.403406 A    
C21   C22   1.403606 A    
C35   H18   1.082940 S    
O18   Cu6   1.968885 S    
C98   H49   1.083460 S    
C31   H15   1.082949 S    
C5    C10   1.397661 A    
O10   Cu4   1.968831 S    
C81   C82   1.397352 A    
H19   C42   1.082421 S    
O13   C71   1.284181 A    
O3    Cu1   1.969688 S    
Cu3   O15   1.969805 S    
C63   C64   1.396761 A    
C59   C60   1.416380 A    
C83   C84   1.396681 A    
C95   C96   1.399071 A    
C44   C72   1.458547 S    
C38   N9    1.442166 S    
N5    C62   1.358122 A    
C24   C25   1.405056 A    
C108  C109  1.398036 A    
C89   N11   1.440153 S    
C31   C32   1.397188 A    
C45   C54   1.478852 S    
C40   H21   1.083464 S    
C58   H31   1.082989 S    
C83   C88   1.391908 A    
C57   C58   1.404563 A    
O15   C72   1.286456 A    
Cu1   Cu2   2.683938 S    
O20   C74   1.299704 A    
C3    C60   1.474152 S    
C110  H55   1.081687 S    
C87   C88   1.417062 A    
C43   C44   1.401511 A    
C29   C36   1.478041 S    
C109  H54   1.082302 S    
C86   C87   1.399395 A    
H47   C100  1.082374 S    
O12   Cu4   1.969805 S    
C11   C12   1.415039 A    
C47   C48   1.407373 A    
C44   C45   1.413211 A    
N9    O25   1.300502 A    
C17   H6    1.083188 S    
O1    C1    1.299043 A    
C103  C112  1.476848 S    
C104  C105  1.397696 A    
Cu6   O24   1.949468 S    
C97   C98   1.405578 A    
C102  C103  1.409392 A    
C31   C36   1.404881 A    
C51   C52   1.397909 A    
O23   C76   1.299193 A    
C101  C106  1.397128 A    
C97   C106  1.482727 S    
C56   H30   1.082770 S    
C8    C9    1.398315 A    
C79   C88   1.481374 S    
Cu2   O8    1.969687 S    
C49   C54   1.403831 A    
C27   H14   1.083018 S    
C33   C74   1.476027 S    
C101  C102  1.403266 A    
H1    C10   1.082300 S    
C111  H56   1.083218 S    
C67   H35   1.082703 S    
C58   C59   1.403705 A    
C26   C27   1.396838 A    
C23   C24   1.397224 A    
C34   C35   1.397489 A    
C37   H20   1.082413 S    
C67   C68   1.405914 A    
C40   C41   1.394692 A    
Cu4   O16   1.969832 S    
C5    C6    1.398729 A    
C21   H10   1.077559 S    
C46   C47   1.396453 A    
O8    C4    1.292844 A    
C96   F3    1.357497 S    
C53   H28   1.083500 S    
C49   C50   1.397980 A    
C23   H11   1.082995 S    
C81   H40   1.082363 S    
C9    C10   1.396954 A    
C43   H23   1.084582 S    
O3    C2    1.291021 A    
C78   C79   1.404681 A    
N3    N4    1.331883 A    
C59   N10   1.438013 S    
N6    C61   1.357711 A    
C99   C100  1.396810 A    
C77   C82   1.397683 A    
C89   C94   1.418402 A    
C51   H27   1.082388 S    
Cu5   O21   1.969003 S    
C85   C94   1.479978 S    
C91   H44   1.082394 S    
O17   C73   1.292946 A    
O11   C70   1.287135 A    
C103  C104  1.391313 A    
Cu1   O5    1.949779 S    
N2    C29   1.358045 A    
C14   H5    1.085307 S    
C2    C15   1.449758 S    
O1    Cu1   1.949665 S    
C75   C84   1.449860 S    
C107  C108  1.398502 A    
O2    Cu2   1.949781 S    
C4    C47   1.449054 S    
C111  C112  1.403553 A    
C38   C39   1.420444 A    
C25   C26   1.404825 A    
O6    C3    1.298653 A    
Cu3   O13   1.969047 S    
O4    Cu2   1.970353 S    
C64   C65   1.404081 A    
N1    C30   1.358112 A    
O9    Cu3   1.968808 S    
N1    N2    1.331814 A    
C57   C62   1.480424 S    
O24   C76   1.299675 A    
O18   C73   1.294184 A    
C98   C99   1.398639 A    
C104  H51   1.085043 S    
C80   C81   1.398073 A    
O2    C1    1.299605 A    
C99   H50   1.081634 S    
C63   C68   1.405436 A    
C83   H41   1.085171 S    
C66   H34   1.082937 S    
C1    C28   1.474809 S    
C25   C30   1.477782 S    
C20   C21   1.398138 A    
C41   H22   1.082371 S    
O19   C74   1.300037 A    
C13   C22   1.486661 S    
N4    C30   1.358061 A    
C20   H9    1.081940 S    
C90   C91   1.396326 A    
C19   H8    1.082335 S    
O12   C70   1.284059 A    
C26   H13   1.082883 S    
C34   H17   1.083061 S    
C19   C20   1.396591 A    
O19   Cu5   1.949471 S    
C14   C15   1.392491 A    
C105  C106  1.411990 A    
C63   H32   1.082720 S    
C12   C70   1.458493 S    
C77   C78   1.398309 A    
N11   O29   1.301425 A    
C107  C112  1.403404 A    
C32   H16   1.083061 S    
C92   C93   1.395002 A    
C39   C48   1.480377 S    
N11   O30   1.300842 A    
N10   O28   1.301389 A    
C33   C34   1.404296 A    
C71   C105  1.454857 S    
C80   H39   1.083153 S    
C8    H3    1.083168 S    
Cu2   O6    1.949663 S    
C45   C46   1.393145 A    
N5    N6    1.331241 A    
N7    N8    1.332135 A    
C13   C14   1.390366 A    
N9    O26   1.301518 A    
O16   C72   1.286427 A    
C17   C22   1.406248 A    
C9    H4    1.081670 S    
C11   N12   1.438129 S    
C37   C38   1.408094 A    
Cu4   O14   1.969025 S    
C50   H26   1.082289 S    
C79   C80   1.404372 A    
O9    C69   1.280716 A    
C56   C57   1.403249 A    
C109  C110  1.397439 A    
C95   H48   1.082608 S    
C101  F4    1.360455 S    
C17   C18   1.398536 A    
C93   C94   1.404633 A    
C78   H38   1.081671 S    
C92   H45   1.081898 S    
