data_mof_unit_65211.cif
_audit_creation_date              2012-12-10T16:52:00-0500
_audit_creation_method            fapswitch 2.2
_symmetry_space_group_name_H-M    P1
_symmetry_Int_Tables_number       1
_space_group_crystal_system       triclinic
_cell_length_a                    18.37422
_cell_length_b                    18.375439
_cell_length_c                    18.386592
_cell_angle_alpha                 90.82561
_cell_angle_beta                  119.565162
_cell_angle_gamma                 119.459875
_cell_volume                      4422.31343769

loop_
_atom_site_label
_atom_site_type_symbol
_atom_type_description
_atom_site_fract_x
_atom_site_fract_y
_atom_site_fract_z
_atom_type_partial_charge
C1    C     C_R   0.777008 0.638199 0.638563 0.511219
C2    C     C_2   0.112280 0.307784 0.309067 -0.093014
C3    C     C_2   0.440192 0.162617 0.718773 -0.158405
C4    C     C_R   0.222986 0.361597 0.361842 0.512673
C5    C     C_2   0.504446 0.195442 0.807744 -0.093339
C6    C     C_2   0.442655 0.218799 0.662588 -0.157874
C7    C     C_2   0.498774 0.307760 0.695464 -0.093150
C8    C     C_2   0.056212 0.776141 0.718784 -0.158182
C9    C     C_2   0.112348 0.808987 0.807770 -0.093274
C10   C     C_2   0.943831 0.722402 0.662603 -0.157654
C11   C     C_2   0.887746 0.691111 0.695465 -0.093601
C12   C     C_3   0.568693 0.766941 0.835530 -0.106991
C13   C     C_2   0.441436 0.161097 0.224671 -0.159910
C14   C     C_2   0.491514 0.195305 0.187329 -0.086285
C15   C     C_2   0.436923 0.216738 0.275854 -0.160135
C16   C     C_R   0.499737 0.638206 0.361213 0.512274
C17   C     C_2   0.508194 0.304209 0.312884 -0.086342
C18   C     C_2   0.440385 0.777836 0.221519 -0.157568
C19   C     C_2   0.504525 0.808964 0.196693 -0.093398
C20   C     C_2   0.442761 0.724116 0.280165 -0.157914
C21   C     C_2   0.498738 0.691048 0.303347 -0.093069
C22   C     C_R   0.500460 0.138595 0.861615 0.511346
C23   C     C_3   0.593403 0.791878 0.766731 -0.122940
C24   C     C_R   0.500508 0.861849 0.138849 0.512404
C25   C     C_R   0.777089 0.138579 0.138192 0.511952
C26   C     C_R   0.223079 0.861850 0.861620 0.512043
C27   C     C_R   0.498791 0.140868 0.139748 0.517105
C28   C     C_R   0.499761 0.361580 0.638562 0.511760
C29   C     C_R   0.500184 0.858305 0.858363 0.506368
C30   C     C_R   0.501186 0.359031 0.360335 0.517486
C31   C     C_R   0.499912 0.641755 0.641679 0.505771
C32   C     C_3   0.474940 0.673426 0.766779 -0.122689
C33   C     C_3   0.406693 0.708197 0.733299 -0.123213
C34   C     C_3   0.525156 0.826649 0.733253 -0.123529
C35   C     C_3   0.500390 0.800906 0.801189 0.062773
C36   C     C_3   0.431404 0.733133 0.664501 -0.107814
C37   C     C_3   0.499707 0.699167 0.698842 0.062944
C38   C     C_2   0.943997 0.162594 0.222576 -0.158151
C39   C     C_2   0.887778 0.195396 0.190954 -0.093096
C40   C     C_2   0.056342 0.218826 0.276236 -0.157741
H1    H     H_    0.330016 0.674631 0.720365 0.114797
H2    H     H_    0.401999 0.090994 0.217134 0.159540
H3    H     H_    0.454317 0.609706 0.779752 0.115197
H4    H     H_    0.525954 0.263621 0.189037 0.105942
H5    H     H_    0.374506 0.184766 0.283588 0.158942
H6    H     H_    0.574694 0.337016 0.311011 0.105729
H7    H     H_    0.384089 0.792882 0.199111 0.156166
H8    H     H_    0.563478 0.797658 0.219429 0.106479
H9    H     H_    0.395337 0.710740 0.303972 0.155850
H10   H     H_    0.544760 0.700730 0.279212 0.107090
H11   H     H_    0.625178 0.781464 0.906504 0.129650
H12   H     H_    0.383768 0.091404 0.684838 0.155700
H13   H     H_    0.670080 0.825448 0.779666 0.115114
H14   H     H_    0.545775 0.890370 0.720280 0.114683
H15   H     H_    0.374922 0.718615 0.593526 0.128858
H16   H     H_    0.906810 0.091396 0.207990 0.155906
H17   H     H_    0.921610 0.265503 0.201785 0.107517
H18   H     H_    0.093789 0.184932 0.289794 0.155317
H19   H     H_    0.078233 0.343995 0.299300 0.106630
H20   H     H_    0.563504 0.265570 0.843971 0.107614
H21   H     H_    0.395150 0.184865 0.591320 0.155523
H22   H     H_    0.544857 0.344008 0.765656 0.107056
H23   H     H_    0.093510 0.789713 0.684830 0.155717
H24   H     H_    0.078432 0.799114 0.844036 0.106765
H25   H     H_    0.906486 0.707483 0.591342 0.156951
H26   H     H_    0.921703 0.702331 0.765648 0.107097
O1    O     O_3   0.500000 0.500000 0.500000 -0.443274
O2    O     O_R   0.270900 0.886160 0.946260 -0.541964
O3    O     O_R   0.560160 0.177420 0.117340 -0.541377
O4    O     O_R   0.729180 0.615300 0.675360 -0.541125
O5    O     O_R   0.440020 0.882760 0.822680 -0.543863
O6    O     O_R   0.439990 0.057240 0.117340 -0.545058
O7    O     O_R   0.560190 0.882760 0.942820 -0.546914
O8    O     O_R   0.729270 0.053840 0.113900 -0.541711
O9    O     O_R   0.270910 0.884750 0.824690 -0.541857
O10   O     O_R   0.560170 0.175430 0.946260 -0.540677
O11   O     O_R   0.440000 0.886160 0.115330 -0.541275
O12   O     O_R   0.439910 0.615300 0.386140 -0.541145
O13   O     O_R   0.270820 0.446200 0.386140 -0.541659
O14   O     O_R   0.560090 0.613880 0.384720 -0.540869
O15   O     O_R   0.439920 0.324620 0.553780 -0.542095
O16   O     O_R   0.560100 0.442800 0.382710 -0.542334
O17   O     O_R   0.560070 0.617290 0.677370 -0.542083
O18   O     O_R   0.439930 0.322630 0.382710 -0.545740
O19   O     O_R   0.439900 0.617290 0.557220 -0.547760
O20   O     O_R   0.560080 0.446200 0.675360 -0.540987
O21   O     O_R   0.729180 0.613880 0.553780 -0.540872
O22   O     O_R   0.270820 0.324620 0.384720 -0.542120
O23   O     O_3   0.500090 0.000040 0.000040 -0.443278
O24   O     O_R   0.440010 0.053840 0.824690 -0.542136
O25   O     O_R   0.560180 0.884750 0.113900 -0.542032
O26   O     O_R   0.729260 0.175430 0.115330 -0.539959
Zn1   Zn    Zn3+2 0.414150 0.543930 0.458110 0.935109
Zn2   Zn    Zn3+2 0.585850 0.541910 0.456060 0.939787
Zn3   Zn    Zn3+2 0.414160 0.370220 0.456060 0.932860
Zn4   Zn    Zn3+2 0.585840 0.543930 0.629770 0.938991
Zn5   Zn    Zn3+2 0.585940 0.956110 0.041940 0.935043
Zn6   Zn    Zn3+2 0.585930 0.129820 0.043980 0.942727
Zn7   Zn    Zn3+2 0.414240 0.958130 0.043980 0.935908
Zn8   Zn    Zn3+2 0.414250 0.956110 0.870280 0.933068

loop_
_geom_bond_atom_site_label_1
_geom_bond_atom_site_label_2
_ccdc_geom_bond_type
C1    O21   A    
C16   C21   S    
C31   O19   A    
C9    H24   S    
O4    Zn4   S    
C1    C11   S    
C22   O10   A    
C3    C6    S    
C18   H7    S    
O26   Zn6   S    
O7    Zn5   S    
C12   C23   S    
O23   Zn7   S    
O16   Zn2   S    
C6    H21   S    
C36   C37   S    
O13   Zn1   S    
C38   C39   D    
O15   Zn3   S    
C29   O7    A    
O12   Zn1   S    
O10   Zn6   S    
C39   H17   S    
O21   Zn2   S    
C33   C36   S    
C31   O17   A    
C34   C35   S    
C21   H10   S    
O19   Zn1   S    
C5    C22   S    
C8    C9    D    
O1    Zn2   S    
C14   C27   S    
C18   C20   S    
C27   O3    A    
C11   H26   S    
O3    Zn6   S    
O22   Zn3   S    
C13   C14   D    
C12   C32   S    
O1    Zn3   S    
C17   C30   S    
O24   Zn8   S    
C13   H2    S    
C9    C26   S    
C23   H13   S    
O8    Zn5   S    
C25   O8    A    
C40   H18   S    
O23   Zn8   S    
C17   H6    S    
C4    O13   A    
C2    H19   S    
C18   C19   D    
C23   C37   S    
C7    C28   S    
C31   C37   S    
O23   Zn5   S    
C16   O14   A    
O18   Zn3   S    
C30   O16   A    
C2    C4    S    
C7    H22   S    
C20   H9    S    
C23   C34   S    
C26   O9    A    
C22   O24   A    
C32   C37   S    
O25   Zn5   S    
C12   C35   S    
O20   Zn4   S    
C34   H14   S    
C13   C15   S    
C28   O20   A    
O1    Zn4   S    
C15   H5    S    
O14   Zn2   S    
C24   O25   A    
C12   H11   S    
C14   H4    S    
C10   H25   S    
C15   C17   D    
C25   O26   A    
C5    H20   S    
C28   O15   A    
C19   H8    S    
C3    C5    D    
C3    H12   S    
C6    C7    D    
C4    O22   A    
O5    Zn8   S    
C29   C35   S    
C1    O4    A    
O23   Zn6   S    
C33   H1    S    
C32   C33   S    
C19   C24   S    
O2    Zn7   S    
C26   O2    A    
C36   H15   S    
C25   C39   S    
C38   C40   S    
O17   Zn4   S    
O9    Zn8   S    
C33   C35   S    
C32   H3    S    
O11   Zn7   S    
C16   O12   A    
C30   O18   A    
C10   C11   D    
C8    H23   S    
C2    C40   D    
C24   O11   A    
C38   H16   S    
C20   C21   D    
C34   C36   S    
C8    C10   S    
O1    Zn1   S    
C27   O6    A    
C29   O5    A    
O6    Zn7   S    
