data_mof_unit_57856.cif
_audit_creation_date              2012-10-26T20:05:03-0400
_audit_creation_method            fapswitch 2.2
_symmetry_space_group_name_H-M    P1
_symmetry_Int_Tables_number       1
_space_group_crystal_system       triclinic
_cell_length_a                    15.871991
_cell_length_b                    15.041428
_cell_length_c                    13.706118
_cell_angle_alpha                 90.190197
_cell_angle_beta                  90.149292
_cell_angle_gamma                 89.238833
_cell_volume                      3271.84560286

loop_
_atom_site_label
_atom_site_type_symbol
_atom_type_description
_atom_site_fract_x
_atom_site_fract_y
_atom_site_fract_z
_atom_type_partial_charge
C1    C     C_R   0.502114 0.328974 0.499885 0.541319
C2    C     C_R   0.503254 0.046984 0.500956 0.046599
C3    C     C_R   0.424489 0.909683 0.527930 0.026336
C4    C     C_R   0.578656 0.090671 0.474408 0.027247
C5    C     C_R   0.646346 0.946087 0.449582 -0.138475
C6    C     C_R   0.356765 0.054104 0.552862 -0.139250
C7    C     C_R   0.649879 0.038360 0.449516 -0.139327
C8    C     C_R   0.353316 0.961978 0.553133 -0.140371
C9    C     C_R   0.559894 0.451840 0.793412 0.039241
C10   C     C_R   0.439734 0.547699 0.206618 0.039431
C11   C     C_R   0.440085 0.548165 0.793356 0.038765
C12   C     C_R   0.498741 0.671072 0.500192 0.542480
C13   C     C_R   0.560701 0.453154 0.206533 0.033030
C14   C     C_R   0.438468 0.549091 0.896388 -0.015110
C15   C     C_R   0.561934 0.451692 0.103552 -0.015279
C16   C     C_R   0.339667 0.499689 0.499863 0.543739
C17   C     C_R   0.660221 0.498980 0.500128 0.540417
C18   C     C_R   0.500000 0.500083 0.948184 0.053469
C19   C     C_R   0.500036 0.500164 0.051778 0.054057
C20   C     C_R   0.561561 0.451069 0.896440 -0.015586
C21   C     C_R   0.438320 0.548915 0.103562 -0.015445
C22   C     C_R   0.377103 0.597714 0.948655 -0.145708
C23   C     C_R   0.496078 0.767445 0.501083 0.007362
C24   C     C_R   0.623380 0.403164 0.051339 -0.146587
C25   C     C_R   0.376973 0.597545 0.051265 -0.145566
C26   C     C_R   0.623097 0.402714 0.948748 -0.145246
C27   C     C_3   0.973442 0.415440 0.540135 -0.106225
C28   C     C_3   0.025705 0.569620 0.460281 -0.106982
C29   C     C_3   0.028947 0.423522 0.447773 0.029399
C30   C     C_3   0.970400 0.561503 0.552616 0.028892
C31   C     C_1   0.249968 0.497747 0.499586 -0.047504
C32   C     C_1   0.749722 0.495305 0.500399 -0.053819
C33   C     C_3   0.027897 0.486143 0.592112 0.027112
C34   C     C_R   0.506080 0.232648 0.499917 0.005067
C35   C     C_3   0.971430 0.498906 0.408306 0.028553
C36   C     C_3   0.082678 0.493616 0.500046 0.026665
C37   C     C_3   0.916766 0.491491 0.500272 0.028024
C38   C     C_1   0.174455 0.495824 0.499580 -0.088462
C39   C     C_1   0.825131 0.492437 0.500459 -0.087424
C40   C     C_R   0.422414 0.815349 0.528011 -0.017314
C41   C     C_R   0.580363 0.185086 0.473957 -0.020001
C42   C     C_3   0.067792 0.343649 0.394104 -0.248769
C43   C     C_3   0.000338 0.281738 0.353362 -0.304274
C44   C     C_3   0.040221 0.200101 0.304892 -0.456883
C45   C     C_R   0.569381 0.811044 0.474558 -0.143306
C46   C     C_3   0.930139 0.640302 0.606961 -0.249030
C47   C     C_3   0.996110 0.704254 0.646739 -0.306052
C48   C     C_3   0.954590 0.781689 0.701282 -0.456840
C49   C     C_3   0.933437 0.511132 0.306388 -0.251453
C50   C     C_3   0.001472 0.521039 0.228270 -0.299424
C51   C     C_3   0.962254 0.539419 0.128510 -0.458357
C52   C     C_3   0.065906 0.473821 0.694010 -0.250364
C53   C     C_3   0.997958 0.463573 0.772191 -0.299615
C54   C     C_3   0.037222 0.443560 0.871558 -0.458127
C55   C     C_3   0.341592 0.766424 0.551931 -0.255246
C56   C     C_R   0.433136 0.188878 0.526855 -0.142582
C57   C     C_3   0.281196 0.768052 0.464246 -0.297673
C58   C     C_3   0.191418 0.748215 0.495274 -0.469086
C59   C     C_3   0.660240 0.235144 0.448266 -0.247371
C60   C     C_3   0.673117 0.238629 0.337429 -0.289551
C61   C     C_3   0.751220 0.291679 0.311522 -0.469591
C62   C     C_R   0.572078 0.903292 0.475067 0.009697
C63   C     C_R   0.430942 0.096790 0.527139 0.009941
C64   C     C_R   0.499936 0.953228 0.501498 0.046309
Cu1   Cu    Cu3+1 0.500010 0.499990 0.597420 0.926703
Cu2   Cu    Cu3+1 0.499990 0.500010 0.402580 0.926822
H1    H     H_    0.329155 0.635813 0.910202 0.098578
H2    H     H_    0.392828 0.585087 0.247397 0.118642
H3    H     H_    0.393546 0.586065 0.752561 0.115387
H4    H     H_    0.608391 0.417128 0.247172 0.119790
H5    H     H_    0.081223 0.220401 0.243521 0.152753
H6    H     H_    0.078290 0.161677 0.358693 0.150361
H7    H     H_    0.989947 0.156654 0.275814 0.138275
H8    H     H_    0.958656 0.259512 0.413308 0.153437
H9    H     H_    0.961364 0.317328 0.298352 0.160249
H10   H     H_    0.108670 0.367544 0.334364 0.139110
H11   H     H_    0.108263 0.306328 0.446571 0.140887
H12   H     H_    0.671564 0.365435 0.089806 0.098668
H13   H     H_    0.911854 0.819543 0.651798 0.151488
H14   H     H_    0.918024 0.756833 0.764339 0.152770
H15   H     H_    0.003847 0.827172 0.728846 0.137471
H16   H     H_    0.039612 0.668967 0.697322 0.160398
H17   H     H_    0.033091 0.731093 0.585246 0.157475
H18   H     H_    0.888107 0.676611 0.555270 0.141060
H19   H     H_    0.890541 0.615071 0.667176 0.140611
H20   H     H_    0.328923 0.635509 0.089691 0.100044
H21   H     H_    0.671092 0.364655 0.910343 0.100819
H22   H     H_    0.921441 0.483441 0.106139 0.148417
H23   H     H_    0.950355 0.352780 0.572516 0.090680
H24   H     H_    0.924124 0.601858 0.130550 0.152706
H25   H     H_    0.012914 0.546841 0.073553 0.138822
H26   H     H_    0.043630 0.576826 0.247714 0.157640
H27   H     H_    0.039936 0.459132 0.223254 0.161713
H28   H     H_    0.892707 0.453794 0.288896 0.134703
H29   H     H_    0.892890 0.571948 0.307570 0.143486
H30   H     H_    0.074718 0.380733 0.868506 0.152555
H31   H     H_    0.078647 0.498799 0.894622 0.148971
H32   H     H_    0.986607 0.436036 0.926555 0.138564
H33   H     H_    0.960105 0.525806 0.778297 0.161489
H34   H     H_    0.047599 0.632261 0.427101 0.090513
H35   H     H_    0.955240 0.408465 0.752080 0.157749
H36   H     H_    0.106600 0.413116 0.692606 0.143831
H37   H     H_    0.106469 0.531251 0.711661 0.133885
H38   H     H_    0.167997 0.800894 0.545714 0.141628
H39   H     H_    0.188753 0.682892 0.532409 0.159952
H40   H     H_    0.150035 0.747149 0.429928 0.134274
H41   H     H_    0.281043 0.834060 0.428048 0.167856
H42   H     H_    0.302394 0.717629 0.409764 0.163726
H43   H     H_    0.353346 0.696073 0.572055 0.155270
H44   H     H_    0.312144 0.795708 0.618243 0.129964
H45   H     H_    0.624958 0.772464 0.454248 0.105802
H46   H     H_    0.759513 0.292343 0.231139 0.129473
H47   H     H_    0.808093 0.260768 0.345176 0.146829
H48   H     H_    0.744548 0.361355 0.337632 0.160473
H49   H     H_    0.680256 0.170537 0.306868 0.158875
H50   H     H_    0.616972 0.269906 0.302556 0.174391
H51   H     H_    0.658057 0.304113 0.477098 0.149080
H52   H     H_    0.715811 0.204491 0.485000 0.123950
H53   H     H_    0.709179 0.067261 0.429290 0.107830
H54   H     H_    0.293795 0.933207 0.572763 0.113275
H55   H     H_    0.377293 0.227261 0.546693 0.106267
H56   H     H_    0.702166 0.907979 0.429585 0.104417
H57   H     H_    0.300854 0.092190 0.572593 0.104302
H58   H     H_    0.606501 0.414018 0.752657 0.121005
N1    N     N_R   0.499960 0.499930 0.743810 -0.235849
N2    N     N_R   0.500040 0.500070 0.256190 -0.235897
O1    O     O_R   0.500020 0.370250 0.582280 -0.500407
O2    O     O_R   0.499980 0.629750 0.417720 -0.498067
O3    O     O_R   0.500010 0.370270 0.417740 -0.498304
O4    O     O_R   0.499990 0.629730 0.582260 -0.502991
O5    O     O_R   0.379080 0.499980 0.582260 -0.507474
O6    O     O_R   0.620920 0.500020 0.417740 -0.505597
O7    O     O_R   0.379070 0.500000 0.417710 -0.500858
O8    O     O_R   0.620930 0.500000 0.582290 -0.500591

loop_
_geom_bond_atom_site_label_1
_geom_bond_atom_site_label_2
_ccdc_geom_bond_type
C52   H37   S    
C34   C56   A    
C23   C45   A    
C29   C42   S    
C27   C29   S    
C14   C18   A    
C9    H58   S    
Cu1   O4    S    
C53   C54   S    
C27   C33   S    
C16   C31   S    
C15   C19   A    
C29   C36   S    
C52   H36   S    
C12   O4    A    
Cu1   O1    S    
C48   H13   S    
C11   N1    A    
C24   C26   A    
C1    O3    A    
C51   H24   S    
C11   C14   A    
C32   C39   T    
C13   H4    S    
C23   C40   A    
C45   C62   A    
C33   C36   S    
C48   H15   S    
C44   H5    S    
C18   C19   A    
C47   H16   S    
C16   O5    A    
C62   C64   A    
C51   H25   S    
C46   C47   S    
C28   C35   S    
C53   H35   S    
C26   H21   S    
C22   C25   A    
C35   C49   S    
C54   H31   S    
C44   H6    S    
C47   H17   S    
C49   H28   S    
C54   H30   S    
Cu1   O8    S    
Cu2   O3    S    
C28   H34   S    
C43   H8    S    
C59   C60   S    
C59   H51   S    
C55   H43   S    
C17   O6    A    
C34   C41   A    
C6    H57   S    
C4    C7    A    
C16   O7    A    
Cu1   O5    S    
C2    C64   A    
C1    C34   S    
Cu2   O6    S    
C10   C21   A    
C43   H9    S    
C7    H53   S    
C41   C59   S    
C3    C8    A    
C5    C7    A    
C6    C8    A    
C3    C64   A    
C5    H56   S    
C53   H33   S    
Cu2   N2    S    
C30   C37   S    
C60   C61   S    
C58   H40   S    
Cu1   N1    S    
C6    C63   A    
C2    C4    A    
C43   C44   S    
Cu2   O7    S    
C9    C20   A    
C47   C48   S    
C12   C23   S    
C40   C55   S    
C11   H3    S    
C50   C51   S    
C56   C63   A    
C49   H29   S    
C46   H18   S    
C13   N2    A    
C50   H26   S    
C15   C24   A    
C57   H41   S    
C3    C40   A    
Cu1   Cu2   S    
C59   H52   S    
C55   C57   S    
C55   H44   S    
C61   H47   S    
C14   C22   A    
C60   H50   S    
C58   H38   S    
C42   C43   S    
C36   C38   S    
C61   H48   S    
C52   C53   S    
C8    H54   S    
C24   H12   S    
C21   C25   A    
C2    C63   A    
C30   C33   S    
C35   C37   S    
C30   C46   S    
C1    O1    A    
C51   H22   S    
C33   C52   S    
C45   H45   S    
C50   H27   S    
C12   O2    A    
C10   H2    S    
C29   C35   S    
C42   H10   S    
C31   C38   T    
C58   H39   S    
C56   H55   S    
C46   H19   S    
C13   C15   A    
C37   C39   S    
C48   H14   S    
C57   C58   S    
C20   C26   A    
C27   C37   S    
C28   C30   S    
C25   H20   S    
Cu2   O2    S    
C5    C62   A    
C27   H23   S    
C18   C20   A    
C44   H7    S    
C9    N1    A    
C22   H1    S    
C57   H42   S    
C28   C36   S    
C42   H11   S    
C49   C50   S    
C4    C41   A    
C17   O8    A    
C17   C32   S    
C54   H32   S    
C60   H49   S    
C10   N2    A    
C61   H46   S    
C19   C21   A    
