data_mof_unit_35629.cif
_audit_creation_date              2012-12-10T18:57:11-0500
_audit_creation_method            fapswitch 2.2
_symmetry_space_group_name_H-M    P1
_symmetry_Int_Tables_number       1
_space_group_crystal_system       triclinic
_cell_length_a                    10.745963
_cell_length_b                    9.809928
_cell_length_c                    10.671183
_cell_angle_alpha                 88.80905
_cell_angle_beta                  90.671405
_cell_angle_gamma                 89.849009
_cell_volume                      1124.60052576

loop_
_atom_site_label
_atom_site_type_symbol
_atom_type_description
_atom_site_fract_x
_atom_site_fract_y
_atom_site_fract_z
_atom_type_partial_charge
C1    C     C_R   0.259869 0.500090 0.490385 0.936363
C2    C     C_R   0.513892 0.620073 0.933173 0.079061
C3    C     C_R   0.541868 0.504412 0.130423 -0.305601
C4    C     C_R   0.498705 0.494710 0.875424 -0.313079
C5    C     C_R   0.565106 0.382517 0.068009 0.360866
C6    C     C_R   0.518691 0.371779 0.945989 0.358397
C7    C     C_3   0.426361 0.739325 0.931389 -0.399767
C8    C     C_3   0.442410 0.743302 0.072461 -0.431728
C9    C     C_R   0.061207 0.376127 0.473250 0.302203
C10   C     C_R   0.940023 0.373512 0.515048 0.396037
C11   C     C_R   0.873803 0.497753 0.514740 -0.215128
C12   C     C_R   0.740355 0.499256 0.508554 0.961743
C13   C     C_R   0.126663 0.499808 0.481472 -0.249938
C14   C     C_R   0.936310 0.622343 0.505665 -0.201567
C15   C     C_R   0.063445 0.622985 0.496511 -0.196190
C16   C     C_R   0.558966 0.069596 0.592968 0.093867
C17   C     C_R   0.441872 0.074015 0.406188 0.117842
C18   C     C_R   0.559360 0.925685 0.593143 -0.050740
C19   C     C_R   0.441162 0.930076 0.406458 -0.044448
C20   C     C_R   0.512861 0.501357 0.260816 0.953826
C21   C     C_R   0.493328 0.498075 0.741016 0.957465
C22   C     C_R   0.528389 0.624677 0.060347 0.108058
H1    H     H_    0.466194 0.829778 0.882051 0.240269
H2    H     H_    0.393804 0.877199 0.331952 0.135948
H3    H     H_    0.812728 0.128512 0.061967 0.401185
H4    H     H_    0.343723 0.065427 0.020739 0.383195
H5    H     H_    0.165511 0.355404 0.222702 0.356412
H6    H     H_    0.796696 0.190771 0.772463 0.404309
H7    H     H_    0.355901 0.717221 0.123785 0.200868
H8    H     H_    0.330500 0.711867 0.900790 0.210801
H9    H     H_    0.491616 0.836060 0.104558 0.241138
H10   H     H_    0.887735 0.719136 0.508709 0.217865
H11   H     H_    0.111560 0.719832 0.499249 0.218081
H12   H     H_    0.607497 0.122595 0.665572 0.200997
H13   H     H_    0.395952 0.130042 0.330810 0.219336
H14   H     H_    0.607445 0.869370 0.667345 0.150145
N1    N     N_R   0.500000 0.857200 0.500000 -0.103976
N2    N     N_R   0.500000 0.142810 0.500000 -0.105021
O1    O     O_R   0.316770 0.614620 0.499990 -0.639494
O2    O     O_2   0.589770 0.133753 0.178162 -0.278585
O3    O     O_3   0.761840 0.201544 0.021178 -0.519865
O4    O     O_2   0.353800 0.227063 0.802830 -0.266288
O5    O     O_2   0.542322 0.109440 0.882192 -0.327404
O6    O     O_3   0.366580 0.161162 0.037474 -0.505286
O7    O     O_2   0.184555 0.137855 0.474883 -0.240851
O8    O     O_2   0.011269 0.162231 0.325862 -0.217898
O9    O     O_3   0.215286 0.290801 0.275464 -0.553324
O10   O     O_2   0.814315 0.137334 0.503791 -0.246468
O11   O     O_2   0.993896 0.143039 0.646841 -0.241132
O12   O     O_R   0.683230 0.614620 0.500010 -0.640294
O13   O     O_3   0.794031 0.269312 0.712701 -0.576453
O14   O     O_R   0.316800 0.385290 0.500000 -0.544900
O15   O     O_R   0.683200 0.385290 0.500000 -0.536409
O16   O     O_R   0.500000 0.614690 0.316780 -0.639423
O17   O     O_R   0.500000 0.614690 0.683220 -0.636143
O18   O     O_R   0.500020 0.385360 0.316780 -0.565256
O19   O     O_R   0.499980 0.385360 0.683220 -0.565200
O20   O     O_2   0.740271 0.308390 0.239762 -0.281050
S1    S     S_3+6 0.664572 0.253536 0.132848 0.100839
S2    S     S_3+6 0.445174 0.214359 0.910169 0.061441
S3    S     S_3+6 0.117477 0.235645 0.387420 0.084050
S4    S     S_3+6 0.885842 0.223977 0.593827 0.077647
Zn1   Zn    Zn3+2 0.500000 0.653120 0.500000 0.974531
Zn2   Zn    Zn3+2 0.500000 0.346880 0.500000 1.134122

loop_
_geom_bond_atom_site_label_1
_geom_bond_atom_site_label_2
_ccdc_geom_bond_type
C2    C22   A    
C8    C22   S    
C11   C12   S    
O18   Zn2   S    
C21   O19   A    
O12   Zn1   S    
C6    S2    S    
O17   Zn1   S    
O1    Zn1   S    
C9    C10   A    
O10   S4    D    
C2    C7    S    
N1    Zn1   S    
C20   O18   A    
C19   H2    S    
H4    O6    S    
C7    C8    S    
O2    S1    D    
C8    H7    S    
C4    C21   S    
C8    H9    S    
C10   S4    S    
O13   S4    S    
O5    S2    D    
O6    S2    S    
C9    S3    S    
C2    C4    A    
O7    S3    D    
C17   C19   A    
C18   N1    A    
N2    Zn2   S    
C17   N2    A    
C13   C15   A    
C5    C6    A    
H6    O13   S    
C7    H1    S    
C19   N1    A    
C4    C6    A    
C1    C13   S    
C10   C11   A    
C1    O1    A    
O8    S3    D    
H3    O3    S    
O4    S2    D    
O9    S3    S    
C3    C20   S    
C16   N2    A    
O3    S1    S    
O19   Zn2   S    
C20   O16   A    
O14   Zn2   S    
H5    O9    S    
C11   C14   A    
C21   O17   A    
C5    S1    S    
O16   Zn1   S    
C3    C22   A    
C9    C13   A    
O11   S4    D    
C17   H13   S    
C16   H12   S    
O20   S1    D    
C14   C15   A    
C1    O14   A    
C18   H14   S    
O15   Zn2   S    
C15   H11   S    
C16   C18   A    
C12   O15   A    
C14   H10   S    
C12   O12   A    
C3    C5    A    
C7    H8    S    
