data_mof_unit_38502.cif
_audit_creation_date              2012-12-10T17:12:37-0500
_audit_creation_method            fapswitch 2.2
_symmetry_space_group_name_H-M    P1
_symmetry_Int_Tables_number       1
_space_group_crystal_system       triclinic
_cell_length_a                    22.982577
_cell_length_b                    10.796459
_cell_length_c                    10.067749
_cell_angle_alpha                 88.81623
_cell_angle_beta                  89.67832
_cell_angle_gamma                 90.920135
_cell_volume                      2497.21569576

loop_
_atom_site_label
_atom_site_type_symbol
_atom_type_description
_atom_site_fract_x
_atom_site_fract_y
_atom_site_fract_z
_atom_type_partial_charge
C1    C     C_R   0.498608 0.262715 0.501142 0.944225
C2    C     C_R   0.970954 0.351319 0.715096 -0.095814
C3    C     C_R   0.030327 0.365754 0.747310 -0.244449
C4    C     C_R   0.061825 0.472524 0.702109 -0.101462
C5    C     C_R   0.033274 0.566558 0.628323 0.018882
C6    C     C_R   0.064181 0.676712 0.591308 -0.124690
C7    C     C_R   0.035041 0.775697 0.527004 -0.120553
C8    C     C_R   0.975934 0.760991 0.492278 -0.115711
C9    C     C_R   0.122370 0.487248 0.720742 0.637002
C10   C     C_R   0.123996 0.681665 0.620490 0.652610
C11   C     C_R   0.239812 0.637712 0.506425 0.628625
C12   C     C_R   0.389097 0.502998 0.500365 0.935250
C13   C     C_R   0.297920 0.621794 0.468862 -0.229306
C14   C     C_R   0.325636 0.510310 0.504103 -0.298896
C15   C     C_R   0.293015 0.411576 0.562070 -0.204205
C16   C     C_R   0.235221 0.430544 0.600143 0.624569
C17   C     C_R   0.210183 0.549718 0.590135 -0.071114
C18   C     C_R   0.767525 0.420753 0.461711 -0.212310
C19   C     C_R   0.707048 0.415401 0.454967 0.667639
C20   C     C_R   0.674116 0.514827 0.499488 -0.348158
C21   C     C_R   0.702267 0.623638 0.544680 -0.324198
C22   C     C_R   0.762845 0.626242 0.553987 0.706492
C23   C     C_R   0.502597 0.737056 0.497807 0.839107
C24   C     C_R   0.795490 0.524854 0.514085 0.045225
C25   C     C_2   0.504315 0.939193 0.385400 -0.273126
C26   C     C_2   0.516757 0.866339 0.491462 0.387575
C27   C     C_2   0.513057 0.070127 0.398770 0.621643
C28   C     C_2   0.489545 0.131272 0.500780 -0.281322
C29   C     C_2   0.534216 0.568525 0.924999 0.601720
C30   C     C_2   0.541887 0.546996 0.071502 -0.006419
C31   C     C_R   0.610904 0.503158 0.499582 0.991211
C32   C     C_R   0.889159 0.622822 0.478156 0.646205
C33   C     C_R   0.881768 0.441770 0.616707 0.565017
C34   C     C_R   0.942151 0.446487 0.642311 -0.076802
C35   C     C_R   0.973886 0.553378 0.597681 0.010965
C36   C     C_R   0.946179 0.647148 0.521936 -0.097169
H1    H     H_    0.792682 0.342795 0.429493 0.221871
N1    N     N_R   0.857320 0.527051 0.533028 -0.325885
N2    N     N_R   0.152399 0.573917 0.645961 -0.326750
N3    N     N_2   0.500610 0.501330 0.852150 -0.227010
N4    N     N_2   0.500630 0.501360 0.147810 0.111827
O1    O     O_R   0.499990 0.319060 0.613040 -0.617050
O2    O     O_2   0.847108 0.356084 0.678084 -0.493354
O3    O     O_2   0.150287 0.422327 0.816016 -0.435745
O4    O     O_2   0.152144 0.790995 0.634728 -0.421842
O5    O     O_R   0.500010 0.319100 0.386900 -0.534411
O6    O     O_R   0.416150 0.499940 0.613100 -0.625165
O7    O     O_R   0.416160 0.499980 0.386960 -0.501129
O8    O     O_R   0.499990 0.680900 0.613100 -0.518413
O9    O     O_R   0.500010 0.680940 0.386960 -0.616403
O10   O     O_R   0.583840 0.500020 0.613040 -0.568809
O11   O     O_R   0.583850 0.500060 0.386900 -0.610920
O12   O     O_2   0.865237 0.693221 0.381230 -0.487586
Zn1   Zn    Zn3+2 0.499990 0.499970 0.650990 1.118899
Zn2   Zn    Zn3+2 0.500010 0.500030 0.349010 1.178357
C37   C     C_2   0.941626 0.230705 0.747558 1.026871
O13   O     O_2   0.924451 0.164866 0.657993 -0.535050
O14   O     O_R   0.934631 0.192052 0.880087 -0.753896
H2    H     H_    0.914500 0.108045 0.889273 0.386182
F1    F     F_    0.680478 0.311812 0.408609 -0.582294
C38   C     C_2   0.670559 0.737322 0.578972 1.047566
O15   O     O_2   0.625900 0.730730 0.644781 -0.490322
O16   O     O_R   0.693002 0.853261 0.538350 -0.682701
H3    H     H_    0.667876 0.924039 0.567987 0.394411
F2    F     F_    0.790321 0.725488 0.608080 -0.572158
C39   C     C_2   0.477478 0.899787 0.258983 1.032945
O17   O     O_2   0.430982 0.943386 0.225045 -0.572461
O18   O     O_R   0.507322 0.822638 0.173401 -0.689438
H4    H     H_    0.484891 0.805558 0.089121 0.373327
F3    F     F_    0.543347 0.914770 0.600005 -0.607594
F4    F     F_    0.547465 0.128281 0.305042 -0.571894
C40   C     C_2   0.448586 0.074093 0.601500 0.978555
O19   O     O_2   0.449138 0.109370 0.716100 -0.526517
O20   O     O_R   0.408771 0.981891 0.564735 -0.813799
H5    H     H_    0.384354 0.949058 0.642298 0.366832
F5    F     F_    0.564480 0.663823 0.866217 -0.562361
C41   C     C_2   0.483414 0.379980 0.897561 1.082325
O21   O     O_2   0.434901 0.340444 0.870453 -0.510237
O22   O     O_R   0.522621 0.303744 0.965261 -0.773539
H6    H     H_    0.505073 0.219553 0.989870 0.396662
C42   C     C_2   0.599317 0.579794 0.125659 1.015213
O23   O     O_2   0.641880 0.520946 0.092958 -0.551315
O24   O     O_R   0.605599 0.681519 0.208211 -0.724253
H7    H     H_    0.647318 0.695469 0.237313 0.349485
C43   C     C_2   0.060132 0.262072 0.816925 1.101083
O25   O     O_2   0.087552 0.187970 0.752594 -0.430240
O26   O     O_R   0.057284 0.248292 0.955090 -0.681266
H8    H     H_    0.033991 0.315843 0.997903 0.335280
F6    F     F_    0.446658 0.511944 0.099915 -0.545713
C44   C     C_2   0.066257 0.892866 0.489414 1.068687
O27   O     O_2   0.052246 0.990080 0.539981 -0.548150
O28   O     O_R   0.110894 0.891687 0.394610 -0.665166
H9    H     H_    0.128783 0.976958 0.377135 0.390631
C45   C     C_2   0.944927 0.868305 0.432564 1.050298
O29   O     O_2   0.962149 0.915741 0.327891 -0.566660
O30   O     O_R   0.896191 0.914965 0.497201 -0.660822
H10   H     H_    0.878764 0.987845 0.447317 0.387945
F7    F     F_    0.211235 0.732638 0.447121 -0.556372
C46   C     C_2   0.328084 0.725311 0.395057 1.020145
O31   O     O_2   0.364025 0.704433 0.308866 -0.554287
O32   O     O_R   0.313295 0.847663 0.421095 -0.685046
H11   H     H_    0.334634 0.910196 0.361499 0.399980
C47   C     C_2   0.318069 0.286429 0.581104 1.070517
O33   O     O_2   0.353271 0.248004 0.501005 -0.640751
O34   O     O_R   0.300478 0.211520 0.689439 -0.650363
H12   H     H_    0.319925 0.127968 0.690821 0.369305
F8    F     F_    0.202207 0.328618 0.631599 -0.558320

loop_
_geom_bond_atom_site_label_1
_geom_bond_atom_site_label_2
_ccdc_geom_bond_type
O7    Zn2   S    
N4    F6    S    
O26   H8    S    
O32   H11   S    
C3    C43   S    
C39   O18   S    
C19   C20   A    
C31   O11   A    
C12   O7    A    
C42   O23   D    
C7    C8    A    
C29   F5    S    
C41   O21   D    
C11   F7    S    
C18   C24   A    
C32   C36   A    
C18   H1    S    
C18   C19   A    
C8    C36   A    
C5    C6    A    
C1    O5    A    
C23   O8    A    
O8    Zn1   S    
C9    N2    A    
C37   O13   D    
C34   C35   A    
C17   N2    S    
C23   C26   S    
C38   O16   S    
N4    Zn2   S    
C16   F8    S    
O24   H7    S    
O18   H4    S    
O5    Zn2   S    
C1    C28   S    
C24   N1    S    
C30   N4    D    
C32   N1    A    
C21   C38   S    
C38   O15   D    
O11   Zn2   S    
C2    C34   A    
C41   O22   S    
C39   O17   D    
C21   C22   A    
C28   C40   S    
C12   O6    A    
C42   O24   S    
C43   O26   S    
O20   H5    S    
C33   O2    S    
C8    C45   S    
C40   O20   S    
C16   C17   A    
C23   O9    A    
O14   H2    S    
C43   O25   D    
C7    C44   S    
O22   H6    S    
C10   N2    A    
C35   C36   A    
C13   C46   S    
C22   F2    S    
C29   C30   S    
C44   O28   S    
C46   O31   D    
O30   H10   S    
C10   O4    S    
C33   C34   A    
C47   O34   S    
C45   O30   S    
O6    Zn1   S    
C46   O32   S    
C12   C14   S    
N3    Zn1   S    
C26   F3    S    
C22   C24   A    
C3    C4    A    
C32   O12   S    
C47   O33   D    
C27   F4    S    
C11   C17   A    
C9    O3    S    
C14   C15   A    
C25   C39   S    
C33   N1    A    
C31   O10   A    
C40   O19   D    
C6    C10   A    
C6    C7    A    
C19   F1    S    
C25   C27   S    
O34   H12   S    
O9    Zn2   S    
O10   Zn1   S    
C30   C42   S    
C2    C3    A    
C25   C26   D    
C2    C37   S    
O1    Zn1   S    
C11   C13   A    
C44   O27   D    
C5    C35   A    
C29   N3    D    
O28   H9    S    
C37   O14   S    
C45   O29   D    
O16   H3    S    
C1    O1    A    
C4    C5    A    
C20   C21   A    
C27   C28   D    
N3    C41   S    
C15   C47   S    
C4    C9    A    
C13   C14   A    
C15   C16   A    
C20   C31   S    
