data_mof_unit_24593.cif
_audit_creation_date              2012-12-11T16:08:52-0500
_audit_creation_method            fapswitch 2.2
_symmetry_space_group_name_H-M    P1
_symmetry_Int_Tables_number       1
_space_group_crystal_system       triclinic
_cell_length_a                    12.967893
_cell_length_b                    13.304869
_cell_length_c                    27.705513
_cell_angle_alpha                 95.313334
_cell_angle_beta                  89.946389
_cell_angle_gamma                 119.127339
_cell_volume                      4152.39841026

loop_
_atom_site_label
_atom_site_type_symbol
_atom_type_description
_atom_site_fract_x
_atom_site_fract_y
_atom_site_fract_z
_atom_type_partial_charge
C1    C     C_R   0.628148 0.894243 0.427711 0.551102
C2    C     C_R   0.578333 0.318785 0.226432 -0.158130
C3    C     C_R   0.568913 0.305045 0.275873 -0.124862
C4    C     C_R   0.665013 0.316436 0.303470 -0.001260
C5    C     C_R   0.683137 0.341784 0.203769 0.053464
C6    C     C_1   0.693581 0.365928 0.153658 -0.005669
C7    C     C_1   0.651496 0.294976 0.353779 -0.058916
C8    C     C_1   0.703109 0.394265 0.113008 -0.001791
C9    C     C_R   0.230052 0.771470 0.343815 -0.122008
C10   C     C_R   0.222754 0.770951 0.294060 0.010314
C11   C     C_R   0.205564 0.767630 0.193718 0.021079
C12   C     C_R   0.600941 0.221509 0.440455 0.543565
C13   C     C_R   0.236200 0.692465 0.213642 -0.117521
C14   C     C_R   0.242175 0.692407 0.263656 -0.124272
C15   C     C_R   0.181548 0.755600 0.144139 -0.123253
C16   C     C_R   0.133824 0.818691 0.125100 -0.005284
C17   C     C_R   0.200078 0.938800 0.355700 -0.136929
C18   C     C_R   0.185165 0.934835 0.305363 0.014920
C19   C     C_R   0.199596 0.852257 0.274547 0.063297
C20   C     C_R   0.159272 0.013338 0.285110 -0.130043
C21   C     C_R   0.143965 0.007303 0.234771 -0.128251
C22   C     C_R   0.156786 0.924313 0.204169 0.012441
C23   C     C_R   0.271721 0.876946 0.424853 0.545520
C24   C     C_R   0.188957 0.849295 0.224124 0.063191
C25   C     C_R   0.129659 0.908825 0.154361 -0.134387
C26   C     C_R   0.225004 0.858458 0.374903 -0.006263
C27   C     C_R   0.755743 0.928691 0.359154 -0.178528
C28   C     C_R   0.762515 0.918421 0.309292 0.001972
C29   C     C_R   0.764915 0.910416 0.208547 0.016839
C30   C     C_R   0.856694 0.002841 0.237203 -0.136656
C31   C     C_R   0.856417 0.005977 0.287398 -0.120415
C32   C     C_R   0.768151 0.904770 0.158525 -0.129392
C33   C     C_R   0.686859 0.804309 0.129652 -0.004104
C34   C     C_R   0.627071 0.899285 0.565073 0.539089
C35   C     C_R   0.566229 0.749721 0.353376 0.251054
C36   C     C_R   0.574151 0.736948 0.302815 0.033426
C37   C     C_R   0.669982 0.824335 0.280793 0.021099
C38   C     C_R   0.485314 0.641883 0.273470 -0.125046
C39   C     C_R   0.490119 0.634861 0.223042 -0.153247
C40   C     C_R   0.582673 0.723694 0.201061 0.017268
C41   C     C_R   0.672275 0.819446 0.230127 0.068742
C42   C     C_R   0.590934 0.716109 0.150695 -0.134341
C43   C     C_R   0.653091 0.852254 0.380747 -0.012833
C44   C     C_R   0.736901 0.297179 0.653176 -0.137051
C45   C     C_R   0.601571 0.225251 0.579055 0.544677
C46   C     C_R   0.749040 0.314076 0.703892 0.009955
C47   C     C_R   0.768423 0.342546 0.805773 0.012022
C48   C     C_R   0.863720 0.350955 0.778994 -0.125138
C49   C     C_R   0.853610 0.335527 0.728301 -0.133052
C50   C     C_R   0.780439 0.367594 0.856156 -0.129356
C51   C     C_R   0.686698 0.367151 0.881809 -0.005127
C52   C     C_R   0.540147 0.276615 0.656818 -0.130849
C53   C     C_R   0.548286 0.286795 0.706958 0.004857
C54   C     C_R   0.652934 0.305515 0.730764 0.060668
C55   C     C_R   0.451379 0.274106 0.733472 -0.143966
C56   C     C_R   0.272034 0.879928 0.563492 0.545670
C57   C     C_R   0.458657 0.281824 0.783799 -0.141894
C58   C     C_R   0.563954 0.305314 0.807962 0.009379
C59   C     C_R   0.661401 0.316427 0.781502 0.060872
C60   C     C_R   0.576148 0.326611 0.858115 -0.132570
C61   C     C_R   0.631028 0.275066 0.629664 -0.004650
C62   C     C_1   0.223511 0.864709 0.610469 -0.015592
C63   C     C_R   0.073659 0.755781 0.718368 -0.112581
C64   C     C_R   0.058552 0.745041 0.767944 -0.118836
C65   C     C_R   0.243461 0.923277 0.786881 -0.113632
C66   C     C_R   0.258503 0.934094 0.737261 -0.107606
C67   C     C_1   0.633136 0.268054 0.394623 -0.025201
C68   C     C_R   0.173942 0.850056 0.702902 0.031338
C69   C     C_R   0.143842 0.828148 0.802291 0.024655
C70   C     C_1   0.126355 0.814986 0.853109 -0.069740
C71   C     C_1   0.195803 0.856671 0.652055 -0.061632
C72   C     C_1   0.101876 0.797188 0.894565 -0.018316
C73   C     C_1   0.643126 0.866672 0.611250 -0.011868
C74   C     C_R   0.755388 0.913833 0.732618 -0.092054
C75   C     C_R   0.759491 0.904114 0.782550 0.282086
C76   C     C_R   0.567729 0.729724 0.772527 -0.156924
C77   C     C_R   0.565269 0.738781 0.722653 -0.121508
C78   C     C_R   0.770391 0.340052 0.281184 -0.096325
C79   C     C_R   0.659052 0.830883 0.702599 -0.006893
C80   C     C_R   0.663796 0.812942 0.802701 0.044125
C81   C     C_1   0.669614 0.800045 0.853599 -0.016846
C82   C     C_1   0.651814 0.846928 0.652234 -0.054162
C83   C     C_1   0.684255 0.789585 0.895435 -0.001900
C84   C     C_R   0.066270 0.773983 0.078686 0.549406
C85   C     C_R   0.717089 0.441635 0.067344 0.544499
C86   C     C_R   0.720854 0.782703 0.081189 0.548138
C87   C     C_R   0.056668 0.765985 0.941306 0.543405
C88   C     C_R   0.709787 0.431978 0.929646 0.545145
C89   C     C_R   0.779476 0.349774 0.230710 0.292196
C90   C     C_R   0.716390 0.775936 0.942946 0.544452
Cr1   Cr    Cr6+3 0.416430 0.829200 0.492370 1.033917
Cr2   Cr    Cr6+3 0.674630 0.087020 0.504170 1.018293
Cr3   Cr    Cr6+3 0.408920 0.083740 0.503490 1.012228
Cr4   Cr    Cr6+3 0.914010 0.832750 0.013970 1.017996
Cr5   Cr    Cr6+3 0.922310 0.578600 0.003000 1.029484
Cr6   Cr    Cr6+3 0.656280 0.574630 0.003870 1.019208
H1    H     H_    0.844959 0.350732 0.303036 0.104623
H2    H     H_    0.120406 0.066192 0.219810 0.098787
H3    H     H_    0.148757 0.077805 0.308159 0.100594
H4    H     H_    0.196720 0.006325 0.379603 0.117661
H5    H     H_    0.841631 0.974302 0.142540 0.127611
H6    H     H_    0.824856 0.004481 0.380364 0.139970
H7    H     H_    0.929170 0.071807 0.220705 0.089294
H8    H     H_    0.927696 0.078336 0.309181 0.096282
H9    H     H_    0.527551 0.638759 0.128413 0.123414
H10   H     H_    0.421012 0.560410 0.201265 0.100879
H11   H     H_    0.411165 0.573104 0.289242 0.135035
H12   H     H_    0.865461 0.396871 0.874639 0.132454
H13   H     H_    0.807088 0.296000 0.632266 0.122583
H14   H     H_    0.946364 0.370807 0.797223 0.116013
H15   H     H_    0.927916 0.341849 0.708216 0.109971
H16   H     H_    0.502760 0.323347 0.878083 0.129921
H17   H     H_    0.383385 0.273092 0.803836 0.105128
H18   H     H_    0.369885 0.257712 0.715276 0.107814
H19   H     H_    0.457950 0.259937 0.639130 0.136951
H20   H     H_    0.008316 0.689804 0.692184 0.113945
H21   H     H_    0.504034 0.312639 0.205894 0.114266
H22   H     H_    0.980822 0.671389 0.779509 0.117111
H23   H     H_    0.309545 0.988414 0.813079 0.115571
H24   H     H_    0.336989 0.006858 0.725654 0.125451
H25   H     H_    0.826643 0.986922 0.717503 0.116582
H26   H     H_    0.494834 0.657873 0.787547 0.118580
H27   H     H_    0.489550 0.674971 0.699870 0.124467
H28   H     H_    0.486606 0.285742 0.292614 0.117551
H29   H     H_    0.187915 0.688296 0.121266 0.131569
H30   H     H_    0.249619 0.708986 0.358023 0.165616
H31   H     H_    0.250762 0.630741 0.190517 0.099892
H32   H     H_    0.261237 0.630598 0.278627 0.113233
H33   H     H_    0.095224 0.959689 0.139394 0.125187
O1    O     O_R   0.296680 0.802170 0.437540 -0.508730
O2    O     O_R   0.662610 0.183990 0.557860 -0.499510
O3    O     O_R   0.500730 0.201280 0.562180 -0.523721
O4    O     O_R   0.312500 0.978850 0.548170 -0.497562
O5    O     O_3   0.499990 0.999990 0.500010 -0.245031
O6    O     O_R   0.820790 0.857990 0.068830 -0.523287
O7    O     O_R   0.016700 0.827330 0.062850 -0.505238
O8    O     O_R   0.041970 0.673520 0.060040 -0.512640
O9    O     O_R   0.817980 0.483660 0.048840 -0.485346
O10   O     O_R   0.637200 0.461990 0.052510 -0.516212
O11   O     O_R   0.664790 0.681920 0.057970 -0.500539
O12   O     O_R   0.525380 0.838530 0.443500 -0.459214
O13   O     O_R   0.815840 0.852920 0.961840 -0.504234
O14   O     O_R   0.012100 0.822630 0.963670 -0.499338
O15   O     O_R   0.037010 0.668460 0.953040 -0.511156
O16   O     O_R   0.813390 0.478970 0.949660 -0.503879
O17   O     O_R   0.632250 0.456930 0.945520 -0.519318
O18   O     O_R   0.660200 0.677230 0.958780 -0.498038
O19   O     O_3   0.830870 0.661990 0.006950 -0.243637
O20   O     O_R   0.702130 0.995190 0.446810 -0.528927
O21   O     O_R   0.661770 0.181390 0.458760 -0.491019
O22   O     O_R   0.499820 0.198480 0.455280 -0.517254
O23   O     O_R   0.311660 0.976250 0.449080 -0.501409
O24   O     O_R   0.297580 0.804960 0.544440 -0.508569
O25   O     O_R   0.526220 0.841130 0.542590 -0.503064
O26   O     O_R   0.703030 0.997990 0.553710 -0.511451
O27   O     O_3   0.884403 0.379057 0.207835 -0.565005
C91   C     C_3   0.933783 0.308484 0.218301 0.005454
H34   H     H_    0.940601 0.264431 0.183337 0.147570
H35   H     H_    0.879946 0.238356 0.241411 0.117859
C92   C     C_3   0.058194 0.385287 0.241586 -0.258696
H36   H     H_    0.112330 0.448181 0.216092 0.173418
H37   H     H_    0.053827 0.433937 0.275640 0.165595
C93   C     C_3   0.118375 0.315611 0.252921 -0.499781
H38   H     H_    0.069312 0.255595 0.280180 0.141231
H39   H     H_    0.209698 0.375356 0.268072 0.136015
H40   H     H_    0.123119 0.265682 0.219392 0.137832
O28   O     O_3   0.464718 0.671566 0.374124 -0.571893
C94   C     C_3   0.489990 0.602603 0.402725 0.023306
H41   H     H_    0.437490 0.589609 0.435567 0.157166
H42   H     H_    0.584519 0.643298 0.415969 0.107773
C95   C     C_3   0.451899 0.484435 0.374516 -0.293511
H43   H     H_    0.359513 0.446813 0.359565 0.162259
H44   H     H_    0.510406 0.495124 0.343821 0.159813
C96   C     C_3   0.458420 0.400960 0.406934 -0.458916
H45   H     H_    0.550280 0.436096 0.421947 0.157423
H46   H     H_    0.430641 0.316479 0.385340 0.159477
H47   H     H_    0.398435 0.386642 0.437307 0.148492
O29   O     O_3   0.853075 0.988077 0.812319 -0.555446
C97   C     C_3   0.951029 0.969617 0.806829 -0.006670
H48   H     H_    0.983425 0.983263 0.769471 0.127813
H49   H     H_    0.928100 0.880546 0.814645 0.139136
C98   C     C_3   0.050726 0.055592 0.842572 -0.358697
H50   H     H_    0.022395 0.041389 0.880341 0.173091
H51   H     H_    0.129551 0.044213 0.837998 0.101094
H52   H     H_    0.075045 0.145434 0.836059 0.152729

loop_
_geom_bond_atom_site_label_1
_geom_bond_atom_site_label_2
_ccdc_geom_bond_type
C39   H10   S    
C66   C68   A    
C23   O23   A    
C91   H34   S    
C48   H14   S    
C35   C36   A    
Cr5   O16   S    
C42   H9    S    
C95   C96   S    
C95   H43   S    
C25   H33   S    
Cr6   O10   S    
O29   C97   S    
C64   H22   S    
Cr1   O1    S    
C53   C54   A    
C52   C53   A    
C95   H44   S    
C46   C49   A    
C90   O18   A    
C60   H16   S    
C33   C42   A    
O27   C91   S    
C93   H39   S    
Cr1   O24   S    
C29   C32   A    
Cr3   O4    S    
C52   C61   A    
Cr4   O14   S    
C5    C6    S    
C65   C69   A    
C58   C60   A    
C15   C16   A    
C11   C24   A    
C16   C84   S    
C14   H32   S    
C17   C18   A    
C8    C85   S    
C23   C26   S    
C45   C61   S    
C38   H11   S    
C83   C90   S    
C75   O29   S    
C96   H45   S    
C98   H50   S    
C11   C15   A    
C1    C43   S    
C94   C95   S    
C84   O7    A    
C93   H38   S    
C22   C25   A    
C30   H7    S    
Cr4   O7    S    
C88   O16   A    
C1    O20   A    
C87   O15   A    
Cr3   O3    S    
C35   C43   A    
C75   C80   A    
C85   O10   A    
C18   C20   A    
C86   O11   A    
C49   H15   S    
C97   C98   S    
C44   H13   S    
C94   H42   S    
Cr5   O15   S    
C91   H35   S    
C66   H24   S    
C21   C22   A    
C97   H49   S    
C50   H12   S    
C12   O22   A    
C46   C54   A    
C4    C7    S    
C81   C83   T    
C2    H21   S    
C44   C46   A    
C9    C26   A    
C56   O4    A    
C47   C50   A    
C98   H51   S    
C54   C59   A    
C53   C55   A    
C78   C89   A    
Cr4   O19   S    
C38   C39   A    
Cr6   O19   S    
C12   C67   S    
Cr5   O8    S    
C74   C75   A    
Cr4   O13   S    
C92   C93   S    
C12   O21   A    
C93   H40   S    
C76   C77   A    
Cr1   O25   S    
Cr3   O5    S    
C10   C14   A    
C39   C40   A    
C18   C19   A    
C89   O27   S    
C57   H17   S    
C50   C51   A    
C58   C59   A    
C34   O26   A    
C47   C59   A    
C63   C64   A    
C23   O1    A    
C98   H52   S    
C92   H37   S    
C33   C86   S    
C4    C78   A    
C29   C30   A    
C77   H27   S    
C35   O28   S    
C47   C48   A    
C10   C19   A    
Cr2   O2    S    
C78   H1    S    
Cr4   O6    S    
C65   H23   S    
C77   C79   A    
C64   C69   A    
C96   H47   S    
C90   O13   A    
C63   H20   S    
C56   O24   A    
C94   H41   S    
C84   O8    A    
C45   O2    A    
C34   O25   A    
C74   C79   A    
C55   C57   A    
Cr2   O21   S    
C22   C24   A    
Cr3   O22   S    
C2    C5    A    
C17   C26   A    
C3    C4    A    
C73   C82   T    
O28   C94   S    
C72   C87   S    
C3    H28   S    
C9    C10   A    
C52   H19   S    
C16   C25   A    
Cr6   O18   S    
C63   C68   A    
C40   C41   A    
Cr5   O9    S    
C29   C41   A    
C28   C31   A    
Cr2   O5    S    
Cr5   O19   S    
C76   C80   A    
C80   C81   S    
C51   C88   S    
Cr6   O11   S    
C79   C82   S    
C6    C8    T    
C55   H18   S    
Cr1   O12   S    
C44   C61   A    
C91   C92   S    
Cr6   O17   S    
C27   H6    S    
C9    H30   S    
C17   H4    S    
C76   H26   S    
C31   H8    S    
C36   C38   A    
C2    C3    A    
C32   C33   A    
C21   H2    S    
C11   C13   A    
C57   C58   A    
C30   C31   A    
C20   H3    S    
C28   C37   A    
C68   C71   S    
C48   C49   A    
C40   C42   A    
Cr1   O5    S    
C62   C71   T    
C19   C24   A    
Cr2   O26   S    
C56   C62   S    
C37   C41   A    
C69   C70   S    
C92   H36   S    
C96   H46   S    
C1    O12   A    
C34   C73   S    
C7    C67   T    
C97   H48   S    
C13   H31   S    
C27   C43   A    
C86   O6    A    
C74   H25   S    
C20   C21   A    
C45   O3    A    
C36   C37   A    
C65   C66   A    
C15   H29   S    
Cr2   O20   S    
C88   O17   A    
C32   H5    S    
Cr3   O23   S    
C70   C72   T    
C51   C60   A    
C87   O14   A    
C13   C14   A    
C85   O9    A    
C5    C89   A    
C27   C28   A    
