data_mof_unit_44234.cif
_audit_creation_date              2013-03-05T16:32:18-0500
_audit_creation_method            fapswitch 2.2
_symmetry_space_group_name_H-M    P1
_symmetry_Int_Tables_number       1
_space_group_crystal_system       triclinic
_cell_length_a                    15.878395
_cell_length_b                    10.839081
_cell_length_c                    9.591808
_cell_angle_alpha                 89.973804
_cell_angle_beta                  90.974904
_cell_angle_gamma                 90.718929
_cell_volume                      1650.45035819

loop_
_atom_site_label
_atom_site_type_symbol
_atom_site_description
_atom_site_fract_x
_atom_site_fract_y
_atom_site_fract_z
_atom_type_partial_charge
O1    O     O_R   0.500000 0.319640 0.618810 -0.576940
O2    O     O_R   0.500010 0.319680 0.381230 -0.507698
C1    C     C_R   0.502066 0.262865 0.499780 0.892982
O3    O     O_R   0.379430 0.499990 0.618840 -0.584873
O4    O     O_R   0.379440 0.500030 0.381260 -0.534867
C2    C     C_R   0.340393 0.499786 0.499063 0.846576
Cu1   Cu    Cu3+1 0.500000 0.499980 0.640670 0.978225
Cu2   Cu    Cu3+1 0.500000 0.500020 0.359330 1.043107
O5    O     O_R   0.499990 0.680320 0.618770 -0.592430
O6    O     O_R   0.500000 0.680360 0.381190 -0.605418
O7    O     O_R   0.620560 0.499970 0.618740 -0.583051
O8    O     O_R   0.620570 0.500010 0.381160 -0.574434
C3    C     C_R   0.499166 0.737356 0.500153 0.801588
C4    C     C_R   0.659613 0.500098 0.500946 0.820112
C5    C     C_3   0.050639 0.419195 0.626564 0.176543
C6    C     C_3   0.046472 0.440321 0.359377 0.079100
C7    C     C_3   0.947678 0.437371 0.362940 -0.118249
H1    H     H_    0.931794 0.318463 0.602989 0.162790
H2    H     H_    0.071256 0.322637 0.611947 0.165246
H3    H     H_    0.066608 0.503540 0.274076 0.162486
H4    H     H_    0.924575 0.339944 0.360638 0.208156
C8    C     C_1   0.749144 0.499202 0.502917 -0.139835
C9    C     C_3   0.083201 0.495725 0.498961 0.014264
C10   C     C_3   0.951656 0.415649 0.625020 -0.119494
C11   C     C_3   0.916870 0.496343 0.502006 0.183911
C12   C     C_3   0.953109 0.629902 0.515579 -0.378498
C13   C     C_3   0.050276 0.630047 0.506471 -0.409424
C14   C     C_1   0.824613 0.498047 0.503143 0.046123
C15   C     C_1   0.175389 0.497594 0.497136 0.053406
C16   C     C_1   0.250861 0.498796 0.497112 -0.037954
H5    H     H_    0.078967 0.682306 0.594881 0.246712
H6    H     H_    0.069211 0.681914 0.411557 0.183124
H7    H     H_    0.934459 0.672564 0.615405 0.198490
H8    H     H_    0.926433 0.690083 0.432460 0.187518
C17   C     C_R   0.455777 0.064712 0.595993 -0.025006
C18   C     C_R   0.501679 0.129751 0.496940 -0.220191
C19   C     C_R   0.538070 0.063516 0.386051 0.359598
C20   C     C_R   0.532955 0.934539 0.386286 -0.250268
H9    H     H_    0.563011 0.884779 0.303870 0.180759
C21   C     C_R   0.496991 0.870517 0.498315 -0.113340
C22   C     C_R   0.454879 0.938090 0.598868 0.010709
C23   C     C_3   0.447046 0.934929 0.755246 0.185084
C24   C     C_3   0.449158 0.077152 0.750919 0.180706
H10   H     H_    0.506063 0.120895 0.800140 0.126400
C25   C     C_R   0.573799 0.501135 0.074680 0.203344
N1    N     N_R   0.500530 0.500930 0.147930 -0.258310
C26   C     C_R   0.427863 0.475919 0.070188 0.382998
C27   C     C_R   0.427900 0.481271 0.922507 -0.086914
H11   H     H_    0.369685 0.464091 0.865639 0.218281
N2    N     N_R   0.500530 0.500890 0.852020 -0.230631
C28   C     C_R   0.573763 0.499060 0.928451 0.198991
C29   C     C_3   0.647255 0.585377 0.919877 -0.441771
C30   C     C_3   0.647414 0.589695 0.078847 -0.084023
H12   H     H_    0.703629 0.539055 0.878322 0.195200
H13   H     H_    0.631803 0.673788 0.867606 0.220669
H14   H     H_    0.705230 0.550261 0.127587 0.194932
N3    N     N_R   0.088652 0.459916 0.760431 0.131277
O9    O     O_R   0.078952 0.571090 0.808013 -0.367997
O10   O     O_R   0.134440 0.383431 0.832694 -0.258375
N4    N     N_3   0.913822 0.447025 0.759139 -0.566430
H15   H     H_    0.928145 0.537535 0.788444 0.273626
H16   H     H_    0.937278 0.387951 0.836389 0.265616
N5    N     N_R   0.586396 0.123726 0.279824 0.141343
O11   O     O_R   0.644790 0.203922 0.314277 -0.367095
O12   O     O_R   0.582194 0.083626 0.152003 -0.355246
N6    N     N_3   0.367279 0.879577 0.801758 -0.503143
H17   H     H_    0.369145 0.784484 0.783880 0.224123
H18   H     H_    0.317369 0.912096 0.739874 0.256237
N7    N     N_3   0.520771 0.884952 0.828540 -0.569458
H19   H     H_    0.511667 0.790305 0.842432 0.239506
H20   H     H_    0.522694 0.922156 0.929135 0.264207
N8    N     N_R   0.370851 0.134774 0.794326 0.146040
O13   O     O_R   0.353319 0.138922 0.926182 -0.254477
O14   O     O_R   0.322901 0.192755 0.705144 -0.320966
N9    N     N_R   0.352948 0.430412 0.133288 0.156939
O15   O     O_R   0.353374 0.321645 0.190722 -0.256342
O16   O     O_R   0.281065 0.480945 0.102653 -0.305002
N10   N     N_3   0.627854 0.712556 0.131053 -0.539738
H21   H     H_    0.565102 0.734201 0.107893 0.235315
H22   H     H_    0.635651 0.710700 0.239293 0.244149
N11   N     N_R   0.080584 0.318165 0.327266 0.132516
O17   O     O_R   0.055367 0.219451 0.392513 -0.367866
O18   O     O_R   0.132107 0.306547 0.224179 -0.222080
N12   N     N_3   0.910571 0.498321 0.239952 -0.582285
H23   H     H_    0.937438 0.585979 0.226854 0.236339
H24   H     H_    0.925429 0.446906 0.151628 0.254757

loop_
_geom_bond_atom_site_label_1
_geom_bond_atom_site_label_2
_geom_bond_distance
_ccdc_geom_bond_type
N6    H18   1.046629 S    
N5    O12   1.301343 A    
C21   C22   1.395959 A    
C24   N8    1.465186 S    
C22   C23   1.507543 S    
C17   C18   1.393172 A    
N9    O15   1.301107 A    
N11   O17   1.301532 A    
Cu1   Cu2   2.698559 S    
C25   N1    1.369261 A    
C11   C14   1.465472 S    
Cu1   O7    1.929375 S    
C12   C13   1.546784 S    
C19   C20   1.399343 A    
H1    C10   1.115076 S    
C9    C15   1.464086 S    
C6    H3    1.115395 S    
N12   H24   1.046178 S    
O4    C2    1.298065 A    
O7    C4    1.298048 A    
N10   H22   1.043700 S    
N3    O10   1.301439 A    
C25   C28   1.402783 A    
N4    H16   1.045896 S    
N7    H20   1.045757 S    
O5    C3    1.294566 A    
C3    C21   1.444280 S    
C19   N5    1.437467 S    
C12   H8    1.111535 S    
C6    C7    1.569567 S    
C9    C13   1.555223 S    
C17   C24   1.497777 S    
C29   H13   1.109585 S    
C10   N4    1.470824 S    
C5    C9    1.569488 S    
N6    H17   1.045837 S    
C25   C30   1.503204 S    
C8    C14   1.198510 T    
C5    N3    1.474897 S    
O3    Cu1   1.922333 S    
N11   O18   1.301186 A    
C29   H12   1.111681 S    
C13   H5    1.108302 S    
C28   C29   1.489847 S    
C10   C11   1.565669 S    
N8    O14   1.302210 A    
N10   H21   1.046665 S    
C11   C12   1.555800 S    
C23   N7    1.464800 S    
C7    H4    1.113666 S    
N4    H15   1.041946 S    
O1    C1    1.298347 A    
C5    H2    1.110179 S    
C24   H10   1.113133 S    
C15   C16   1.198285 T    
C12   H7    1.109878 S    
C26   C27   1.417700 A    
Cu2   O8    1.922330 S    
N2    C28   1.364387 A    
C5    C10   1.571486 S    
N12   H23   1.045030 S    
N9    O16   1.301247 A    
O3    C2    1.296101 A    
C27   H11   1.079478 S    
C2    C16   1.421327 S    
O8    C4    1.296221 A    
C6    C9    1.568021 S    
C23   C24   1.542071 S    
C29   C30   1.525509 S    
C30   H14   1.113141 S    
Cu1   O5    1.965879 S    
N1    C26   1.387062 A    
C18   C19   1.418674 A    
C13   H6    1.113501 S    
O1    Cu1   1.966029 S    
O2    Cu2   1.965879 S    
Cu1   N2    2.027131 S    
N8    O13   1.300552 A    
O6    C3    1.298173 A    
O4    Cu2   1.929379 S    
C7    N12   1.469916 S    
C7    C11   1.567787 S    
C4    C8    1.421572 S    
O2    C1    1.293032 A    
C26   N9    1.426223 S    
C20   C21   1.404480 A    
N3    O9    1.300645 A    
C20   H9    1.078540 S    
C1    C18   1.443038 S    
C27   N2    1.361087 A    
C6    N11   1.471539 S    
C30   N10   1.461813 S    
N7    H19   1.043021 S    
C17   C22   1.372632 A    
Cu2   N1    2.027888 S    
N5    O11   1.301587 A    
Cu2   O6    1.966029 S    
C23   N6    1.470742 S    
