data_mof_unit_68453.cif
_audit_creation_date              2012-12-10T20:52:11-0500
_audit_creation_method            fapswitch 2.2
_symmetry_space_group_name_H-M    P1
_symmetry_Int_Tables_number       1
_space_group_crystal_system       triclinic
_cell_length_a                    10.676238
_cell_length_b                    8.903215
_cell_length_c                    8.101595
_cell_angle_alpha                 90.156337
_cell_angle_beta                  90.010339
_cell_angle_gamma                 89.940269
_cell_volume                      770.076334636

loop_
_atom_site_label
_atom_site_type_symbol
_atom_type_description
_atom_site_fract_x
_atom_site_fract_y
_atom_site_fract_z
_atom_type_partial_charge
C1    C     C_R   0.500258 0.218017 0.499839 0.950661
C2    C     C_R   0.740360 0.496027 0.500164 0.892593
C3    C     C_R   0.202972 0.952697 0.223952 0.512721
C4    C     C_R   0.796868 0.047473 0.776270 0.512727
C5    C     C_R   0.147102 0.846305 0.326969 -0.234662
C6    C     C_R   0.852786 0.153784 0.673194 -0.234599
C7    C     C_R   0.123223 0.699802 0.270603 -0.086010
C8    C     C_R   0.876773 0.300283 0.729498 -0.085966
C9    C     C_R   0.156696 0.658883 0.106718 0.534316
C10   C     C_R   0.843370 0.341274 0.893386 0.534212
C11   C     C_R   0.212838 0.766107 0.004624 -0.183423
C12   C     C_R   0.499740 0.781982 0.500161 0.950691
C13   C     C_R   0.787185 0.234128 0.995541 -0.183394
C14   C     C_R   0.235929 0.911561 0.061947 -0.326409
C15   C     C_R   0.763979 0.088683 0.938277 -0.326402
C16   C     C_R   0.932794 0.586776 0.386658 -0.157418
C17   C     C_R   0.067207 0.413229 0.613352 -0.157368
C18   C     C_R   0.872471 0.494627 0.500538 -0.083658
C19   C     C_R   0.127529 0.505374 0.499466 -0.083616
C20   C     C_R   0.938626 0.406505 0.614845 -0.012703
C21   C     C_R   0.061375 0.593512 0.385178 -0.012694
C22   C     C_1   0.500119 0.065247 0.499796 -0.154810
C23   C     C_1   0.499877 0.934753 0.500203 -0.154784
C24   C     C_R   0.259640 0.503972 0.499837 0.892611
H1    H     H_    0.279407 0.991973 0.979950 0.161351
H2    H     H_    0.761008 0.264046 0.120553 0.182079
H3    H     H_    0.879568 0.655960 0.301584 0.181579
H4    H     H_    0.120433 0.344055 0.698434 0.181554
H5    H     H_    0.720462 0.008334 0.020314 0.161335
H6    H     H_    0.263170 0.156880 0.197256 0.343168
H7    H     H_    0.736510 0.843367 0.803050 0.343182
H8    H     H_    0.121555 0.878222 0.451735 0.173634
H9    H     H_    0.878277 0.121815 0.548426 0.173606
H10   H     H_    0.101265 0.450557 0.126581 0.358930
H11   H     H_    0.898904 0.549557 0.873420 0.358945
H12   H     H_    0.239061 0.736250 0.879612 0.182035
N1    N     N_1   0.500020 0.500030 0.073640 -0.021621
N2    N     N_1   0.499980 0.499970 0.926360 -0.021617
O1    O     O_R   0.499990 0.285340 0.636850 -0.622463
O2    O     O_3   0.776229 0.904740 0.715530 -0.781677
O3    O     O_3   0.138409 0.516838 0.041997 -0.768434
O4    O     O_3   0.861758 0.483322 0.958051 -0.768439
O5    O     O_R   0.500010 0.714660 0.363150 -0.622491
O6    O     O_R   0.500010 0.285350 0.363100 -0.623398
O7    O     O_R   0.499990 0.714650 0.636900 -0.623353
O8    O     O_R   0.316750 0.500000 0.636870 -0.622102
O9    O     O_R   0.683250 0.500000 0.363130 -0.622160
O10   O     O_R   0.316770 0.500020 0.363120 -0.609584
O11   O     O_R   0.683230 0.499980 0.636880 -0.609542
O12   O     O_3   0.223490 0.095438 0.284746 -0.781716
Zn1   Zn    Zn3+2 0.499990 0.499990 0.682780 0.997322
Zn2   Zn    Zn3+2 0.500010 0.500010 0.317220 0.997262

loop_
_geom_bond_atom_site_label_1
_geom_bond_atom_site_label_2
_ccdc_geom_bond_type
O1    Zn1   S    
C16   C21   A    
H10   O3    S    
O9    Zn2   S    
C2    O11   A    
C2    O9    A    
C2    C18   S    
C1    O6    A    
C9    O3    S    
C6    H9    S    
C5    H8    S    
C24   O8    A    
O6    Zn2   S    
C16   H3    S    
C19   C24   S    
H6    O12   S    
C1    C22   S    
C16   C18   A    
C9    C11   A    
C12   C23   S    
C8    C20   S    
C3    C14   A    
C4    C15   A    
C4    C6    A    
C11   H12   S    
C19   C21   A    
N1    N2    T    
C15   H5    S    
C12   O5    A    
C18   C20   A    
C13   C15   A    
C14   H1    S    
O5    Zn2   S    
C11   C14   A    
C13   H2    S    
C10   O4    S    
O7    Zn1   S    
C24   O10   A    
C7    C9    A    
O10   Zn2   S    
C17   C20   A    
H7    O2    S    
C8    C10   A    
H11   O4    S    
O11   Zn1   S    
C5    C7    A    
N1    Zn2   S    
C1    O1    A    
C22   C23   T    
C6    C8    A    
N2    Zn1   S    
C17   C19   A    
C7    C21   S    
C17   H4    S    
O8    Zn1   S    
C3    O12   S    
C4    O2    S    
C12   O7    A    
C3    C5    A    
C10   C13   A    
