data_mof_unit_18902.cif
_audit_creation_date              2013-03-05T15:58:55-0500
_audit_creation_method            fapswitch 2.2
_symmetry_space_group_name_H-M    P1
_symmetry_Int_Tables_number       1
_space_group_crystal_system       triclinic
_cell_length_a                    10.699896
_cell_length_b                    12.580036
_cell_length_c                    13.287289
_cell_angle_alpha                 82.63845
_cell_angle_beta                  88.810625
_cell_angle_gamma                 101.671432
_cell_volume                      1735.11172491

loop_
_atom_site_label
_atom_site_type_symbol
_atom_site_description
_atom_site_fract_x
_atom_site_fract_y
_atom_site_fract_z
_atom_type_partial_charge
O1    O     O_R   0.468120 0.366740 0.627160 -0.609841
O2    O     O_R   0.510770 0.544830 0.662520 -0.611201
C1    C     C_R   0.475367 0.439596 0.690983 0.904914
O3    O     O_R   0.663880 0.410950 0.482330 -0.637837
O4    O     O_R   0.706530 0.589040 0.517700 -0.617922
C2    C     C_R   0.740944 0.498566 0.502339 0.896671
Zn1   Zn    Zn3+2 0.471520 0.381090 0.476390 0.983166
Zn2   Zn    Zn3+2 0.528480 0.618910 0.523610 1.073402
O5    O     O_R   0.489230 0.455170 0.337480 -0.649821
O6    O     O_R   0.531880 0.633260 0.372840 -0.548564
O7    O     O_R   0.293470 0.410960 0.482300 -0.629524
O8    O     O_R   0.336120 0.589050 0.517670 -0.531343
C3    C     C_R   0.522348 0.559993 0.308881 0.957630
C4    C     C_R   0.257650 0.499292 0.502868 0.940448
C5    C     C_3   0.897184 0.378006 0.534733 -0.457360
H1    H     H_    0.856738 0.325168 0.477188 0.187703
H2    H     H_    0.845152 0.341454 0.608447 0.229680
C6    C     C_3   0.041460 0.379467 0.539750 0.039925
H3    H     H_    0.063471 0.325006 0.484758 0.144778
H4    H     H_    0.887449 0.500572 0.337881 0.170913
H5    H     H_    0.086672 0.463969 0.348435 0.117931
C7    C     C_3   0.939646 0.543718 0.397525 -0.357515
C8    C     C_3   0.937990 0.567832 0.583548 -0.422980
C9    C     C_3   0.876343 0.496571 0.504242 -0.047612
H6    H     H_    0.915312 0.650919 0.571162 0.245588
H7    H     H_    0.898006 0.530455 0.661115 0.187643
C10   C     C_3   0.119912 0.499095 0.504057 -0.190729
C11   C     C_3   0.079674 0.531292 0.393771 0.200268
C12   C     C_3   0.082322 0.577350 0.577668 0.325743
H8    H     H_    0.108895 0.550759 0.654590 0.210486
H9    H     H_    0.934880 0.631710 0.381308 0.276637
C13   C     C_R   0.584511 0.720770 0.046568 -0.071195
H10   H     H_    0.625982 0.802059 0.008464 0.225548
C14   C     C_R   0.537905 0.590438 0.198462 -0.145696
C15   C     C_R   0.441787 0.293065 0.837757 -0.204066
C16   C     C_R   0.442326 0.258898 0.942055 0.349508
C17   C     C_R   0.453890 0.337594 0.008754 -0.218067
C18   C     C_R   0.455719 0.448854 0.972924 0.016147
C19   C     C_R   0.440112 0.480091 0.869296 -0.043056
C20   C     C_R   0.483353 0.532324 0.035500 0.059175
C21   C     C_R   0.512259 0.643093 0.992305 -0.088609
C22   C     C_R   0.463731 0.672160 0.898335 0.204566
C23   C     C_R   0.419482 0.587832 0.839670 0.325889
C24   C     C_R   0.480970 0.510170 0.140039 -0.226829
C25   C     C_R   0.610577 0.690026 0.147879 0.338193
C26   C     C_R   0.446409 0.403336 0.800320 -0.106974
H11   H     H_    0.430052 0.430992 0.176089 0.176445
H12   H     H_    0.443010 0.234094 0.785285 0.207843
H13   H     H_    0.467357 0.311176 0.087551 0.173105
C27   C     C_R   0.300069 0.080700 0.372393 -0.181932
H14   H     H_    0.288145 0.250005 0.345175 0.131142
H15   H     H_    0.287298 0.882041 0.333469 0.232365
H16   H     H_    0.226066 0.055767 0.320678 0.182012
N1    N     N_R   0.433240 0.222190 0.444680 -0.113280
C28   C     C_R   0.648705 0.797931 0.629455 -0.015121
C29   C     C_R   0.675321 0.901305 0.662510 0.287725
C30   C     C_R   0.611715 0.982007 0.619020 -0.162782
C31   C     C_R   0.525911 0.960552 0.541483 -0.042648
C32   C     C_R   0.507772 0.856364 0.508165 0.165472
C33   C     C_R   0.461438 0.039397 0.491359 0.016396
C34   C     C_R   0.365511 0.005722 0.423047 0.079022
C35   C     C_R   0.348573 0.901374 0.395400 -0.107375
C36   C     C_R   0.443549 0.842356 0.417920 0.328560
C37   C     C_R   0.492611 0.151136 0.500690 0.015848
C38   C     C_R   0.336562 0.190177 0.384026 0.043203
N2    N     N_R   0.566070 0.776970 0.554790 -0.128426
H17   H     H_    0.565385 0.184354 0.549605 0.120847
H18   H     H_    0.692823 0.732975 0.663939 0.161153
H19   H     H_    0.628395 0.059720 0.647885 0.174184
Cl1   Cl    Cl    0.157311 0.719742 0.548091 -0.488784
Cl2   Cl    Cl    0.180209 0.650353 0.323758 -0.521355
N3    N     N_R   0.716230 0.753597 0.193222 0.258843
O9    O     O_R   0.769964 0.708862 0.269817 -0.391339
O10   O     O_R   0.773373 0.849534 0.147682 -0.269080
N4    N     N_R   0.439101 0.780854 0.872381 0.246693
O11   O     O_R   0.432401 0.821991 0.778328 -0.317856
O12   O     O_R   0.407869 0.834146 0.943496 -0.249518
N5    N     N_R   0.439586 0.145729 0.979546 0.238358
O13   O     O_R   0.437141 0.073969 0.916853 -0.275647
O14   O     O_R   0.437669 0.112979 0.076677 -0.339066
Cl3   Cl    Cl    0.305976 0.608343 0.750624 -0.499970
N6    N     N_R   0.761918 0.922533 0.742542 0.227723
O15   O     O_R   0.815635 0.845768 0.786200 -0.352889
O16   O     O_R   0.787500 0.018623 0.772877 -0.303652
N7    N     N_R   0.518512 0.832477 0.330812 0.210919
O17   O     O_R   0.641056 0.871358 0.328383 -0.324674
O18   O     O_R   0.463818 0.817727 0.245613 -0.335446
N8    N     N_R   0.074355 0.333446 0.640903 0.230726
O19   O     O_R   0.137429 0.254749 0.648844 -0.319121
O20   O     O_R   0.030570 0.361714 0.723435 -0.364432

loop_
_geom_bond_atom_site_label_1
_geom_bond_atom_site_label_2
_geom_bond_distance
_ccdc_geom_bond_type
C5    C6    1.543052 S    
C28   C29   1.402464 A    
Zn2   N2    2.044895 S    
C10   C12   1.574228 S    
C21   C22   1.396089 A    
C15   C16   1.397861 A    
C28   H18   1.081482 S    
N1    C38   1.353148 A    
N7    O17   1.301636 A    
Zn1   O7    2.016885 S    
C22   N4    1.444581 S    
C12   H8    1.095606 S    
C8    C12   1.524195 S    
C16   C17   1.400245 A    
C17   C18   1.415573 A    
C32   N2    1.371141 A    
H14   C38   1.081957 S    
C18   C19   1.405596 A    
O7    C4    1.304673 A    
N5    O14   1.301952 A    
C31   C33   1.424746 A    
C5    H1    1.114166 S    
C29   C30   1.404752 A    
C5    H2    1.113147 S    
C6    H3    1.115878 S    
C13   C25   1.401889 A    
C8    H7    1.114674 S    
O5    C3    1.298385 A    
C13   C21   1.403727 A    
C4    C10   1.473040 S    
C24   H11   1.079703 S    
C7    C11   1.537999 S    
C36   N7    1.427266 S    
C25   N3    1.437538 S    
O3    Zn1   2.021182 S    
C15   H12   1.082920 S    
N7    O18   1.302267 A    
C27   H16   1.083917 S    
C7    H9    1.111991 S    
C37   H17   1.078125 S    
C14   C24   1.401785 A    
O3    C2    1.296909 A    
N5    O13   1.301387 A    
C19   C23   1.424321 A    
C31   C32   1.414527 A    
C6    N8    1.472489 S    
C33   C34   1.420622 A    
O1    C1    1.318464 A    
N4    O11   1.299118 A    
C35   C36   1.390848 A    
C17   H13   1.078843 S    
Zn2   O8    2.021182 S    
C2    C9    1.454730 S    
C14   C25   1.412202 A    
N4    O12   1.301497 A    
C19   C26   1.423871 A    
N3    O10   1.302117 A    
C20   C21   1.407186 A    
H5    C11   1.113681 S    
O8    C4    1.303391 A    
N6    O16   1.301614 A    
C23   Cl3   1.746341 S    
C7    C9    1.550264 S    
C11   Cl2   1.793169 S    
C22   C23   1.407553 A    
H4    C7    1.113803 S    
C28   N2    1.358196 A    
C12   Cl1   1.797765 S    
Zn1   O5    1.945349 S    
C5    C9    1.556288 S    
O1    Zn1   1.987176 S    
O2    Zn2   1.945349 S    
C6    C10   1.576018 S    
N8    O20   1.301739 A    
N3    O9    1.300563 A    
O6    C3    1.322297 A    
O4    Zn2   2.016886 S    
C29   N6    1.440234 S    
C1    C26   1.472755 S    
C32   C36   1.407309 A    
C33   C37   1.399729 A    
C13   H10   1.083228 S    
O2    C1    1.304587 A    
C3    C14   1.465278 S    
C16   N5    1.441040 S    
C18   C20   1.410562 A    
C30   C31   1.409777 A    
O4    C2    1.303318 A    
N1    C37   1.354735 A    
C8    H6    1.112963 S    
C34   C35   1.386030 A    
C27   C38   1.382969 A    
C8    C9    1.543006 S    
C20   C24   1.379935 A    
N8    O19   1.301256 A    
Zn2   O6    1.987173 S    
N6    O15   1.301657 A    
C10   C11   1.562523 S    
C27   C34   1.398951 A    
H15   C35   1.084127 S    
Zn1   N1    2.057400 S    
C30   H19   1.078449 S    
C15   C26   1.403078 A    
