data_mof_unit_59733.cif
_audit_creation_date              2012-12-11T15:42:51-0500
_audit_creation_method            fapswitch 2.2
_symmetry_space_group_name_H-M    P1
_symmetry_Int_Tables_number       1
_space_group_crystal_system       triclinic
_cell_length_a                    6.912016
_cell_length_b                    14.716805
_cell_length_c                    16.149663
_cell_angle_alpha                 90.365396
_cell_angle_beta                  89.582977
_cell_angle_gamma                 89.97783
_cell_volume                      1642.71173067

loop_
_atom_site_label
_atom_site_type_symbol
_atom_type_description
_atom_site_fract_x
_atom_site_fract_y
_atom_site_fract_z
_atom_type_partial_charge
O1    O     O_R   0.505810 0.583360 0.413880 -0.541020
O2    O     O_R   0.175870 0.595480 0.585520 -0.544312
O3    O     O_R   0.005540 0.416640 0.586120 -0.540965
C1    C     C_R   0.343348 0.620711 0.612243 0.701157
O4    O     O_R   0.176100 0.594390 0.414490 -0.543081
O5    O     O_R   0.005770 0.415540 0.413870 -0.539271
C2    C     C_R   0.344331 0.614351 0.383827 0.679870
O6    O     O_R   0.505580 0.584460 0.586130 -0.541332
O7    O     O_3   0.339190 0.441320 0.500000 -0.366531
V1    V     V_3+5 0.064350 0.510890 0.500000 1.380282
O8    O     O_R   0.676050 0.404520 0.414480 -0.542944
C3    C     C_R   0.845620 0.382477 0.385537 0.703262
O9    O     O_R   0.675830 0.405610 0.585510 -0.539411
C4    C     C_R   0.843029 0.389850 0.617271 0.750854
V2    V     V_3+5 0.564340 0.489110 0.500000 1.395017
O10   O     O_3   0.839370 0.558680 0.500000 -0.374076
C5    C     C_2   0.743231 0.222469 0.794897 -0.205895
C6    C     C_2   0.904467 0.176132 0.816407 -0.013719
H1    H     H_    0.613758 0.213990 0.831586 0.130875
C7    C     C_2   0.722851 0.277184 0.718206 -0.145687
C8    C     C_2   0.851581 0.340691 0.695592 -0.317268
H2    H     H_    0.597507 0.264430 0.679715 0.141826
H3    H     H_    0.966122 0.360873 0.736826 0.123805
C9    C     C_R   0.032923 0.202244 0.234927 -0.199928
H4    H     H_    0.163535 0.162431 0.226826 0.119533
C10   C     C_R   0.025022 0.265242 0.300251 -0.161337
H5    H     H_    0.150139 0.273022 0.339661 0.125874
C11   C     C_R   0.856458 0.315826 0.315873 -0.074288
C12   C     C_R   0.698567 0.304545 0.262813 -0.188333
H6    H     H_    0.570334 0.345622 0.273141 0.114328
C13   C     C_R   0.705292 0.243682 0.195006 0.141842
C14   C     C_R   0.874312 0.188978 0.181869 -0.060038
C15   C     C_R   0.190822 0.758558 0.688750 0.130208
C16   C     C_R   0.204857 0.827203 0.752479 0.119148
C17   C     C_R   0.370627 0.826932 0.807264 -0.110621
C18   C     C_R   0.520688 0.765145 0.791145 -0.201062
H7    H     H_    0.646965 0.763634 0.830424 0.132057
C19   C     C_R   0.510214 0.701902 0.726954 -0.207692
H8    H     H_    0.629560 0.654866 0.718997 0.125543
C20   C     C_R   0.347060 0.695317 0.676339 -0.098948
C21   C     C_R   0.195974 0.691972 0.256442 0.148087
C22   C     C_R   0.211144 0.758699 0.194380 -0.182425
H9    H     H_    0.092615 0.768179 0.151716 0.120815
C23   C     C_R   0.378975 0.811069 0.184256 -0.072246
C24   C     C_R   0.534421 0.796423 0.237945 -0.166281
H10   H     H_    0.666175 0.835683 0.231663 0.121615
C25   C     C_R   0.520222 0.732719 0.301836 -0.199897
H11   H     H_    0.641365 0.725536 0.343421 0.122667
C26   C     C_R   0.351967 0.680050 0.313192 -0.059722
O11   O     O_R   0.230120 0.912300 0.917180 -0.548324
O12   O     O_R   0.559740 0.902430 0.088770 -0.539713
O13   O     O_R   0.729930 0.081310 0.089370 -0.539204
C27   C     C_R   0.390481 0.880244 0.117393 0.704538
O14   O     O_R   0.559840 0.901330 0.917750 -0.539147
O15   O     O_R   0.730030 0.080210 0.917120 -0.548765
C28   C     C_R   0.389954 0.887039 0.882991 0.695689
O16   O     O_R   0.230020 0.913400 0.089430 -0.538280
O17   O     O_3   0.396460 0.055470 0.003290 -0.373412
V3    V     V_3+5 0.671360 0.985960 0.003250 1.383983
O18   O     O_R   0.059740 0.091300 0.917690 -0.538853
C29   C     C_R   0.894748 0.111879 0.887865 0.717400
O19   O     O_R   0.059640 0.092400 0.088720 -0.544455
C30   C     C_R   0.888944 0.117174 0.115691 0.690720
V4    V     V_3+5 0.171350 0.007820 0.003190 1.374154
O20   O     O_3   0.896380 0.938200 0.003220 -0.368521
C31   C     C_3   0.040702 0.898231 0.759934 -0.347060
C32   C     C_3   0.022657 0.960633 0.684257 -0.794200
H12   H     H_    0.166528 0.974150 0.655842 0.235428
H13   H     H_    0.922462 0.933872 0.637147 0.232212
H14   H     H_    0.956614 0.026157 0.703369 0.221542
H15   H     H_    0.901106 0.864126 0.773223 0.161895
H16   H     H_    0.052628 0.944932 0.811950 0.201427
C33   C     C_3   0.015026 0.633301 0.256283 -0.366231
C34   C     C_3   0.059317 0.536107 0.228155 -0.716278
H17   H     H_    0.124030 0.536322 0.164992 0.217724
H18   H     H_    0.160801 0.502197 0.270925 0.218647
H19   H     H_    0.923050 0.496244 0.226410 0.207920
H20   H     H_    0.941598 0.634177 0.317419 0.196491
H21   H     H_    0.905993 0.660964 0.212856 0.171641
C35   C     C_3   0.095376 0.191708 0.767774 -0.338942
C36   C     C_3   0.271661 0.131911 0.784668 -0.745390
H22   H     H_    0.333577 0.148678 0.845917 0.239176
H23   H     H_    0.238922 0.059230 0.782603 0.233853
H24   H     H_    0.383592 0.144545 0.736565 0.196249
H25   H     H_    0.066022 0.185884 0.700377 0.196551
H26   H     H_    0.147831 0.260957 0.781960 0.182333
C37   C     C_3   0.531433 0.242595 0.137911 -0.351823
C38   C     C_3   0.580311 0.281658 0.052810 -0.706870
H27   H     H_    0.628989 0.353247 0.059357 0.212363
H28   H     H_    0.695711 0.242001 0.021165 0.212592
H29   H     H_    0.449409 0.280107 0.013365 0.207609
H30   H     H_    0.469646 0.173453 0.132498 0.202403
H31   H     H_    0.411859 0.284601 0.164195 0.165833
C39   C     C_3   0.008325 0.752358 0.634940 -0.309952
C40   C     C_3   0.045720 0.782633 0.545355 -0.694458
H32   H     H_    0.100193 0.853365 0.543491 0.207824
H33   H     H_    0.155103 0.739981 0.513474 0.218249
H34   H     H_    0.909034 0.778771 0.509790 0.199604
H35   H     H_    0.942925 0.683965 0.637710 0.181295
H36   H     H_    0.884222 0.791220 0.658957 0.172199

loop_
_geom_bond_atom_site_label_1
_geom_bond_atom_site_label_2
_ccdc_geom_bond_type
C37   C38   S    
O15   V3    S    
O11   V4    S    
C21   C22   A    
C40   H32   S    
C1    O6    A    
C15   C39   S    
C16   C31   S    
C36   H22   S    
C40   H34   S    
C25   C26   A    
C24   H10   S    
C10   H5    S    
O19   C30   A    
C34   H18   S    
C3    C11   S    
C4    C8    S    
C18   H7    S    
C9    C10   A    
O5    C3    A    
C19   H8    S    
V2    O10   S    
O15   C29   A    
C5    C7    S    
C16   C17   A    
C33   C34   S    
O19   V4    S    
O8    V2    S    
C23   C27   S    
C31   H16   S    
C13   C14   A    
C34   H19   S    
C35   H26   S    
C33   H20   S    
O1    V2    S    
C12   H6    S    
O7    V1    S    
C31   C32   S    
C37   H30   S    
C22   C23   A    
C21   C26   A    
C36   H23   S    
C15   C16   A    
O14   V3    S    
C24   C25   A    
O17   V4    S    
O14   C28   A    
C15   C20   A    
C13   C37   S    
C34   H17   S    
C32   H12   S    
C25   H11   S    
C1    C20   S    
C9    H4    S    
C2    C26   S    
O4    C2    A    
C27   O16   A    
O17   V3    S    
O11   C28   A    
O18   C29   A    
O12   C27   A    
C17   C18   A    
O2    C1    A    
C9    C14   A    
C35   H25   S    
O13   V3    S    
C31   H15   S    
C38   H29   S    
C39   H36   S    
C5    C6    D    
C33   H21   S    
C38   H27   S    
O3    C4    A    
C7    H2    S    
O6    V2    S    
O9    V2    S    
O12   V3    S    
C22   H9    S    
O2    V1    S    
C36   H24   S    
C23   C24   A    
O16   V4    S    
C11   C12   A    
C17   C28   S    
O1    C2    A    
C14   C30   S    
C38   H28   S    
C35   C36   S    
O13   C30   A    
O5    V1    S    
O8    C3    A    
C40   H33   S    
C6    C29   S    
C10   C11   A    
O18   V4    S    
C32   H14   S    
V4    O20   S    
C8    H3    S    
O7    V2    S    
O4    V1    S    
C12   C13   A    
O3    V1    S    
V1    O10   S    
V3    O20   S    
C19   C20   A    
C39   H35   S    
C37   H31   S    
C18   C19   A    
C5    H1    S    
C39   C40   S    
C21   C33   S    
C7    C8    D    
C6    C35   S    
C32   H13   S    
O9    C4    A    
