data_mof_unit_14960.cif
_audit_creation_date              2013-03-05T16:00:48-0500
_audit_creation_method            fapswitch 2.2
_symmetry_space_group_name_H-M    P1
_symmetry_Int_Tables_number       1
_space_group_crystal_system       triclinic
_cell_length_a                    14.717482
_cell_length_b                    14.696953
_cell_length_c                    15.881962
_cell_angle_alpha                 76.877797
_cell_angle_beta                  102.637418
_cell_angle_gamma                 114.720724
_cell_volume                      3009.07495908

loop_
_atom_site_label
_atom_site_type_symbol
_atom_site_description
_atom_site_fract_x
_atom_site_fract_y
_atom_site_fract_z
_atom_type_partial_charge
O1    O     O_R   0.977910 0.338120 0.529720 -0.588658
O2    O     O_R   0.839850 0.379180 0.491640 -0.593972
C1    C     C_R   0.880478 0.312261 0.514085 0.832468
O3    O     O_R   0.069060 0.479460 0.639610 -0.580283
O4    O     O_R   0.931000 0.520530 0.601530 -0.556034
C2    C     C_R   0.999667 0.500074 0.659583 0.806559
Cu1   Cu    Cu3+1 0.081750 0.475690 0.522550 1.042191
Cu2   Cu    Cu3+1 0.918250 0.524310 0.477450 1.040543
O5    O     O_R   0.160150 0.620820 0.508360 -0.550552
O6    O     O_R   0.022090 0.661880 0.470280 -0.526459
O7    O     O_R   0.069000 0.479470 0.398470 -0.515322
O8    O     O_R   0.930940 0.520540 0.360390 -0.580221
C3    C     C_R   0.119536 0.687894 0.485834 0.890027
C4    C     C_R   0.000339 0.499956 0.340410 0.817293
C5    C     C_3   0.031364 0.416676 0.974506 0.383338
C6    C     C_3   0.890150 0.480677 0.933572 0.635605
C7    C     C_3   0.891557 0.478946 0.032858 0.390906
H1    H     H_    0.977927 0.341837 0.099982 0.204532
H2    H     H_    0.977752 0.341486 0.956737 0.203629
H3    H     H_    0.841582 0.401831 0.060916 0.150811
C8    C     C_1   0.001115 0.500127 0.250940 -0.065039
C9    C     C_3   0.999103 0.502009 0.916428 -0.303363
C10   C     C_3   0.031917 0.416817 0.072266 -0.593609
C11   C     C_3   0.000654 0.502135 0.082664 -0.273902
C12   C     C_3   0.073280 0.608368 0.040688 0.781664
C13   C     C_3   0.078311 0.604372 0.944494 0.351366
C14   C     C_1   0.001103 0.500756 0.175301 0.185875
C15   C     C_1   0.999089 0.501214 0.824316 0.224538
C16   C     C_1   0.999161 0.500651 0.748946 -0.053511
H4    H     H_    0.154663 0.610625 0.938521 0.188666
H5    H     H_    0.106956 0.424515 0.110185 0.302385
C17   C     C_R   0.813150 0.204588 0.519417 -0.157377
C18   C     C_R   0.186881 0.796009 0.479084 -0.243565
C19   C     C_R   0.784682 0.027317 0.536745 0.743243
C20   C     C_R   0.850797 0.128627 0.533431 -0.236185
C21   C     C_R   0.709009 0.178516 0.507925 -0.161247
C22   C     C_R   0.640099 0.077737 0.506514 -0.062309
C23   C     C_R   0.679255 0.000828 0.524225 -0.138364
C24   C     C_R   0.533641 0.051713 0.490354 0.097886
C25   C     C_R   0.466953 0.947984 0.498631 0.041193
C26   C     C_R   0.509136 0.873444 0.520765 -0.269958
C27   C     C_R   0.612599 0.899194 0.531061 0.710157
C28   C     C_R   0.491755 0.126284 0.464853 -0.116099
C29   C     C_R   0.388856 0.100909 0.457101 -0.095299
C30   C     C_R   0.321983 0.999722 0.470146 -0.058004
C31   C     C_R   0.360361 0.922332 0.485754 0.092290
C32   C     C_R   0.216797 0.974357 0.463697 0.242274
C33   C     C_R   0.150052 0.872492 0.468167 0.593381
C34   C     C_R   0.290659 0.821703 0.486599 -0.274754
H6    H     H_    0.315020 0.761142 0.491133 0.210027
H7    H     H_    0.362169 0.161975 0.438005 0.192772
H8    H     H_    0.931389 0.147442 0.542290 0.213544
H9    H     H_    0.683606 0.238620 0.502329 0.202535
H10   H     H_    0.464606 0.793444 0.532285 0.162775
H11   H     H_    0.536178 0.205801 0.448593 0.175905
N1    N     N_R   0.795410 0.560790 0.443550 -0.237747
N2    N     N_R   0.204590 0.439170 0.556520 -0.252016
C35   C     C_R   0.719749 0.674324 0.359316 0.273780
C36   C     C_R   0.798627 0.640396 0.379957 0.076496
C37   C     C_R   0.714013 0.508306 0.486817 0.119400
C38   C     C_R   0.628343 0.534588 0.466861 -0.102045
C39   C     C_R   0.636150 0.624647 0.406603 -0.110573
C40   C     C_R   0.538220 0.478346 0.507620 -0.019256
C41   C     C_R   0.462527 0.519512 0.494381 -0.038218
C42   C     C_R   0.482126 0.616807 0.445372 -0.144555
C43   C     C_R   0.564570 0.666744 0.400185 0.715488
C44   C     C_R   0.519275 0.381735 0.559488 0.564100
C45   C     C_R   0.436491 0.334311 0.604661 -0.079113
C46   C     C_R   0.364103 0.375616 0.595476 -0.125565
C47   C     C_R   0.371720 0.464262 0.533949 -0.131087
C48   C     C_R   0.280080 0.325765 0.641974 0.279931
C49   C     C_R   0.201467 0.360199 0.620926 -0.063479
C50   C     C_R   0.285508 0.490412 0.512217 0.746149
H12   H     H_    0.136107 0.322547 0.654987 0.193553
H13   H     H_    0.426822 0.260991 0.643497 0.225585
H14   H     H_    0.863811 0.678363 0.345677 0.188104
H15   H     H_    0.721084 0.450657 0.539960 0.217091
H16   H     H_    0.436703 0.658851 0.443413 0.214094
F1    F     F_    0.126288 0.429282 0.961195 -0.588409
F2    F     F_    0.034056 0.679790 0.039911 -0.489273
F3    F     F_    0.646978 0.823208 0.550743 -0.574731
F4    F     F_    0.049635 0.848481 0.464317 -0.564840
F5    F     F_    0.824450 0.955763 0.552031 -0.527776
N3    N     N_R   0.177056 0.050745 0.455436 0.153504
O9    O     O_R   0.096240 0.047663 0.400680 -0.223140
O10   O     O_R   0.212816 0.114662 0.510883 -0.336660
F6    F     F_    0.577885 0.761202 0.356366 -0.576716
F7    F     F_    0.275862 0.558857 0.441442 -0.655402
N4    N     N_R   0.724621 0.756297 0.288768 0.186354
O11   O     O_R   0.810119 0.832745 0.279005 -0.239860
O12   O     O_R   0.649711 0.745442 0.225414 -0.217449
N5    N     N_R   0.849256 0.553366 0.876986 0.212969
O13   O     O_R   0.777239 0.523770 0.812818 -0.236387
O14   O     O_R   0.880320 0.646002 0.891603 -0.127096
F8    F     F_    0.576014 0.327694 0.564340 -0.709875
N6    N     N_R   0.273579 0.241496 0.710724 0.148366
O15   O     O_R   0.186495 0.167959 0.721537 -0.257515
O16   O     O_R   0.350412 0.246253 0.771131 -0.270381
F9    F     F_    0.826559 0.384394 0.914171 -0.647624
F10   F     F_    0.852257 0.544590 0.046324 -0.531092
F11   F     F_    0.066020 0.686847 0.888325 -0.531999
N7    N     N_R   0.175177 0.640461 0.091404 0.105481
O17   O     O_R   0.235212 0.595153 0.093542 -0.317680
O18   O     O_R   0.207947 0.717712 0.132717 -0.209185

loop_
_geom_bond_atom_site_label_1
_geom_bond_atom_site_label_2
_geom_bond_distance
_ccdc_geom_bond_type
C35   C39   1.419465 A    
C12   F2    1.390340 S    
C26   C27   1.387730 A    
C11   C14   1.465391 S    
Cu2   N1    2.024732 S    
Cu1   Cu2   2.695468 S    
C30   C31   1.422048 A    
C45   H13   1.081769 S    
Cu1   O7    1.928446 S    
C31   C34   1.402805 A    
C17   C21   1.395505 A    
C4    C8    1.422919 S    
C21   C22   1.404129 A    
N3    O10   1.301626 A    
C23   C27   1.397401 A    
C46   C47   1.418630 A    
C13   F11   1.385487 S    
O4    C2    1.297053 A    
O7    C4    1.297215 A    
C12   N7    1.473969 S    
C18   C34   1.395687 A    
C7    H3    1.113963 S    
C38   C40   1.441287 A    
C19   C20   1.393414 A    
N2    C50   1.362499 A    
C46   C48   1.416846 A    
O5    C3    1.302374 A    
C21   H9    1.074245 S    
N7    O17   1.301516 A    
C5    C9    1.558927 S    
C5    F1    1.387699 S    
C6    C7    1.567003 S    
N6    O16   1.301388 A    
C10   C11   1.555992 S    
C41   C47   1.438229 A    
N4    O12   1.301428 A    
C5    C10   1.551323 S    
C8    C14   1.199191 T    
C9    C15   1.465575 S    
C44   F8    1.353836 S    
C38   C39   1.423635 A    
C27   F3    1.358589 S    
O3    Cu1   1.923983 S    
C19   C23   1.411922 A    
C30   C32   1.418185 A    
C40   C44   1.417985 A    
C37   H15   1.073163 S    
C7    C11   1.558499 S    
C39   C43   1.404468 A    
C44   C45   1.389290 A    
C17   C20   1.397670 A    
N3    O9    1.301245 A    
C49   H12   1.081996 S    
C24   C25   1.420804 A    
C45   C46   1.399119 A    
C24   C28   1.414030 A    
C48   N6    1.437994 S    
C12   C13   1.561035 S    
N1    C37   1.359755 A    
C37   C38   1.419968 A    
O1    C1    1.301365 A    
C10   H5    1.109308 S    
C5    H2    1.112778 S    
C28   C29   1.383689 A    
C50   F7    1.353420 S    
C3    C18   1.473285 S    
C22   C23   1.420697 A    
C32   C33   1.401272 A    
Cu2   O8    1.923985 S    
N6    O15   1.301422 A    
C47   C50   1.425743 A    
N5    O14   1.301143 A    
C32   N3    1.438200 S    
C11   C12   1.570976 S    
N7    O18   1.301516 A    
C29   H7    1.082052 S    
C28   H11   1.075961 S    
C25   C26   1.416911 A    
O8    C4    1.295874 A    
C6    N5    1.475235 S    
O3    C2    1.296009 A    
C19   F5    1.357980 S    
C25   C31   1.430013 A    
C43   F6    1.357723 S    
C29   C30   1.395819 A    
Cu1   O5    1.941331 S    
C15   C16   1.199159 T    
C6    C9    1.573362 S    
C42   H16   1.075822 S    
O1    Cu1   1.955426 S    
O2    Cu2   1.941330 S    
O6    C3    1.301262 A    
C7    F10   1.387661 S    
O4    Cu2   1.928446 S    
C6    F9    1.391898 S    
C13   H4    1.111970 S    
N1    C36   1.352474 A    
C41   C42   1.407717 A    
O2    C1    1.300499 A    
C35   C36   1.395419 A    
C48   C49   1.396479 A    
C22   C24   1.426317 A    
H1    C10   1.113523 S    
N5    O13   1.301628 A    
C33   F4    1.358836 S    
C42   C43   1.386709 A    
N2    C49   1.353658 A    
C1    C17   1.468874 S    
C35   N4    1.435947 S    
C26   H10   1.075030 S    
C40   C41   1.433434 A    
C2    C16   1.422868 S    
Cu2   O6    1.955426 S    
C34   H6    1.073526 S    
C9    C13   1.559245 S    
C20   H8    1.083243 S    
C18   C33   1.402628 A    
N4    O11   1.301364 A    
C36   H14   1.082105 S    
Cu1   N2    2.025086 S    
