data_mof_unit_48515.cif
_audit_creation_date              2012-12-11T14:30:20-0500
_audit_creation_method            fapswitch 2.2
_symmetry_space_group_name_H-M    P1
_symmetry_Int_Tables_number       1
_space_group_crystal_system       triclinic
_cell_length_a                    12.685909
_cell_length_b                    12.6859
_cell_length_c                    27.005136
_cell_angle_alpha                 90.000015
_cell_angle_beta                  89.999956
_cell_angle_gamma                 120.000233
_cell_volume                      3763.73342689

loop_
_atom_site_label
_atom_site_type_symbol
_atom_type_description
_atom_site_fract_x
_atom_site_fract_y
_atom_site_fract_z
_atom_type_partial_charge
C1    C     C_R   0.557393 0.455648 0.822021 0.538469
C2    C     C_R   0.455314 0.559787 0.177170 0.546002
C3    C     C_R   0.081664 0.363873 0.482464 -0.120062
C4    C     C_R   0.282202 0.918316 0.017534 -0.120065
C5    C     C_R   0.636131 0.717790 0.482464 -0.120061
C6    C     C_R   0.290709 0.927173 0.533540 -0.138803
C7    C     C_R   0.072847 0.363551 0.966458 -0.138805
C8    C     C_R   0.636467 0.709290 0.533540 -0.138803
C9    C     C_R   0.290704 0.927155 0.966458 -0.138804
C10   C     C_R   0.072828 0.363537 0.533540 -0.138804
C11   C     C_R   0.636451 0.709296 0.966458 -0.138804
C12   C     C_2   0.942994 0.763350 0.058118 0.184180
C13   C     C_R   0.440214 0.895528 0.322829 0.546000
C14   C     C_2   0.820354 0.056990 0.441883 0.184178
C15   C     C_2   0.236648 0.179642 0.058118 0.184180
C16   C     C_2   0.943008 0.763362 0.441883 0.184178
C17   C     C_2   0.820358 0.057007 0.058118 0.184181
C18   C     C_2   0.236635 0.179645 0.441883 0.184178
C19   C     C_2   0.834142 0.059891 0.548569 0.183710
C20   C     C_2   0.940095 0.774242 0.951433 0.183713
C21   C     C_2   0.225746 0.165857 0.548569 0.183710
C22   C     C_2   0.834148 0.059907 0.951432 0.183714
C23   C     C_2   0.940111 0.774253 0.548568 0.183710
C24   C     C_R   0.104473 0.544686 0.177170 0.546001
C25   C     C_2   0.225757 0.165851 0.951433 0.183714
C26   C     C_R   0.013892 0.519384 0.971297 0.038943
C27   C     C_R   0.505493 0.986112 0.528703 0.038942
C28   C     C_R   0.480616 0.494508 0.971297 0.038943
C29   C     C_R   0.013889 0.519382 0.528703 0.038942
C30   C     C_R   0.505492 0.986108 0.971297 0.038943
C31   C     C_R   0.480620 0.494506 0.528702 0.038942
C32   C     C_R   0.496001 0.973744 0.476950 0.036672
C33   C     C_R   0.898255 0.442607 0.677979 0.538469
C34   C     C_R   0.026261 0.522260 0.023049 0.036674
C35   C     C_R   0.477744 0.503998 0.476950 0.036672
C36   C     C_R   0.495999 0.973740 0.023049 0.036674
C37   C     C_R   0.026256 0.522257 0.476950 0.036672
C38   C     C_R   0.477740 0.504000 0.023049 0.036674
C39   C     C_R   0.962625 0.681688 0.975855 -0.025569
C40   C     C_R   0.719061 0.037365 0.524146 -0.025566
C41   C     C_R   0.318311 0.280936 0.975855 -0.025570
C42   C     C_R   0.962635 0.681695 0.524146 -0.025566
C43   C     C_R   0.719064 0.037375 0.975855 -0.025570
C44   C     C_R   0.544351 0.101745 0.822020 0.538469
C45   C     C_R   0.318304 0.280938 0.524146 -0.025567
C46   C     C_R   0.710552 0.029400 0.471571 -0.015714
C47   C     C_R   0.970590 0.681143 0.028430 -0.015716
C48   C     C_R   0.318848 0.289447 0.471571 -0.015716
C49   C     C_R   0.710554 0.029410 0.028430 -0.015716
C50   C     C_R   0.970599 0.681151 0.471571 -0.015716
C51   C     C_R   0.318856 0.289446 0.028430 -0.015716
C52   C     C_R   0.947084 0.574401 0.896870 -0.095532
C53   C     C_R   0.627315 0.052912 0.603130 -0.095531
C54   C     C_R   0.425599 0.372683 0.896870 -0.095532
C55   C     C_R   0.557393 0.455648 0.677979 0.538470
C56   C     C_R   0.947088 0.574403 0.603130 -0.095530
C57   C     C_R   0.627316 0.052916 0.896870 -0.095532
C58   C     C_R   0.425596 0.372684 0.603130 -0.095531
C59   C     C_R   0.580633 0.972591 0.396325 -0.105635
C60   C     C_R   0.027405 0.608036 0.103675 -0.105638
C61   C     C_R   0.391958 0.419367 0.396325 -0.105635
C62   C     C_R   0.580632 0.972595 0.103675 -0.105638
C63   C     C_R   0.027408 0.608041 0.396325 -0.105635
C64   C     C_R   0.391963 0.419367 0.103675 -0.105639
C65   C     C_R   0.059729 0.528233 0.125921 -0.013387
C66   C     C_R   0.898256 0.442607 0.822020 0.538468
C67   C     C_R   0.468508 0.940276 0.374078 -0.013392
C68   C     C_R   0.471766 0.531494 0.125922 -0.013388
C69   C     C_R   0.059724 0.528232 0.374078 -0.013392
C70   C     C_R   0.468506 0.940272 0.125922 -0.013388
C71   C     C_R   0.471768 0.531491 0.374078 -0.013393
C72   C     C_R   0.526599 0.041120 0.629829 -0.024046
C73   C     C_R   0.958881 0.485480 0.870170 -0.024045
C74   C     C_R   0.514521 0.473401 0.629829 -0.024046
C75   C     C_R   0.526599 0.041120 0.870171 -0.024045
C76   C     C_R   0.958880 0.485479 0.629829 -0.024046
C77   C     C_R   0.544351 0.101745 0.677979 0.538469
C78   C     C_R   0.514520 0.473401 0.870171 -0.024045
C79   C     C_R   0.977431 0.595144 0.947586 0.015207
C80   C     C_R   0.617711 0.022565 0.552414 0.015210
C81   C     C_R   0.404856 0.382287 0.947586 0.015206
C82   C     C_R   0.977434 0.595146 0.552414 0.015210
C83   C     C_R   0.617712 0.022569 0.947586 0.015206
C84   C     C_R   0.404854 0.382288 0.552414 0.015209
C85   C     C_R   0.597611 0.994491 0.447951 0.016165
C86   C     C_R   0.005506 0.603116 0.052049 0.016162
C87   C     C_R   0.396881 0.402388 0.447951 0.016165
C88   C     C_R   0.455314 0.559786 0.322829 0.546001
C89   C     C_R   0.597611 0.994495 0.052048 0.016163
C90   C     C_R   0.005508 0.603119 0.447951 0.016165
C91   C     C_R   0.396884 0.402389 0.052049 0.016162
C92   C     C_R   0.010612 0.423520 0.892833 -0.123537
C93   C     C_R   0.412908 0.989396 0.607165 -0.123536
C94   C     C_R   0.576482 0.587092 0.892834 -0.123537
C95   C     C_R   0.010605 0.423514 0.607165 -0.123536
C96   C     C_R   0.412907 0.989389 0.892834 -0.123537
C97   C     C_R   0.576489 0.587091 0.607165 -0.123536
C98   C     C_R   0.372525 0.929910 0.403193 -0.087527
C99   C     C_R   0.440213 0.895527 0.177170 0.546001
C100  C     C_R   0.070106 0.442625 0.096805 -0.087522
C101  C     C_R   0.557386 0.627473 0.403193 -0.087526
C102  C     C_R   0.372520 0.929896 0.096805 -0.087522
C103  C     C_R   0.070090 0.442615 0.403193 -0.087527
C104  C     C_R   0.557377 0.627481 0.096805 -0.087521
C105  C     C_R   0.035105 0.437291 0.943263 0.015623
C106  C     C_R   0.402188 0.964905 0.556735 0.015624
C107  C     C_R   0.562710 0.597814 0.943264 0.015623
C108  C     C_R   0.035096 0.437283 0.556735 0.015624
C109  C     C_R   0.402186 0.964896 0.943264 0.015623
C110  C     C_R   0.104472 0.544686 0.322829 0.546001
C111  C     C_R   0.562719 0.597812 0.556735 0.015624
C112  C     C_R   0.383792 0.941812 0.454114 0.031455
C113  C     C_R   0.058202 0.441989 0.045884 0.031456
C114  C     C_R   0.558022 0.616207 0.454114 0.031456
C115  C     C_R   0.383787 0.941799 0.045885 0.031455
C116  C     C_R   0.058188 0.441980 0.454114 0.031455
C117  C     C_R   0.558012 0.616213 0.045884 0.031456
C118  C     C_R   0.081686 0.363888 0.017533 -0.120066
C119  C     C_R   0.282208 0.918336 0.482464 -0.120061
C120  C     C_R   0.636114 0.717798 0.017534 -0.120066
Cr1   Cr    Cr6+3 0.487630 0.241180 0.750000 1.064932
Cr2   Cr    Cr6+3 0.753550 0.512370 0.750000 1.064933
Cr3   Cr    Cr6+3 0.758820 0.246450 0.750000 1.064932
Cr4   Cr    Cr6+3 0.241180 0.487630 0.250000 1.059750
Cr5   Cr    Cr6+3 0.512370 0.753550 0.250000 1.059749
Cr6   Cr    Cr6+3 0.246450 0.758820 0.250000 1.059749
H1    H     H_    0.024407 0.676159 0.126711 0.178505
H2    H     H_    0.715086 0.096265 0.878874 0.193391
H3    H     H_    0.903742 0.618826 0.621126 0.193393
H4    H     H_    0.381178 0.284913 0.878875 0.193391
H5    H     H_    0.096885 0.381509 0.113249 0.158199
H6    H     H_    0.284633 0.903139 0.386749 0.158208
H7    H     H_    0.618493 0.715376 0.113249 0.158200
H8    H     H_    0.096861 0.381494 0.386749 0.158208
H9    H     H_    0.284625 0.903117 0.113249 0.158200
H10   H     H_    0.618508 0.715365 0.386749 0.158209
H11   H     H_    0.334546 0.978188 0.627787 0.161472
H12   H     H_    0.651750 0.975581 0.373290 0.178506
H13   H     H_    0.021824 0.356368 0.872211 0.161469
H14   H     H_    0.643644 0.665454 0.627786 0.161473
H15   H     H_    0.334544 0.978178 0.872212 0.161469
H16   H     H_    0.021813 0.356360 0.627787 0.161472
H17   H     H_    0.643633 0.665456 0.872212 0.161470
H18   H     H_    0.106133 0.302440 0.035001 0.109642
H19   H     H_    0.196316 0.893896 0.464996 0.109645
H20   H     H_    0.697562 0.803693 0.035001 0.109642
H21   H     H_    0.106105 0.302421 0.464996 0.109645
H22   H     H_    0.196308 0.893870 0.035002 0.109642
H23   H     H_    0.323840 0.348247 0.126711 0.178505
H24   H     H_    0.697583 0.803682 0.464996 0.109645
H25   H     H_    0.211222 0.909017 0.554876 0.165841
H26   H     H_    0.091008 0.302224 0.945122 0.165843
H27   H     H_    0.697799 0.788777 0.554875 0.165842
H28   H     H_    0.211216 0.908995 0.945122 0.165842
H29   H     H_    0.090985 0.302207 0.554876 0.165841
H30   H     H_    0.697779 0.788784 0.945122 0.165844
H31   H     H_    0.980358 0.857871 0.047415 0.083135
H32   H     H_    0.877508 0.019624 0.452588 0.083131
H33   H     H_    0.142127 0.122485 0.047414 0.083134
H34   H     H_    0.024419 0.676168 0.373290 0.178505
H35   H     H_    0.980375 0.857883 0.452587 0.083132
H36   H     H_    0.877515 0.019645 0.047413 0.083134
H37   H     H_    0.142114 0.122491 0.452588 0.083132
H38   H     H_    0.920642 0.112295 0.529934 0.113508
H39   H     H_    0.887685 0.808331 0.970067 0.113514
H40   H     H_    0.191651 0.079357 0.529934 0.113507
H41   H     H_    0.920646 0.112318 0.970066 0.113515
H42   H     H_    0.887710 0.808351 0.529934 0.113507
H43   H     H_    0.191668 0.079353 0.970067 0.113514
H44   H     H_    0.651752 0.975592 0.126711 0.178505
H45   H     H_    0.323829 0.348250 0.373290 0.178506
H46   H     H_    0.715084 0.096257 0.621126 0.193392
H47   H     H_    0.903735 0.618821 0.878875 0.193391
H48   H     H_    0.381172 0.284916 0.621126 0.193392
O1    O     O_R   0.460870 0.120930 0.805240 -0.504741
O2    O     O_R   0.120930 0.460870 0.194760 -0.500837
O3    O     O_R   0.539130 0.660060 0.305240 -0.500840
O4    O     O_R   0.339940 0.879070 0.194760 -0.500837
O5    O     O_R   0.498910 0.350470 0.801870 -0.498693
O6    O     O_R   0.851560 0.501090 0.698130 -0.498693
O7    O     O_R   0.649530 0.148440 0.801870 -0.498693
O8    O     O_R   0.498910 0.350470 0.698130 -0.498693
O9    O     O_R   0.851560 0.501090 0.801870 -0.498693
O10   O     O_R   0.649530 0.148440 0.698130 -0.498693
O11   O     O_R   0.350470 0.498910 0.301870 -0.502199
O12   O     O_R   0.660060 0.539130 0.694760 -0.504741
O13   O     O_R   0.501090 0.851560 0.198130 -0.502201
O14   O     O_R   0.148440 0.649530 0.301870 -0.502199
O15   O     O_R   0.350470 0.498910 0.198130 -0.502201
O16   O     O_R   0.501090 0.851560 0.301870 -0.502199
O17   O     O_R   0.148440 0.649530 0.198130 -0.502201
O18   O     O_3   0.666667 0.333333 0.750000 -0.254307
O19   O     O_3   0.333333 0.666667 0.250000 -0.260430
O20   O     O_2   0.874263 0.724732 0.093589 -0.498807
O21   O     O_2   0.850470 0.125719 0.406411 -0.498812
O22   O     O_2   0.275264 0.149530 0.093590 -0.498807
O23   O     O_R   0.879070 0.339940 0.805240 -0.504740
O24   O     O_2   0.874279 0.724748 0.406411 -0.498812
O25   O     O_2   0.850470 0.125736 0.093589 -0.498808
O26   O     O_2   0.275247 0.149530 0.406411 -0.498812
O27   O     O_2   0.833140 0.014347 0.588514 -0.491586
O28   O     O_2   0.985639 0.818787 0.911488 -0.491581
O29   O     O_2   0.181206 0.166859 0.588514 -0.491586
O30   O     O_2   0.833148 0.014361 0.911488 -0.491582
O31   O     O_2   0.985652 0.818792 0.588514 -0.491587
O32   O     O_2   0.181211 0.166851 0.911488 -0.491581
O33   O     O_R   0.460870 0.120930 0.694760 -0.504741
O34   O     O_R   0.660060 0.539130 0.805240 -0.504740
O35   O     O_R   0.879070 0.339940 0.694760 -0.504741
O36   O     O_R   0.120930 0.460870 0.305240 -0.500839
O37   O     O_R   0.539130 0.660060 0.194760 -0.500837
O38   O     O_R   0.339940 0.879070 0.305240 -0.500839

loop_
_geom_bond_atom_site_label_1
_geom_bond_atom_site_label_2
_ccdc_geom_bond_type
C36   C89   A    
C14   O21   D    
C3    H21   S    
C56   C76   A    
C5    C114  A    
C43   C83   A    
C21   O29   D    
C4    C115  A    
C10   C108  A    
C42   C82   A    
C44   O1    A    
C66   O9    A    
C57   H2    S    
C99   O13   A    
Cr5   O37   S    
C100  H5    S    
C88   O3    A    
C14   C46   S    
C37   C116  A    
C58   H48   S    
C34   C113  A    
Cr2   O6    S    
C20   H39   S    
C110  O14   A    
C2    O37   A    
Cr3   O10   S    
C23   C42   S    
C37   C90   A    
C14   H32   S    
C94   H17   S    
C64   C68   A    
C44   O7    A    
C103  H8    S    
C16   C50   S    
C2    C68   S    
C3    C116  A    
C77   O33   A    
C76   C95   A    
Cr4   O11   S    
C97   C111  A    
Cr2   O12   S    
C29   C37   A    
C28   C107  A    
C4    H22   S    
C62   C89   A    
C120  H20   S    
C19   O27   D    
C77   O10   A    
C62   C70   A    
C35   C114  A    
C34   C86   A    
C55   O12   A    
C30   C83   A    
C1    O34   A    
C102  H9    S    
C102  C115  A    
C61   C87   A    
C67   C98   A    
C51   C91   A    
C96   H15   S    
C55   C74   S    
C35   C87   A    
C26   C34   A    
C63   C69   A    
Cr4   O19   S    
C40   C80   A    
C29   C108  A    
C17   O25   D    
Cr5   O16   S    
C61   H45   S    
C15   C51   S    
C12   H31   S    
C52   C79   A    
C53   C72   A    
C97   H14   S    
C56   H3    S    
C53   H46   S    
C46   C85   A    
C59   C67   A    
C61   C71   A    
C71   C101  A    
C23   O31   D    
C33   O6    A    
C101  C114  A    
C38   C117  A    
C7    C118  A    
C110  O36   A    
C33   O35   A    
C63   H34   S    
Cr1   O18   S    
C12   C47   S    
C54   H4    S    
C11   C120  A    
C26   C105  A    
Cr4   O15   S    
C101  H10   S    
C50   C90   A    
C75   C96   A    
C74   C97   A    
C21   C45   S    
C19   C40   S    
C69   C103  A    
C9    C109  A    
C62   H44   S    
C28   C38   A    
C94   C107  A    
C98   C112  A    
C104  H7    S    
C30   C109  A    
C1    C78   S    
C66   O23   A    
C47   C86   A    
Cr2   O34   S    
C53   C80   A    
C65   C100  A    
C99   O4    A    
Cr1   O5    S    
C52   C73   A    
C95   C108  A    
C117  C120  A    
C17   C49   S    
C20   C39   S    
C60   C86   A    
C43   C49   A    
C27   C106  A    
C66   C73   S    
C38   C91   A    
C21   H40   S    
C71   C88   S    
C5    H24   S    
C39   C79   A    
C44   C75   S    
C40   C46   A    
C59   C85   A    
C15   H33   S    
C72   C77   S    
C2    O15   A    
C58   C84   A    
C93   C106  A    
C5    C8    A    
C23   H42   S    
C18   H37   S    
C92   C105  A    
C33   C76   S    
C22   C43   S    
Cr5   O19   S    
C41   C81   A    
C57   C83   A    
C6    C106  A    
C48   C87   A    
Cr2   O18   S    
C8    H27   S    
C92   H13   S    
C24   C65   S    
C42   C50   A    
Cr3   O18   S    
C6    H25   S    
C11   H30   S    
Cr2   O9    S    
C69   C110  S    
C60   C65   A    
C27   C80   A    
C11   C107  A    
C31   C35   A    
C8    C111  A    
C45   C84   A    
Cr1   O33   S    
Cr5   O3    S    
C25   C41   S    
C25   O32   D    
C24   O2    A    
C6    C119  A    
C16   O24   D    
C70   C99   S    
C58   C74   A    
C39   C47   A    
C104  C117  A    
C13   C67   S    
C45   C48   A    
C25   H43   S    
C13   O38   A    
C88   O11   A    
C32   C112  A    
C27   C32   A    
C12   O20   D    
Cr3   O23   S    
C60   H1    S    
C100  C113  A    
C68   C104  A    
C73   C92   A    
C49   C89   A    
C18   C48   S    
C10   H29   S    
C9    H28   S    
C112  C119  A    
C70   C102  A    
C56   C82   A    
Cr4   O2    S    
C22   O30   D    
C16   H35   S    
C119  H19   S    
C96   C109  A    
C118  H18   S    
C26   C79   A    
C59   H12   S    
C30   C36   A    
C64   H23   S    
Cr5   O13   S    
C57   C75   A    
Cr6   O14   S    
C103  C116  A    
C28   C81   A    
C20   O28   D    
C29   C82   A    
Cr3   O7    S    
C3    C10   A    
Cr6   O38   S    
C18   O26   D    
C7    H26   S    
C1    O5    A    
Cr6   O19   S    
Cr1   O1    S    
Cr4   O36   S    
C78   C94   A    
C32   C85   A    
Cr3   O35   S    
C63   C90   A    
C13   O16   A    
C72   C93   A    
C7    C105  A    
Cr6   O4    S    
C24   O17   A    
C19   H38   S    
Cr6   O17   S    
C55   O8    A    
C93   H11   S    
C17   H36   S    
C31   C84   A    
C113  C118  A    
C15   O22   D    
C95   H16   S    
C98   H6    S    
C31   C111  A    
C64   C91   A    
C4    C9    A    
C36   C115  A    
C52   H47   S    
C41   C51   A    
C54   C81   A    
Cr1   O8    S    
C54   C78   A    
C22   H41   S    
