data_mof_unit_22816.cif
_audit_creation_date              2012-10-26T19:36:26-0400
_audit_creation_method            fapswitch 2.2
_symmetry_space_group_name_H-M    P1
_symmetry_Int_Tables_number       1
_space_group_crystal_system       triclinic
_cell_length_a                    10.782883
_cell_length_b                    15.977112
_cell_length_c                    14.73998
_cell_angle_alpha                 90.590402
_cell_angle_beta                  90.021473
_cell_angle_gamma                 89.823974
_cell_volume                      2539.24691875

loop_
_atom_site_label
_atom_site_type_symbol
_atom_type_description
_atom_site_fract_x
_atom_site_fract_y
_atom_site_fract_z
_atom_type_partial_charge
C1    C     C_R   0.501311 0.340867 0.499576 0.544897
C2    C     C_R   0.506694 0.087239 0.496528 0.014587
C3    C     C_R   0.385288 0.959099 0.500356 0.003395
C4    C     C_R   0.618205 0.040726 0.497755 0.003227
C5    C     C_1   0.496898 0.823053 0.501703 -0.070576
C6    C     C_1   0.506433 0.176874 0.497688 -0.071165
C7    C     C_1   0.504300 0.251882 0.498616 -0.039455
C8    C     C_1   0.498074 0.748065 0.501240 -0.041191
C9    C     C_R   0.545280 0.568108 0.952129 -0.165707
C10   C     C_R   0.454634 0.431179 0.047534 -0.161962
C11   C     C_R   0.499029 0.499169 0.902770 -0.041410
C12   C     C_R   0.499528 0.659114 0.500415 0.543479
C13   C     C_R   0.500088 0.500297 0.097032 -0.026591
C14   C     C_R   0.452812 0.430266 0.951573 0.252844
C15   C     C_R   0.549319 0.568407 0.048785 0.264230
C16   C     C_R   0.261800 0.502548 0.500001 0.534243
C17   C     C_R   0.738225 0.498736 0.500140 0.543909
C18   C     C_1   0.499824 0.499644 0.802697 0.155199
C19   C     C_1   0.499910 0.499941 0.197241 0.174972
C20   C     C_R   0.256843 0.715035 0.322560 -0.103483
C21   C     C_R   0.764016 0.280050 0.676724 -0.115044
C22   C     C_R   0.196010 0.667448 0.387778 -0.101268
C23   C     C_R   0.871824 0.498835 0.500827 -0.005779
C24   C     C_R   0.827361 0.328602 0.613733 -0.130466
C25   C     C_R   0.122758 0.598681 0.361617 0.044460
C26   C     C_R   0.877494 0.406297 0.639458 0.053251
C27   C     C_R   0.110321 0.578531 0.268412 0.292297
C28   C     C_R   0.865070 0.434935 0.729920 0.302390
C29   C     C_R   0.172214 0.626643 0.203704 -0.093492
C30   C     C_R   0.797666 0.386503 0.791980 -0.093760
C31   C     C_R   0.245652 0.694304 0.230704 -0.144154
C32   C     C_R   0.748667 0.309150 0.765625 -0.135447
C33   C     C_R   0.932922 0.543061 0.432878 -0.123306
C34   C     C_R   0.128148 0.505420 0.500349 -0.018625
C35   C     C_R   0.066806 0.462077 0.568878 -0.138040
C36   C     C_3   0.093089 0.436915 0.244408 0.014505
C37   C     C_3   0.127270 0.406452 0.148893 -0.275505
C38   C     C_3   0.179413 0.317568 0.150480 -0.489738
C39   C     C_3   0.007447 0.507131 0.814132 -0.003205
C40   C     C_3   0.039372 0.593635 0.852402 -0.246965
C41   C     C_3   0.150291 0.589487 0.916688 -0.492528
C42   C     C_R   0.742327 0.080871 0.494544 0.026626
C43   C     C_R   0.772243 0.137003 0.425058 -0.094864
C44   C     C_R   0.890883 0.171869 0.420361 -0.128737
C45   C     C_R   0.938654 0.458242 0.569921 0.004063
C46   C     C_R   0.980681 0.150964 0.484710 -0.112485
C47   C     C_R   0.952103 0.095011 0.553773 -0.106176
C48   C     C_R   0.833700 0.059853 0.558627 -0.106612
C49   C     C_R   0.261317 0.918591 0.501007 0.026844
C50   C     C_R   0.229674 0.861216 0.568876 -0.100113
C51   C     C_R   0.112071 0.824530 0.569792 -0.126313
C52   C     C_R   0.024859 0.845075 0.503453 -0.105863
C53   C     C_R   0.054954 0.902540 0.436218 -0.104422
C54   C     C_R   0.172452 0.939332 0.434984 -0.103126
C55   C     C_3   0.715005 0.658660 0.066041 0.008557
C56   C     C_R   0.061315 0.547612 0.432175 -0.023911
C57   C     C_3   0.787098 0.700399 0.143364 -0.241409
C58   C     C_3   0.913195 0.731264 0.111021 -0.483650
C59   C     C_3   0.289169 0.366524 0.882365 0.004363
C60   C     C_3   0.242561 0.281863 0.847404 -0.252289
C61   C     C_3   0.107782 0.286550 0.816188 -0.487698
C62   C     C_R   0.611471 0.953327 0.501109 -0.123935
C63   C     C_R   0.391980 0.046519 0.497461 -0.125669
C64   C     C_R   0.496793 0.912652 0.502265 0.015424
Cu1   Cu    Cu3+1 0.500040 0.500000 0.589220 0.997395
Cu2   Cu    Cu3+1 0.499960 0.500000 0.410780 0.981098
H1    H     H_    0.293214 0.731063 0.180285 0.130322
H2    H     H_    0.781856 0.409385 0.860412 0.111912
H3    H     H_    0.880264 0.576020 0.381584 0.151765
H4    H     H_    0.119104 0.428425 0.619782 0.113493
H5    H     H_    0.696259 0.916548 0.501086 0.108001
H6    H     H_    0.307133 0.083232 0.497239 0.105293
H7    H     H_    0.027150 0.391815 0.274765 0.150673
H8    H     H_    0.177493 0.436687 0.288398 0.145997
H9    H     H_    0.043567 0.407577 0.104854 0.170563
H10   H     H_    0.197550 0.449052 0.119556 0.150057
H11   H     H_    0.263874 0.315074 0.193560 0.149863
H12   H     H_    0.697412 0.272213 0.813917 0.136376
H13   H     H_    0.204267 0.297258 0.080562 0.149977
H14   H     H_    0.109183 0.273636 0.177496 0.145255
H15   H     H_    0.089279 0.482310 0.776584 0.126905
H16   H     H_    0.986715 0.465476 0.872352 0.110916
H17   H     H_    0.061381 0.636513 0.795744 0.174315
H18   H     H_    0.958003 0.619248 0.889921 0.160972
H19   H     H_    0.130826 0.546257 0.973455 0.134773
H20   H     H_    0.169093 0.652729 0.945336 0.145770
H21   H     H_    0.234075 0.567443 0.879634 0.148442
H22   H     H_    0.704477 0.152784 0.373721 0.114289
H23   H     H_    0.578922 0.621678 0.915213 0.111870
H24   H     H_    0.913289 0.215013 0.366692 0.102330
H25   H     H_    0.072445 0.177986 0.480953 0.102459
H26   H     H_    0.021906 0.078563 0.603338 0.112740
H27   H     H_    0.813188 0.016366 0.612427 0.103790
H28   H     H_    0.295453 0.845517 0.621601 0.113663
H29   H     H_    0.088490 0.780233 0.622061 0.111094
H30   H     H_    0.933873 0.816660 0.504298 0.108532
H31   H     H_    0.987113 0.918738 0.385131 0.112667
H32   H     H_    0.194344 0.983671 0.382306 0.102992
H33   H     H_    0.704688 0.704042 0.009807 0.132229
H34   H     H_    0.421165 0.377004 0.083440 0.126555
H35   H     H_    0.770042 0.603431 0.041759 0.131645
H36   H     H_    0.733072 0.754369 0.170760 0.172440
H37   H     H_    0.801072 0.654632 0.198809 0.191523
H38   H     H_    0.967532 0.678677 0.081130 0.154144
H39   H     H_    0.965529 0.758028 0.169319 0.154842
H40   H     H_    0.901123 0.780568 0.059154 0.139920
H41   H     H_    0.278911 0.413274 0.827458 0.132790
H42   H     H_    0.231202 0.386128 0.941616 0.115691
H43   H     H_    0.301185 0.260620 0.789501 0.181140
H44   H     H_    0.250488 0.235046 0.902392 0.164993
H45   H     H_    0.313023 0.767893 0.343298 0.132782
H46   H     H_    0.047313 0.308959 0.872440 0.138974
H47   H     H_    0.076099 0.223417 0.794384 0.151634
H48   H     H_    0.098999 0.329300 0.757671 0.139540
H49   H     H_    0.725074 0.220437 0.656184 0.133693
H50   H     H_    0.206390 0.683880 0.458817 0.114131
H51   H     H_    0.835809 0.306408 0.544404 0.118510
H52   H     H_    0.163084 0.611584 0.132303 0.108999
N1    N     N_1   0.500040 0.499980 0.276710 -0.189129
N2    N     N_1   0.499960 0.500020 0.723290 -0.187332
O1    O     O_R   0.500060 0.380310 0.575320 -0.482981
O2    O     O_3   0.905582 0.514185 0.754310 -0.563582
O3    O     O_3   0.596173 0.635876 0.097965 -0.565487
O4    O     O_3   0.415277 0.358341 0.906649 -0.566756
O5    O     O_R   0.499940 0.619690 0.424680 -0.481847
O6    O     O_R   0.500000 0.380310 0.424640 -0.500276
O7    O     O_R   0.500000 0.619690 0.575360 -0.493199
O8    O     O_R   0.319670 0.500010 0.575340 -0.507323
O9    O     O_R   0.680330 0.499990 0.424660 -0.501395
O10   O     O_R   0.319610 0.500010 0.424650 -0.505992
O11   O     O_R   0.680390 0.499990 0.575350 -0.469798
O12   O     O_3   0.032019 0.515279 0.239518 -0.589267

loop_
_geom_bond_atom_site_label_1
_geom_bond_atom_site_label_2
_ccdc_geom_bond_type
C11   C18   S    
C34   C56   A    
C23   C45   A    
C17   O11   A    
C47   H26   S    
C40   H18   S    
C25   C56   S    
C21   H49   S    
C3    C49   S    
C12   O7    A    
C53   C54   A    
C52   C53   A    
C31   H1    S    
C41   H20   S    
C24   H51   S    
C17   C23   S    
C39   O2    S    
C15   O3    S    
C43   H22   S    
Cu1   O7    S    
C36   C37   S    
C24   C26   A    
C36   O12   S    
C11   C14   A    
C28   O2    S    
C27   C29   A    
C38   H13   S    
C49   C54   A    
C4    C62   A    
C34   C35   A    
C62   C64   A    
C60   H43   S    
C26   C45   S    
C16   C34   S    
C35   H4    S    
C23   C33   A    
C22   C25   A    
Cu1   O1    S    
C16   O10   A    
C33   H3    S    
Cu2   O9    S    
C33   C56   A    
C22   H50   S    
C37   H9    S    
C19   N1    T    
C59   C60   S    
C27   O12   S    
C40   H17   S    
C2    C6    S    
C41   H21   S    
Cu1   O11   S    
C44   C46   A    
C57   H37   S    
C21   C32   A    
C55   O3    S    
C14   O4    S    
C48   H27   S    
C13   C19   S    
C17   O9    A    
C51   C52   A    
Cu1   O8    S    
C1    O6    A    
C39   H15   S    
C10   C14   A    
C9    H23   S    
C39   C40   S    
C50   H28   S    
C46   H25   S    
C53   H31   S    
C3    C64   A    
C59   H41   S    
Cu2   O6    S    
C5    C64   S    
C60   C61   S    
C58   H40   S    
C2    C4    A    
C43   C44   A    
C37   C38   S    
C57   H36   S    
C20   H45   S    
C9    C11   A    
C47   C48   A    
C8    C12   S    
C50   C51   A    
C42   C48   A    
C10   H34   S    
C16   O8    A    
C36   H8    S    
C40   C41   S    
C37   H10   S    
C20   C22   A    
Cu1   Cu2   S    
Cu2   N1    S    
C55   C57   S    
C61   H47   S    
C58   H38   S    
C42   C43   A    
C35   C45   A    
C18   N2    T    
C44   H24   S    
C2    C63   A    
C59   O4    S    
C46   C47   A    
C1    C7    S    
C39   H16   S    
C10   C13   A    
C5    C8    T    
C6    C7    T    
C12   O5    A    
C38   H11   S    
C3    C63   A    
C25   C27   A    
C41   H19   S    
C29   H52   S    
C55   H35   S    
C26   C28   A    
C59   H42   S    
Cu2   O5    S    
C58   H39   S    
C13   C15   A    
C9    C15   A    
C29   C31   A    
C30   C32   A    
C57   C58   S    
C4    C42   S    
C28   C30   A    
Cu1   N2    S    
C62   H5    S    
C52   H30   S    
C1    O1    A    
C60   H44   S    
C36   H7    S    
C32   H12   S    
C63   H6    S    
C38   H14   S    
C49   C50   A    
C21   C24   A    
C55   H33   S    
C61   H48   S    
C54   H32   S    
C61   H46   S    
C30   H2    S    
C51   H29   S    
Cu2   O10   S    
C20   C31   A    
