data_mof_unit_20644.cif
_audit_creation_date              2012-10-26T19:42:15-0400
_audit_creation_method            fapswitch 2.2
_symmetry_space_group_name_H-M    P1
_symmetry_Int_Tables_number       1
_space_group_crystal_system       triclinic
_cell_length_a                    9.613138
_cell_length_b                    10.868122
_cell_length_c                    17.298103
_cell_angle_alpha                 94.635965
_cell_angle_beta                  85.677933
_cell_angle_gamma                 91.365825
_cell_volume                      1795.92801695

loop_
_atom_site_label
_atom_site_type_symbol
_atom_type_description
_atom_site_fract_x
_atom_site_fract_y
_atom_site_fract_z
_atom_type_partial_charge
C1    C     C_R   0.502210 0.736418 0.494170 0.613391
C2    C     C_R   0.529430 0.491345 0.264996 -0.024484
C3    C     C_R   0.285492 0.866874 0.417345 0.284874
C4    C     C_R   0.481237 0.500777 0.650017 0.526340
C5    C     C_R   0.154504 0.920594 0.414955 -0.097158
C6    C     C_R   0.126839 0.034394 0.454733 -0.119669
C7    C     C_R   0.233440 0.101695 0.489744 -0.065703
C8    C     C_R   0.370366 0.055019 0.486378 -0.088768
C9    C     C_R   0.387811 0.928860 0.462375 -0.010546
C10   C     C_R   0.505686 0.869375 0.485754 -0.040471
C11   C     C_R   0.618603 0.940003 0.513005 0.364627
C12   C     C_R   0.350112 0.526417 0.782667 0.243664
C13   C     C_R   0.613417 0.067260 0.519743 0.374393
C14   C     C_R   0.490600 0.127175 0.506225 -0.065689
C15   C     C_R   0.858861 0.343909 0.391382 -0.076796
C16   C     C_R   0.497064 0.262323 0.503608 0.583302
C17   C     C_R   0.927736 0.274715 0.331419 -0.206203
C18   C     C_R   0.069485 0.272501 0.326622 -0.146453
C19   C     C_R   0.146352 0.336598 0.383501 0.259795
C20   C     C_R   0.078642 0.421018 0.444112 0.168963
C21   C     C_R   0.928393 0.422503 0.445718 0.127776
C22   C     C_R   0.921526 0.574082 0.551270 0.031825
C23   C     C_R   0.419647 0.499590 0.144680 -0.140440
C24   C     C_R   0.069085 0.573937 0.551361 0.011470
C25   C     C_R   0.518692 0.498740 0.350031 0.571194
C26   C     C_R   0.470317 0.489746 0.734220 0.010289
C27   C     C_R   0.579387 0.431984 0.766127 -0.145722
C28   C     C_R   0.570054 0.409887 0.844160 -0.118646
C29   C     C_R   0.450738 0.444002 0.891604 -0.009380
C30   C     C_R   0.340010 0.499010 0.860322 -0.038002
C31   C     C_R   0.411328 0.510014 0.225235 -0.125615
C32   C     C_R   0.656203 0.461294 0.223043 -0.072126
C33   C     C_R   0.665205 0.446244 0.142000 0.258308
C34   C     C_R   0.545322 0.466470 0.101972 0.033849
C35   C     C_2   0.443825 0.430517 0.975240 -0.140423
C36   C     C_2   0.553154 0.463525 0.016526 -0.137334
Cu1   Cu    Cu3+1 0.359340 0.500010 0.500010 1.019441
Cu2   Cu    Cu3+1 0.640660 0.499990 0.499990 1.016206
F1    F     F_    0.734632 0.886448 0.534331 -0.593701
F2    F     F_    0.727677 0.131405 0.543549 -0.589601
H1    H     H_    0.671560 0.401711 0.730392 0.164804
H2    H     H_    0.120070 0.634808 0.593508 0.134557
H3    H     H_    0.748231 0.445848 0.253126 0.150480
H4    H     H_    0.649720 0.494599 0.986845 0.139783
H5    H     H_    0.248601 0.527217 0.897489 0.141570
H6    H     H_    0.327695 0.520506 0.116114 0.125407
H7    H     H_    0.344759 0.402651 0.003551 0.130486
H8    H     H_    0.655674 0.365337 0.867387 0.131191
H9    H     H_    0.778092 0.375339 0.051682 0.323933
H10   H     H_    0.236077 0.729240 0.344613 0.311756
H11   H     H_    0.311748 0.247694 0.335678 0.300738
H12   H     H_    0.073296 0.873504 0.383229 0.118253
H13   H     H_    0.282128 0.643822 0.716722 0.330440
H14   H     H_    0.023538 0.072603 0.456360 0.183905
H15   H     H_    0.203776 0.187282 0.521790 0.180488
H16   H     H_    0.862537 0.635119 0.593398 0.156863
H17   H     H_    0.749808 0.331247 0.391404 0.192059
H18   H     H_    0.870048 0.218998 0.289464 0.139113
H19   H     H_    0.312478 0.534205 0.256308 0.152071
H20   H     H_    0.120045 0.212914 0.280122 0.120037
N1    N     N_R   0.852190 0.498790 0.499250 -0.246560
N2    N     N_R   0.148060 0.498710 0.499220 -0.238815
O1    O     O_R   0.381190 0.680360 0.500010 -0.482693
O2    O     O_3   0.318697 0.759507 0.372066 -0.685652
O3    O     O_3   0.283907 0.306797 0.380663 -0.657760
O4    O     O_3   0.242926 0.591483 0.757588 -0.692725
O5    O     O_R   0.618760 0.680340 0.500000 -0.443489
O6    O     O_R   0.367440 0.500030 0.613600 -0.504401
O7    O     O_R   0.605010 0.500010 0.613590 -0.507827
O8    O     O_R   0.381240 0.319660 0.500000 -0.464032
O9    O     O_R   0.618810 0.319640 0.499990 -0.465918
O10   O     O_R   0.394990 0.499990 0.386410 -0.422465
O11   O     O_R   0.632560 0.499970 0.386400 -0.553919
O12   O     O_3   0.791985 0.410584 0.105109 -0.708457

loop_
_geom_bond_atom_site_label_1
_geom_bond_atom_site_label_2
_ccdc_geom_bond_type
C24   H2    S    
C30   H5    S    
C35   C36   D    
C7    H15   S    
C35   H7    S    
Cu1   N2    S    
C7    C8    A    
C3    O2    S    
C26   C27   A    
C29   C30   A    
C28   C29   A    
C25   O11   A    
C5    C6    A    
Cu1   O6    S    
H10   O2    S    
C2    C32   A    
C18   C19   A    
H11   O3    S    
C31   H19   S    
C13   F2    S    
C19   C20   A    
C8    C9    A    
C8    C14   A    
C5    H12   S    
C14   C16   S    
C9    C10   A    
C21   N1    A    
C17   H18   S    
Cu2   N1    S    
Cu2   O7    S    
C23   H6    S    
Cu1   O8    S    
C15   H17   S    
C16   O9    A    
C6    H14   S    
C1    O1    A    
C4    O7    A    
Cu1   O1    S    
C17   C18   A    
C16   O8    A    
C4    O6    A    
C22   H16   S    
C12   O4    S    
C12   C26   A    
C2    C31   A    
C23   C31   A    
Cu1   Cu2   S    
C3    C9    A    
C27   H1    S    
C23   C34   A    
C33   C34   A    
C25   O10   A    
C20   C21   A    
C11   F1    S    
H13   O4    S    
C18   H20   S    
C22   C24   A    
C36   H4    S    
C15   C17   A    
Cu2   O9    S    
C28   H8    S    
C24   N2    A    
C12   C30   A    
C1    C10   S    
C3    C5    A    
C4    C26   S    
C6    C7    A    
C29   C35   S    
C32   C33   A    
C22   N1    A    
C11   C13   A    
C1    O5    A    
C32   H3    S    
C19   O3    S    
C2    C25   S    
C34   C36   S    
C20   N2    A    
C10   C11   A    
C33   O12   S    
C15   C21   A    
Cu2   O5    S    
Cu1   O10   S    
C27   C28   A    
H9    O12   S    
C13   C14   A    
Cu2   O11   S    
