data_mof_unit_44855.cif
_audit_creation_date              2013-03-05T16:11:03-0500
_audit_creation_method            fapswitch 2.2
_symmetry_space_group_name_H-M    P1
_symmetry_Int_Tables_number       1
_space_group_crystal_system       triclinic
_cell_length_a                    10.725358
_cell_length_b                    9.496796
_cell_length_c                    10.620906
_cell_angle_alpha                 90.268465
_cell_angle_beta                  87.364052
_cell_angle_gamma                 90.031597
_cell_volume                      1080.65213159

loop_
_atom_site_label
_atom_site_type_symbol
_atom_site_description
_atom_site_fract_x
_atom_site_fract_y
_atom_site_fract_z
_atom_type_partial_charge
O1    O     O_R   0.317570 0.620260 0.500070 -0.594137
O2    O     O_R   0.317570 0.379740 0.500070 -0.592565
C1    C     C_R   0.259890 0.499778 0.500751 0.758322
O3    O     O_R   0.499850 0.620240 0.316900 -0.587407
O4    O     O_R   0.499850 0.379760 0.316900 -0.592000
C2    C     C_R   0.500139 0.499629 0.259635 0.779485
Cu1   Cu    Cu3+1 0.499860 0.642410 0.500060 0.887424
Cu2   Cu    Cu3+1 0.499860 0.357590 0.500060 0.887817
O5    O     O_R   0.682190 0.620260 0.500030 -0.599625
O6    O     O_R   0.682190 0.379740 0.500030 -0.602026
O7    O     O_R   0.499910 0.620280 0.683200 -0.594082
O8    O     O_R   0.499910 0.379720 0.683200 -0.585745
C3    C     C_R   0.739867 0.499826 0.500107 0.737485
C4    C     C_R   0.499628 0.500386 0.740502 0.801720
C5    C     C_3   0.397822 0.568175 0.048037 -0.175022
C6    C     C_3   0.498465 0.365499 0.040543 -0.146504
C7    C     C_3   0.397756 0.435887 0.963721 0.234495
H1    H     H_    0.314187 0.622852 0.089868 0.115999
H2    H     H_    0.496165 0.255381 0.075147 0.122582
C8    C     C_3   0.499591 0.501202 0.877494 0.013351
C9    C     C_3   0.501172 0.634264 0.960348 -0.180965
C10   C     C_3   0.601591 0.432066 0.952896 -0.215490
C11   C     C_3   0.603273 0.565052 0.037745 -0.174484
C12   C     C_3   0.500027 0.498835 0.122869 -0.006232
H3    H     H_    0.502553 0.744236 0.925257 0.127594
H4    H     H_    0.684935 0.376891 0.911053 0.122587
H5    H     H_    0.687799 0.618068 0.071669 0.120814
C13   C     C_3   0.066399 0.583535 0.615605 -0.384468
C14   C     C_3   0.070819 0.345938 0.508782 -0.379414
H6    H     H_    0.100426 0.694301 0.612120 0.160594
H7    H     H_    0.108895 0.282338 0.427431 0.157051
H8    H     H_    0.097324 0.536731 0.704730 0.143532
H9    H     H_    0.100568 0.294664 0.596628 0.160715
C15   C     C_3   0.922472 0.582755 0.615913 -0.375551
C16   C     C_3   0.928155 0.345950 0.507811 -0.378113
H10   H     H_    0.883834 0.534409 0.704721 0.144017
H11   H     H_    0.889338 0.293553 0.594680 0.156787
H12   H     H_    0.887926 0.693216 0.613620 0.160034
H13   H     H_    0.898652 0.283344 0.425439 0.161684
H14   H     H_    0.113312 0.676673 0.369288 0.156022
H15   H     H_    0.115847 0.506757 0.294530 0.145588
H16   H     H_    0.900903 0.678629 0.371539 0.160795
H17   H     H_    0.902058 0.510090 0.294164 0.140966
C17   C     C_3   0.077753 0.566802 0.377997 -0.378877
C18   C     C_3   0.121801 0.499043 0.500836 0.173903
C19   C     C_3   0.877968 0.499140 0.500502 0.182349
C20   C     C_3   0.933789 0.567959 0.378318 -0.397306
C21   C     C_3   0.622269 0.084104 0.449452 0.187567
C22   C     C_3   0.622193 0.915488 0.449207 0.190426
H18   H     H_    0.696706 0.116617 0.513365 0.098037
H19   H     H_    0.696868 0.883411 0.512739 0.098900
H20   H     H_    0.556569 0.122176 0.692749 0.145458
H21   H     H_    0.557345 0.879950 0.692348 0.141090
C23   C     C_3   0.481759 0.083936 0.631983 -0.264510
C24   C     C_3   0.482075 0.917186 0.632015 -0.270795
C25   C     C_3   0.398608 0.082655 0.428329 -0.194836
C26   C     C_3   0.398393 0.916485 0.428598 -0.194480
N1    N     N_3   0.500250 0.143650 0.502780 -0.121812
N2    N     N_3   0.500250 0.856350 0.502780 -0.121246
H22   H     H_    0.306561 0.119690 0.467813 0.137482
H23   H     H_    0.306370 0.880099 0.468536 0.137354
H24   H     H_    0.405133 0.121700 0.329987 0.146649
H25   H     H_    0.404348 0.876098 0.330367 0.148715
H26   H     H_    0.392066 0.122661 0.676093 0.156833
H27   H     H_    0.392780 0.878206 0.676652 0.157786
C27   C     C_3   0.280924 0.362724 0.920695 -0.946086
H28   H     H_    0.307340 0.269911 0.861552 0.233716
H29   H     H_    0.223264 0.327585 0.004147 0.229891
H30   H     H_    0.226061 0.436910 0.864985 0.222120
C28   C     C_3   0.665835 0.146774 0.319024 -0.792412
H31   H     H_    0.601614 0.119717 0.243836 0.212086
H32   H     H_    0.681613 0.260144 0.317609 0.263211
H33   H     H_    0.760968 0.109882 0.291130 0.170176
C29   C     C_3   0.665276 0.851722 0.318506 -0.793421
H34   H     H_    0.600117 0.876481 0.243689 0.218711
H35   H     H_    0.759830 0.889326 0.289526 0.169637
H36   H     H_    0.682216 0.738576 0.317617 0.260054

loop_
_geom_bond_atom_site_label_1
_geom_bond_atom_site_label_2
_geom_bond_distance
_ccdc_geom_bond_type
C5    H1    1.110556 S    
C27   H29   1.109741 S    
C24   N2    1.491271 S    
Cu1   Cu2   2.704876 S    
Cu1   O7    1.957438 S    
C7    C27   1.520034 S    
C29   H35   1.105726 S    
C16   H11   1.113965 S    
C3    C19   1.481400 S    
O7    C4    1.293509 A    
C26   N2    1.491450 S    
C27   H30   1.108643 S    
C14   H9    1.114105 S    
C7    C8    1.526104 S    
C25   C26   1.578096 S    
Cu1   O5    1.966936 S    
O5    C3    1.300628 A    
Cu2   N1    2.032095 S    
C19   C20   1.551023 S    
C6    C7    1.538254 S    
C22   H19   1.114216 S    
C29   H36   1.089800 S    
C11   C12   1.533471 S    
C28   H31   1.107540 S    
C15   C19   1.550863 S    
C11   H5    1.110415 S    
C17   C20   1.543956 S    
C21   H18   1.114054 S    
C27   H28   1.109271 S    
C13   C15   1.543536 S    
C6    C12   1.535972 S    
C15   H12   1.113479 S    
O3    Cu1   1.955709 S    
Cu1   N2    2.031819 S    
C24   H27   1.112879 S    
H20   C23   1.112354 S    
C26   H25   1.108969 S    
H21   C24   1.112386 S    
C13   C18   1.551612 S    
C29   H34   1.108203 S    
C4    C8    1.454939 S    
C13   H8    1.112029 S    
O3    C2    1.294298 A    
C21   C28   1.561859 S    
C1    C18   1.481027 S    
C25   H22   1.111357 S    
C14   C18   1.554439 S    
O1    C1    1.300323 A    
C16   H13   1.113280 S    
H14   C17   1.113535 S    
Cu2   O8    1.955480 S    
C2    C12   1.452617 S    
C28   H33   1.105994 S    
C22   C29   1.562262 S    
C26   H23   1.111738 S    
C21   C22   1.601304 S    
C8    C10   1.534779 S    
C9    C11   1.547765 S    
H15   C17   1.113629 S    
C25   H24   1.109147 S    
C17   C18   1.550577 S    
C23   N1    1.492021 S    
C5    C7    1.539408 S    
C9    H3    1.110394 S    
C23   C24   1.583604 S    
C5    C12   1.533874 S    
C6    C10   1.549061 S    
O1    Cu1   1.966288 S    
O2    Cu2   1.966518 S    
O8    C4    1.294943 A    
O6    C3    1.297123 A    
O4    Cu2   1.957671 S    
C21   N1    1.510929 S    
C14   C16   1.530624 S    
C22   N2    1.511119 S    
C13   H6    1.113462 S    
O2    C1    1.297151 A    
C14   H7    1.114024 S    
O4    C2    1.293105 A    
C23   H26   1.112422 S    
C6    H2    1.109979 S    
C25   N1    1.491148 S    
C15   H10   1.113593 S    
H16   C20   1.112509 S    
C5    C9    1.549123 S    
C8    C9    1.537017 S    
Cu2   O6    1.966706 S    
C10   H4    1.110369 S    
C10   C11   1.548637 S    
C28   H32   1.089840 S    
C16   C19   1.555000 S    
H17   C20   1.113498 S    
