data_mof_unit_34676.cif
_audit_creation_date              2012-12-11T15:54:37-0500
_audit_creation_method            fapswitch 2.2
_symmetry_space_group_name_H-M    P1
_symmetry_Int_Tables_number       1
_space_group_crystal_system       triclinic
_cell_length_a                    6.928777
_cell_length_b                    14.527308
_cell_length_c                    16.099395
_cell_angle_alpha                 89.990331
_cell_angle_beta                  90.167072
_cell_angle_gamma                 89.861421
_cell_volume                      1620.4967369

loop_
_atom_site_label
_atom_site_type_symbol
_atom_type_description
_atom_site_fract_x
_atom_site_fract_y
_atom_site_fract_z
_atom_type_partial_charge
O1    O     O_R   0.638180 0.333920 0.163320 -0.535969
O2    O     O_R   0.361820 0.666080 0.836680 -0.535969
O3    O     O_R   0.308470 0.344960 0.336080 -0.539854
O4    O     O_R   0.691530 0.655040 0.663920 -0.539855
O5    O     O_R   0.138140 0.166110 0.336680 -0.541048
O6    O     O_R   0.861860 0.833890 0.663320 -0.541048
C1    C     C_R   0.477549 0.367134 0.365107 0.693703
C2    C     C_R   0.522451 0.632866 0.634893 0.693703
O7    O     O_R   0.308460 0.344950 0.163930 -0.512456
O8    O     O_R   0.691540 0.655050 0.836070 -0.512456
O9    O     O_R   0.138140 0.166100 0.163310 -0.545534
O10   O     O_R   0.861860 0.833900 0.836690 -0.545534
C3    C     C_R   0.476806 0.368575 0.136130 0.759248
C4    C     C_R   0.523194 0.631425 0.863870 0.759248
O11   O     O_R   0.638180 0.333930 0.336700 -0.545144
O12   O     O_R   0.361820 0.666070 0.663300 -0.545144
O13   O     O_3   0.471670 0.191340 0.250000 -0.378820
O14   O     O_3   0.528330 0.808660 0.750000 -0.378820
V1    V     V_3+5 0.196830 0.260900 0.250000 1.481223
V2    V     V_3+5 0.803170 0.739100 0.750000 1.481223
O15   O     O_R   0.808420 0.155070 0.163920 -0.547570
O16   O     O_R   0.191580 0.844930 0.836080 -0.547570
C5    C     C_R   0.977457 0.132732 0.135034 0.676615
C6    C     C_R   0.022543 0.867268 0.864966 0.676616
O17   O     O_R   0.808420 0.155080 0.336070 -0.541483
O18   O     O_R   0.191580 0.844920 0.663930 -0.541483
C7    C     C_R   0.977562 0.133082 0.364642 0.684269
C8    C     C_R   0.022438 0.866918 0.635358 0.684269
V3    V     V_3+5 0.696830 0.239130 0.250000 1.442658
V4    V     V_3+5 0.303170 0.760870 0.750000 1.442657
O19   O     O_3   0.971850 0.308690 0.250010 -0.348171
O20   O     O_3   0.028150 0.691310 0.749990 -0.348171
H1    H     H_    0.280055 0.846924 0.267274 0.126509
H2    H     H_    0.719945 0.153076 0.732726 0.126509
C9    C     C_R   0.831766 0.175139 0.528809 -0.147953
C10   C     C_R   0.168234 0.824861 0.471191 -0.147953
C11   C     C_R   0.761453 0.197896 0.607134 -0.110950
C12   C     C_R   0.238547 0.802104 0.392865 -0.110950
C13   C     C_R   0.773388 0.134785 0.671802 -0.106929
C14   C     C_R   0.226612 0.865215 0.328198 -0.106929
C15   C     C_R   0.855549 0.048399 0.658645 -0.137255
C16   C     C_R   0.144451 0.951601 0.341355 -0.137255
C17   C     C_R   0.926362 0.022793 0.579532 0.068563
C18   C     C_R   0.073638 0.977207 0.420468 0.068563
C19   C     C_R   0.914361 0.087567 0.513177 0.069089
C20   C     C_R   0.085639 0.912433 0.486823 0.069089
C21   C     C_R   0.011902 0.935151 0.566416 -0.181281
C22   C     C_R   0.988098 0.064849 0.433584 -0.181281
H3    H     H_    0.821853 0.227390 0.481128 0.106227
H4    H     H_    0.178147 0.772609 0.518872 0.106227
H5    H     H_    0.698654 0.265178 0.617814 0.130849
H6    H     H_    0.301346 0.734822 0.382186 0.130849
H7    H     H_    0.864301 0.002532 0.711450 0.104386
H8    H     H_    0.135699 0.997468 0.288550 0.104386
C23   C     C_R   0.179698 0.973515 0.968591 -0.148836
C24   C     C_R   0.820302 0.026485 0.031409 -0.148836
H9    H     H_    0.320634 0.954069 0.945544 0.114682
H10   H     H_    0.679366 0.045931 0.054456 0.114682
C25   C     C_R   0.168507 0.036964 0.033900 -0.147377
C26   C     C_R   0.831493 0.963036 0.966100 -0.147377
H11   H     H_    0.301405 0.064612 0.058978 0.116498
H12   H     H_    0.698595 0.935388 0.941022 0.116498
C27   C     C_R   0.988648 0.064355 0.066238 -0.044295
C28   C     C_R   0.011352 0.935645 0.933762 -0.044295
C29   C     C_R   0.321290 0.478382 0.464528 -0.143895
C30   C     C_R   0.678709 0.521618 0.535471 -0.143895
H13   H     H_    0.181149 0.462947 0.438127 0.123384
H14   H     H_    0.818851 0.537053 0.561873 0.123384
C31   C     C_R   0.332399 0.542138 0.529593 -0.153308
C32   C     C_R   0.667601 0.457862 0.470407 -0.153308
H15   H     H_    0.200309 0.574046 0.551132 0.118493
H16   H     H_    0.799691 0.425954 0.448868 0.118493
C33   C     C_R   0.511247 0.564589 0.566035 -0.044857
C34   C     C_R   0.488753 0.435410 0.433964 -0.044857
C35   C     C_R   0.339786 0.503644 0.053337 0.289791
C36   C     C_R   0.660213 0.496356 0.946663 0.289790
C37   C     C_R   0.354904 0.564867 0.986504 -0.171197
C38   C     C_R   0.645096 0.435133 0.013496 -0.171197
H17   H     H_    0.242171 0.615789 0.977726 0.173632
H18   H     H_    0.757830 0.384211 0.022274 0.173632
C39   C     C_R   0.513992 0.562850 0.932543 -0.159101
C40   C     C_R   0.486008 0.437150 0.067457 -0.159101
Br1   Br    Br    0.120265 0.519573 0.124738 -0.546537
Br2   Br    Br    0.879736 0.480427 0.875263 -0.546537

loop_
_geom_bond_atom_site_label_1
_geom_bond_atom_site_label_2
_ccdc_geom_bond_type
C7    C22   S    
C30   H14   S    
C8    C21   S    
C23   C25   A    
O13   V3    S    
O4    C2    A    
V1    O19   S    
C36   Br2   S    
C13   C15   A    
O9    V1    S    
C9    C11   A    
C36   C38   A    
O3    C1    A    
C11   H5    S    
C38   H18   S    
C12   H6    S    
O12   V4    S    
C26   H12   S    
O9    C5    A    
C31   H15   S    
O7    C3    A    
O5    C7    A    
O7    V1    S    
O6    C8    A    
O8    V2    S    
C29   H13   S    
C9    H3    S    
O3    V1    S    
O14   V4    S    
V4    O20   S    
C14   C16   A    
C2    O12   A    
C15   C17   A    
C16   C18   A    
C18   C20   A    
O11   V3    S    
C1    C34   S    
C37   H17   S    
O17   V3    S    
C11   C13   A    
C25   H11   S    
H1    C14   S    
H2    C13   S    
O8    C4    A    
C1    O11   A    
C30   C33   A    
O15   V3    S    
C3    C40   S    
C29   C34   A    
C24   C26   A    
C32   C34   A    
C35   C37   A    
C38   C40   A    
C37   C39   A    
C23   C28   A    
O10   V2    S    
O1    V3    S    
C24   C27   A    
C31   C33   A    
C17   C19   A    
C15   H7    S    
O18   V4    S    
C23   H9    S    
O16   C6    A    
O1    C3    A    
C10   C12   A    
C9    C19   A    
C10   H4    S    
V2    O20   S    
C19   C22   A    
C20   C21   A    
O16   V4    S    
O18   C8    A    
C36   C39   A    
C35   C40   A    
O5    V1    S    
O17   C7    A    
O6    V2    S    
O10   C6    A    
C25   C27   A    
O2    V4    S    
C26   C28   A    
O15   C5    A    
V3    O19   S    
C16   H8    S    
C12   C14   A    
C10   C20   A    
C35   Br1   S    
C30   C32   A    
C29   C31   A    
C5    C27   S    
C2    C33   S    
O13   V1    S    
C24   H10   S    
O14   V2    S    
O2    C4    A    
O4    V2    S    
C6    C28   S    
C32   H16   S    
C4    C39   S    
C17   C21   A    
C18   C22   A    
