data_mof_unit_39747.cif
_audit_creation_date              2012-12-11T15:39:04-0500
_audit_creation_method            fapswitch 2.2
_symmetry_space_group_name_H-M    P1
_symmetry_Int_Tables_number       1
_space_group_crystal_system       triclinic
_cell_length_a                    14.347472
_cell_length_b                    14.78661
_cell_length_c                    33.158805
_cell_angle_alpha                 97.438267
_cell_angle_beta                  90.320919
_cell_angle_gamma                 118.970042
_cell_volume                      6083.69565742

loop_
_atom_site_label
_atom_site_type_symbol
_atom_type_description
_atom_site_fract_x
_atom_site_fract_y
_atom_site_fract_z
_atom_type_partial_charge
C1    C     C_R   0.617588 0.909765 0.437130 0.524865
C2    C     C_R   0.742615 0.424604 0.188161 0.030574
C3    C     C_R   0.757328 0.865228 0.638125 -0.114988
C4    C     C_R   0.672685 0.780110 0.652770 0.012147
C5    C     C_R   0.636797 0.857837 0.584457 0.017531
C6    C     C_R   0.052136 0.781263 0.063770 0.544818
C7    C     C_R   0.743914 0.486880 0.066305 0.546232
C8    C     C_R   0.742468 0.789207 0.066255 0.553783
C9    C     C_R   0.020676 0.731623 0.947089 0.532940
C10   C     C_R   0.712465 0.438281 0.949111 0.532855
C11   C     C_R   0.743595 0.716713 0.945840 0.566726
C12   C     C_R   0.828187 0.436372 0.164998 -0.118568
C13   C     C_R   0.825904 0.449631 0.124162 -0.125268
C14   C     C_R   0.776524 0.352090 0.246810 -0.115286
C15   C     C_R   0.770497 0.340846 0.287941 -0.109299
C16   C     C_R   0.737698 0.399448 0.314972 0.013194
C17   C     C_R   0.714653 0.472101 0.300615 -0.116742
C18   C     C_R   0.719741 0.482644 0.259440 -0.109783
C19   C     C_R   0.748157 0.420837 0.232133 0.029892
C20   C     C_R   0.609186 0.345022 0.367770 -0.149761
C21   C     C_R   0.594148 0.205709 0.456617 0.543903
C22   C     C_R   0.572477 0.296085 0.401919 -0.140587
C23   C     C_R   0.744758 0.308798 0.415666 -0.060795
C24   C     C_R   0.783369 0.359967 0.381945 0.244222
C25   C     C_R   0.712777 0.373241 0.356371 0.016011
C26   C     C_R   0.638436 0.273529 0.425098 -0.029018
C27   C     C_R   0.244470 0.878209 0.393488 0.015832
C28   C     C_R   0.233314 0.959962 0.380737 -0.126432
C29   C     C_R   0.209240 0.957523 0.339610 -0.112812
C30   C     C_R   0.195326 0.873186 0.310857 0.036204
C31   C     C_R   0.199195 0.788357 0.323570 -0.107798
C32   C     C_R   0.295530 0.892838 0.434429 0.544318
C33   C     C_R   0.223402 0.790619 0.364671 -0.115026
C34   C     C_R   0.195304 0.807292 0.163238 -0.111744
C35   C     C_R   0.167425 0.785919 0.121359 -0.124964
C36   C     C_R   0.090408 0.900799 0.129519 -0.128281
C37   C     C_R   0.117897 0.921616 0.171514 -0.113660
C38   C     C_R   0.166841 0.871827 0.188535 0.039417
C39   C     C_1   0.177565 0.877125 0.231958 -0.026441
C40   C     C_1   0.184823 0.876568 0.268085 -0.026267
C41   C     C_R   0.110447 0.828795 0.104353 0.020132
C42   C     C_R   0.639969 0.879577 0.395356 -0.020887
C43   C     C_R   0.613855 0.904572 0.551564 0.540831
C44   C     C_R   0.570489 0.782719 0.370533 0.005467
C45   C     C_R   0.579747 0.773138 0.328120 -0.080855
C46   C     C_R   0.658407 0.856201 0.310913 0.007413
C47   C     C_R   0.732783 0.946887 0.335724 -0.118878
C48   C     C_R   0.724087 0.958419 0.377490 -0.129720
C49   C     C_R   0.772532 0.919667 0.174125 -0.114905
C50   C     C_R   0.790083 0.906827 0.132937 -0.129003
C51   C     C_R   0.614793 0.752453 0.120300 -0.125560
C52   C     C_R   0.597412 0.765595 0.161417 -0.115039
C53   C     C_R   0.677798 0.846882 0.188534 0.039152
C54   C     C_R   0.589998 0.199934 0.570750 0.540745
C55   C     C_1   0.667785 0.849252 0.231476 -0.027773
C56   C     C_1   0.662121 0.850797 0.267627 -0.031078
C57   C     C_R   0.713161 0.820315 0.106047 0.021825
C58   C     C_R   0.625278 0.253800 0.613180 -0.015407
C59   C     C_R   0.559611 0.283303 0.635981 -0.112126
C60   C     C_R   0.579426 0.311323 0.678142 -0.090925
C61   C     C_R   0.665145 0.310694 0.698136 0.002348
C62   C     C_R   0.737302 0.289722 0.675453 0.028875
C63   C     C_R   0.716546 0.261692 0.632899 -0.094019
C64   C     C_R   0.765955 0.352413 0.844464 -0.116357
C65   C     C_R   0.288656 0.886477 0.548391 0.543866
C66   C     C_R   0.773772 0.374937 0.886928 -0.128459
C67   C     C_R   0.595679 0.355020 0.884276 -0.127468
C68   C     C_R   0.588111 0.332490 0.841823 -0.112740
C69   C     C_R   0.674706 0.334946 0.821891 0.043708
C70   C     C_1   0.672810 0.327088 0.778375 -0.034645
C71   C     C_1   0.670690 0.321264 0.741878 -0.052650
C72   C     C_R   0.690625 0.381310 0.907152 0.021669
C73   C     C_R   0.059307 0.748494 0.906475 0.023560
C74   C     C_R   0.094415 0.845745 0.893526 -0.141161
C75   C     C_R   0.105893 0.854680 0.852290 -0.126383
C76   C     C_R   0.737589 0.450496 0.105991 0.020259
C77   C     C_R   0.082088 0.766368 0.823546 0.032645
C78   C     C_R   0.052908 0.670584 0.836929 -0.116365
C79   C     C_R   0.042410 0.661909 0.878080 -0.118986
C80   C     C_R   0.126677 0.719889 0.754302 -0.109783
C81   C     C_R   0.131939 0.727510 0.712994 -0.105278
C82   C     C_R   0.095674 0.788339 0.696158 0.031858
C83   C     C_R   0.050997 0.838955 0.721107 -0.107933
C84   C     C_R   0.045986 0.831524 0.762582 -0.107652
C85   C     C_R   0.085037 0.772926 0.779595 0.031451
C86   C     C_R   0.168188 0.912977 0.646257 -0.118737
C87   C     C_R   0.649102 0.431449 0.128625 -0.123320
C88   C     C_R   0.217182 0.937493 0.610101 -0.126950
C89   C     C_R   0.158993 0.754036 0.587817 -0.124204
C90   C     C_R   0.109253 0.729473 0.623773 -0.119056
C91   C     C_R   0.118734 0.809432 0.654188 0.029547
C92   C     C_R   0.217777 0.858764 0.581692 0.021061
C93   C     C_R   0.728362 0.702995 0.900965 0.015753
C94   C     C_R   0.632404 0.629481 0.878067 -0.124531
C95   C     C_R   0.622592 0.627972 0.835684 -0.114832
C96   C     C_R   0.708899 0.699316 0.816191 0.030963
C97   C     C_R   0.806372 0.766114 0.838874 -0.110067
C98   C     C_R   0.651885 0.419136 0.169402 -0.119739
C99   C     C_R   0.815804 0.768122 0.880549 -0.119025
C100  C     C_R   0.733800 0.816941 0.765607 -0.136293
C101  C     C_R   0.728300 0.836063 0.726071 -0.149882
C102  C     C_R   0.686154 0.753849 0.693269 0.017901
C103  C     C_R   0.649778 0.649748 0.700955 0.254992
C104  C     C_R   0.654253 0.631473 0.741318 -0.044934
C105  C     C_R   0.697046 0.714867 0.773717 -0.019237
C106  C     C_R   0.571158 0.731263 0.631857 -0.122769
C107  C     C_R   0.553553 0.769167 0.597846 -0.127885
C108  C     C_R   0.739490 0.904061 0.604367 -0.114618
Cr1   Cr    Cr6+3 0.424820 0.846020 0.489780 1.028215
Cr2   Cr    Cr6+3 0.657880 0.078580 0.505700 1.025761
Cr3   Cr    Cr6+3 0.417280 0.075360 0.504550 1.019659
Cr4   Cr    Cr6+3 0.903360 0.812540 0.006510 1.004991
Cr5   Cr    Cr6+3 0.914630 0.587050 0.006280 1.005803
Cr6   Cr    Cr6+3 0.673560 0.582680 0.008540 1.010313
H1    H     H_    0.579704 0.431247 0.115493 0.130813
H2    H     H_    0.490325 0.270204 0.408625 0.143330
H3    H     H_    0.898665 0.440206 0.178987 0.107984
H4    H     H_    0.797729 0.294484 0.433954 0.151513
H5    H     H_    0.183900 0.730230 0.102751 0.125062
H6    H     H_    0.233464 0.768620 0.176161 0.110327
H7    H     H_    0.188119 0.722503 0.301475 0.120848
H8    H     H_    0.231675 0.726627 0.373417 0.159365
H9    H     H_    0.249186 0.028632 0.402106 0.129688
H10   H     H_    0.095512 0.971684 0.190903 0.109092
H11   H     H_    0.045744 0.934283 0.117406 0.125052
H12   H     H_    0.895331 0.464294 0.107489 0.127845
H13   H     H_    0.206006 0.023363 0.330046 0.113974
H14   H     H_    0.866750 0.959937 0.122883 0.121454
H15   H     H_    0.835112 0.982913 0.195064 0.107592
H16   H     H_    0.795083 0.010819 0.322577 0.121388
H17   H     H_    0.779843 0.032728 0.395357 0.148917
H18   H     H_    0.523750 0.709161 0.172393 0.108115
H19   H     H_    0.553966 0.685328 0.100223 0.122087
H20   H     H_    0.525244 0.701492 0.308351 0.153714
H21   H     H_    0.848041 0.394983 0.903568 0.123985
H22   H     H_    0.833157 0.353910 0.829188 0.102895
H23   H     H_    0.768413 0.240410 0.615407 0.175325
H24   H     H_    0.489186 0.278779 0.621628 0.142434
H25   H     H_    0.516935 0.318505 0.824481 0.106557
H26   H     H_    0.530377 0.359596 0.898813 0.126324
H27   H     H_    0.524403 0.328315 0.695437 0.133426
H28   H     H_    0.107725 0.913444 0.914975 0.115670
H29   H     H_    0.013687 0.585579 0.887171 0.125090
H30   H     H_    0.069513 0.648807 0.628994 0.118183
H31   H     H_    0.786412 0.282741 0.298285 0.138961
H32   H     H_    0.169391 0.689937 0.694642 0.112459
H33   H     H_    0.158716 0.675445 0.766702 0.107537
H34   H     H_    0.130776 0.929921 0.842766 0.104652
H35   H     H_    0.022332 0.886068 0.708703 0.103982
H36   H     H_    0.012573 0.872433 0.781313 0.094175
H37   H     H_    0.176988 0.976108 0.669337 0.107964
H38   H     H_    0.261358 0.018815 0.605883 0.129537
H39   H     H_    0.033115 0.601036 0.815394 0.104924
H40   H     H_    0.156376 0.691712 0.565858 0.133670
H41   H     H_    0.564484 0.576605 0.892958 0.123074
H42   H     H_    0.798110 0.303461 0.226138 0.107905
H43   H     H_    0.891380 0.823978 0.897177 0.136917
H44   H     H_    0.836339 0.904350 0.653926 0.113550
H45   H     H_    0.754605 0.915720 0.721239 0.126518
H46   H     H_    0.765843 0.882473 0.790180 0.120135
H47   H     H_    0.546636 0.575168 0.818602 0.105269
H48   H     H_    0.627288 0.552473 0.747210 0.129651
H49   H     H_    0.504239 0.667060 0.643060 0.137482
H50   H     H_    0.473354 0.731807 0.583221 0.134383
H51   H     H_    0.874424 0.820599 0.824596 0.104342
H52   H     H_    0.584059 0.407752 0.186622 0.109713
H53   H     H_    0.805258 0.971956 0.594610 0.140500
H54   H     H_    0.689083 0.517825 0.321008 0.116362
H55   H     H_    0.699121 0.537328 0.248686 0.112375
H56   H     H_    0.553831 0.354216 0.348616 0.127035
O1    O     O_R   0.318160 0.824460 0.443680 -0.505599
O2    O     O_R   0.645130 0.163230 0.552140 -0.500995
O3    O     O_R   0.498360 0.178430 0.555780 -0.515627
O4    O     O_R   0.328690 0.978040 0.538950 -0.501567
O5    O     O_3   0.499990 0.999990 0.500010 -0.237098
O6    O     O_R   0.828710 0.851830 0.052170 -0.514910
O7    O     O_R   0.005980 0.823990 0.047210 -0.500763
O8    O     O_R   0.031900 0.688850 0.050170 -0.514018
O9    O     O_R   0.830940 0.518420 0.048680 -0.497392
O10   O     O_R   0.668160 0.499860 0.053480 -0.516661
O11   O     O_R   0.689170 0.693840 0.050110 -0.495103
O12   O     O_R   0.525040 0.857250 0.449830 -0.507512
O13   O     O_R   0.803860 0.812940 0.962540 -0.512410
O14   O     O_R   0.982950 0.787950 0.964120 -0.525811
O15   O     O_R   0.007050 0.649970 0.960540 -0.516688
O16   O     O_R   0.807910 0.482370 0.965590 -0.504651
O17   O     O_R   0.643310 0.460980 0.963840 -0.526403
O18   O     O_R   0.666140 0.657800 0.967020 -0.498317
O19   O     O_3   0.830520 0.660760 0.007110 -0.261022
O20   O     O_R   0.684760 0.998800 0.456360 -0.513093
O21   O     O_R   0.647540 0.166310 0.470260 -0.502696
O22   O     O_R   0.500960 0.181750 0.467450 -0.512736
O23   O     O_R   0.331100 0.981120 0.457080 -0.502750
O24   O     O_R   0.315560 0.821140 0.532010 -0.517061
O25   O     O_R   0.522630 0.854180 0.531710 -0.504209
O26   O     O_R   0.682160 0.995480 0.544690 -0.510821
C109  C     C_2   0.489850 0.690904 0.387940 0.232174
H57   H     H_    0.496431 0.686494 0.420118 0.123441
O27   O     O_2   0.415932 0.617599 0.366285 -0.522285
O28   O     O_3   0.888797 0.392868 0.374591 -0.708348
H58   H     H_    0.910795 0.443457 0.355005 0.331564
C110  C     C_2   0.831413 0.292652 0.695884 0.217036
H59   H     H_    0.848663 0.314928 0.728668 0.108850
O29   O     O_2   0.891364 0.270571 0.676301 -0.522845
O30   O     O_3   0.611561 0.564668 0.670395 -0.720300
H60   H     H_    0.630981 0.589450 0.643772 0.330914

loop_
_geom_bond_atom_site_label_1
_geom_bond_atom_site_label_2
_ccdc_geom_bond_type
C8    O11   A    
Cr1   O12   S    
C65   C92   S    
C20   H56   S    
C21   C26   S    
C64   H22   S    
C101  C102  A    
C65   O4    A    
Cr3   O4    S    
C88   H38   S    
C73   C74   A    
C35   H5    S    
C95   C96   A    
C100  C105  A    
C55   C56   T    
C2    C12   A    
C23   H4    S    
C81   C82   A    
C89   H40   S    
C28   H9    S    
Cr4   O14   S    
O30   H60   S    
C27   C33   A    
C2    C98   A    
C12   C13   A    
C45   H20   S    
C37   C38   A    
C110  O29   D    
C83   C84   A    
Cr3   O5    S    
C54   O3    A    
C36   C37   A    
C67   C72   A    
C9    O15   A    
C86   C91   A    
C95   H47   S    
C104  H48   S    
C38   C39   S    
C60   H27   S    
C86   C88   A    
C21   O21   A    
C20   C25   A    
C15   C16   A    
Cr2   O21   S    
C16   C25   S    
Cr6   O18   S    
C32   O1    A    
C43   O25   A    
C34   C35   A    
C23   C26   A    
C109  O27   D    
C62   C110  S    
Cr4   O19   S    
C68   C69   A    
C80   H33   S    
C79   H29   S    
C88   C92   A    
O28   H58   S    
C6    C41   S    
C4    C102  S    
C3    H44   S    
C23   C24   A    
C31   C33   A    
C48   H17   S    
C70   C71   T    
C51   C57   A    
C29   C30   A    
C93   C99   A    
C87   H1    S    
C61   C62   A    
C87   C98   A    
C14   H42   S    
C1    O20   A    
C11   C93   S    
C22   H2    S    
Cr5   O8    S    
C5    C43   S    
C77   C85   S    
C44   C109  S    
Cr6   O19   S    
Cr2   O5    S    
C6    O8    A    
C63   H23   S    
C36   C41   A    
C102  C103  A    
C42   C44   A    
C104  C105  A    
C97   C99   A    
C17   C18   A    
Cr4   O13   S    
C108  H53   S    
C53   C55   S    
C34   H6    S    
C66   C72   A    
C36   H11   S    
C74   C75   A    
C47   H16   S    
C7    O9    A    
C67   C68   A    
C52   H18   S    
C54   O2    A    
C94   H41   S    
C11   O13   A    
C24   C25   A    
C31   H7    S    
C110  H59   S    
C39   C40   T    
C15   H31   S    
C78   C79   A    
C16   C17   A    
C21   O22   A    
C59   H24   S    
C58   C59   A    
C77   C78   A    
C4    C106  A    
Cr2   O20   S    
C82   C91   S    
C11   O18   A    
C32   O23   A    
C43   O26   A    
C64   C66   A    
C80   C85   A    
C8    C57   S    
C37   H10   S    
C100  H46   S    
C47   C48   A    
C13   C76   A    
Cr5   O15   S    
C96   C97   A    
C62   C63   A    
C54   C58   S    
C10   O17   A    
C73   C79   A    
C30   C40   S    
Cr1   O24   S    
C93   C94   A    
C42   C48   A    
C64   C69   A    
C84   C85   A    
C89   C92   A    
Cr3   O3    S    
C67   H26   S    
C75   C77   A    
C76   C87   A    
C101  H45   S    
C98   H52   S    
Cr3   O23   S    
C27   C32   S    
C13   H12   S    
Cr4   O6    S    
C106  H49   S    
C20   C22   A    
C82   C83   A    
C94   C95   A    
Cr6   O10   S    
C99   H43   S    
C6    O7    A    
Cr2   O26   S    
C33   H8    S    
C3    C108  A    
C49   C50   A    
C10   C72   S    
C50   H14   S    
C3    C4    A    
C103  C104  A    
C52   C53   A    
C96   C105  S    
C65   O24   A    
C5    C107  A    
C18   H55   S    
Cr3   O22   S    
C58   C63   A    
C46   C47   A    
C28   C29   A    
Cr5   O9    S    
C2    C19   S    
C34   C38   A    
C50   C57   A    
C14   C19   A    
C9    C73   S    
C44   C45   A    
C103  O30   S    
C80   C81   A    
C17   H54   S    
C1    O12   A    
C8    O6    A    
C78   H39   S    
C7    C76   S    
C75   H34   S    
Cr6   O11   S    
Cr5   O19   S    
C29   H13   S    
C106  C107  A    
C51   C52   A    
Cr1   O5    S    
C9    O14   A    
C86   H37   S    
C51   H19   S    
C61   C71   S    
C90   C91   A    
C30   C31   A    
C49   H15   S    
C97   H51   S    
Cr5   O16   S    
C100  C101  A    
C10   O16   A    
C7    O10   A    
Cr1   O25   S    
C74   H28   S    
C109  H57   S    
C35   C41   A    
C69   C70   S    
C49   C53   A    
Cr6   O17   S    
C66   H21   S    
C45   C46   A    
C1    C42   S    
C59   C60   A    
C107  H50   S    
C24   O28   S    
C81   H32   S    
C22   C26   A    
C46   C56   S    
C27   C28   A    
C18   C19   A    
C14   C15   A    
C60   C61   A    
C68   H25   S    
C12   H3    S    
C89   C90   A    
C90   H30   S    
Cr1   O1    S    
Cr2   O2    S    
Cr4   O7    S    
C83   H35   S    
C5    C108  A    
C84   H36   S    
