data_mof_unit_15376.cif
_audit_creation_date              2012-12-11T15:37:28-0500
_audit_creation_method            fapswitch 2.2
_symmetry_space_group_name_H-M    P1
_symmetry_Int_Tables_number       1
_space_group_crystal_system       triclinic
_cell_length_a                    17.376288
_cell_length_b                    24.20006
_cell_length_c                    14.862095
_cell_angle_alpha                 90.206917
_cell_angle_beta                  125.526176
_cell_angle_gamma                 90.427661
_cell_volume                      5085.86828811

loop_
_atom_site_label
_atom_site_type_symbol
_atom_type_description
_atom_site_fract_x
_atom_site_fract_y
_atom_site_fract_z
_atom_type_partial_charge
C1    C     C_R   0.840018 0.648773 0.913527 -0.106320
C2    C     C_3   0.575282 0.500051 0.620005 0.178600
C3    C     C_3   0.038308 0.028968 0.512746 -0.159619
C4    C     C_2   0.602213 0.361319 0.805371 0.492127
C5    C     C_2   0.179783 0.768780 0.193255 0.509915
C6    C     C_2   0.397825 0.359704 0.203396 0.505213
C7    C     C_2   0.663896 0.711761 0.826434 0.540304
C8    C     C_2   0.106216 0.861893 0.814527 0.504002
C9    C     C_2   0.667984 0.267999 0.174735 0.514869
C10   C     C_2   0.899892 0.861216 0.187177 0.518319
C11   C     C_2   0.343075 0.269912 0.838700 0.515489
C12   C     C_2   0.996217 0.767611 0.803975 0.507731
C13   C     C_3   0.899913 0.002857 0.458075 0.150866
C14   C     C_2   0.801330 0.355645 0.202729 0.446757
C15   C     C_2   0.938113 0.742650 0.220468 0.464586
C16   C     C_2   0.199607 0.349072 0.805125 0.408717
C17   C     C_2   0.570964 0.239806 0.786383 0.432423
C18   C     C_2   0.315587 0.849493 0.210594 0.432631
C19   C     C_2   0.438046 0.240456 0.223101 0.442590
C20   C     C_2   0.696731 0.835588 0.797011 0.645050
C21   C     C_3   0.075374 0.999776 0.621549 0.181828
C22   C     C_R   0.651182 0.323036 0.900868 -0.091772
C23   C     C_R   0.191334 0.775700 0.102260 -0.110835
C24   C     C_R   0.349118 0.320511 0.107863 -0.106238
C25   C     C_R   0.742802 0.748896 0.910914 -0.039043
C26   C     C_R   0.148506 0.822159 0.907315 -0.124476
C27   C     C_R   0.687754 0.276483 0.090825 -0.073640
C28   C     C_R   0.844473 0.819811 0.096073 -0.085692
C29   C     C_R   0.188837 0.372897 0.093117 -0.055820
C30   C     C_R   0.318624 0.275401 0.919211 -0.076320
C31   C     C_R   0.094276 0.777224 0.903117 -0.172969
C32   C     C_R   0.742707 0.322397 0.099585 -0.133780
C33   C     C_R   0.871089 0.763945 0.107490 -0.026107
C34   C     C_R   0.260257 0.318661 0.909346 -0.108932
C35   C     C_R   0.618195 0.269226 0.893653 -0.072172
C36   C     C_R   0.250831 0.817496 0.107216 -0.112684
C37   C     C_R   0.385781 0.268204 0.114977 -0.080844
C38   C     C_R   0.731438 0.805934 0.900766 -0.081284
C39   C     C_R   0.129867 0.747246 0.000974 0.150544
C40   C     C_R   0.149615 0.653214 0.091680 -0.078848
C41   C     C_R   0.732735 0.339931 0.003008 0.025801
C42   C     C_R   0.820569 0.727935 0.012701 -0.077593
C43   C     C_R   0.267701 0.335880 0.004873 0.026900
C44   C     C_R   0.642044 0.243394 0.992825 0.089620
C45   C     C_R   0.238270 0.833081 0.007582 0.047161
C46   C     C_R   0.363559 0.242647 0.015844 0.095158
C47   C     C_R   0.762041 0.836243 0.995733 -0.017865
C48   C     C_R   0.082674 0.450744 0.604450 -0.158516
C49   C     C_R   0.116443 0.550344 0.539265 -0.163229
C50   C     C_R   0.106257 0.450405 0.531018 -0.132297
C51   C     C_R   0.812290 0.370848 0.910831 -0.058311
C52   C     C_R   0.096981 0.550562 0.617228 -0.152394
C53   C     C_R   0.585485 0.950853 0.607255 -0.141764
C54   C     C_R   0.615086 0.050688 0.538406 -0.160768
C55   C     C_R   0.607393 0.950670 0.532187 -0.131528
C56   C     C_R   0.596341 0.050864 0.616910 -0.152269
C57   C     C_R   0.109491 0.500459 0.486761 0.108228
C58   C     C_R   0.070601 0.500941 0.641325 0.116640
C59   C     C_R   0.608656 0.000737 0.486446 0.103255
C60   C     C_R   0.571604 0.001091 0.642478 0.119497
C61   C     C_R   0.904102 0.376563 0.095172 -0.157633
C62   C     C_R   0.348096 0.152298 0.913166 -0.080623
C63   C     C_R   0.054493 0.652267 0.907957 -0.117592
C64   C     C_R   0.095411 0.371341 0.908668 -0.163918
C65   C     C_R   0.929173 0.642918 0.098122 -0.063598
C66   C     C_R   0.407334 0.873172 0.095932 -0.160875
C67   C     C_R   0.554721 0.151152 0.906442 -0.129326
C68   C     C_R   0.594909 0.872783 0.907366 -0.145114
C69   C     C_R   0.446091 0.150149 0.097166 -0.112105
C70   C     C_R   0.054590 0.546547 0.306747 -0.136352
C71   C     C_R   0.996929 0.454596 0.726570 -0.140687
C72   C     C_R   0.006638 0.547343 0.737318 -0.117471
C73   C     C_R   0.690622 0.875267 0.091916 -0.063357
C74   C     C_R   0.056273 0.454409 0.307090 -0.141397
C75   C     C_R   0.553588 0.046672 0.306214 -0.128337
C76   C     C_R   0.496426 0.954777 0.725906 -0.134879
C77   C     C_R   0.506998 0.047436 0.737787 -0.120554
C78   C     C_R   0.555493 0.954445 0.306875 -0.139157
C79   C     C_R   0.729954 0.454152 0.728549 -0.059840
C80   C     C_R   0.258663 0.547196 0.299078 -0.114287
C81   C     C_R   0.258290 0.455450 0.301834 -0.100554
C82   C     C_R   0.730840 0.546044 0.738464 -0.171613
C83   C     C_R   0.229969 0.954006 0.730831 -0.054855
C84   C     C_R   0.655202 0.151820 0.090062 -0.069698
C85   C     C_R   0.759241 0.047185 0.298465 -0.116100
C86   C     C_R   0.758678 0.955407 0.301368 -0.121362
C87   C     C_R   0.230865 0.045959 0.739976 -0.170303
C88   C     C_R   0.857119 0.673179 0.009602 0.057527
C89   C     C_R   0.187395 0.360259 0.001031 0.079517
C90   C     C_R   0.113540 0.686453 0.999552 0.077868
C91   C     C_R   0.813132 0.362652 0.004286 0.079559
C92   C     C_R   0.381924 0.183300 0.009436 0.085178
C93   C     C_R   0.687124 0.862779 0.998351 0.081122
C94   C     C_R   0.621736 0.183712 0.996013 0.085032
C95   C     C_R   0.314022 0.868230 0.911497 -0.047516
C96   C     C_R   0.316690 0.857680 0.005829 0.079662
C97   C     C_R   0.076243 0.500679 0.371997 0.057818
C98   C     C_R   0.025935 0.501146 0.698761 0.050041
C99   C     C_R   0.575001 0.000805 0.371516 0.056031
C100  C     C_R   0.526255 0.001286 0.699110 0.051909
C101  C     C_R   0.674746 0.499754 0.700260 0.089521
C102  C     C_R   0.306460 0.502143 0.359654 0.043635
C103  C     C_R   0.174756 0.999599 0.702831 0.090181
C104  C     C_R   0.807453 0.002071 0.358571 0.047190
C105  C     C_3   0.515382 0.448745 0.557544 -0.143176
C106  C     C_3   0.399102 0.503084 0.458790 0.138317
C107  C     C_3   0.458635 0.554483 0.521301 -0.171037
C108  C     C_3   0.475971 0.480083 0.449698 -0.148766
C109  C     C_3   0.499330 0.523231 0.630681 -0.091848
C110  C     C_3   0.014741 0.948310 0.561434 -0.149689
C111  C     C_3   0.960226 0.054372 0.518211 -0.180646
C112  C     C_3   0.977034 0.977607 0.451902 -0.148934
C113  C     C_3   0.999023 0.025147 0.629074 -0.100897
C114  C     C_3   0.436941 0.471810 0.565637 -0.117829
C115  C     C_3   0.536442 0.531295 0.512857 -0.164474
C116  C     C_3   0.935907 0.973589 0.566425 -0.123470
H1    H     H_    0.801962 0.666352 0.831806 0.128387
H2    H     H_    0.988932 0.413121 0.696111 0.105887
H3    H     H_    0.016314 0.590281 0.726672 0.086761
H4    H     H_    0.076591 0.412388 0.334450 0.098822
H5    H     H_    0.570237 0.089351 0.332873 0.097053
H6    H     H_    0.487334 0.913538 0.693871 0.100528
H7    H     H_    0.517092 0.090425 0.727825 0.094952
H8    H     H_    0.575717 0.912455 0.334500 0.101314
H9    H     H_    0.707280 0.412729 0.696459 0.078640
H10   H     H_    0.273445 0.590226 0.323895 0.096012
H11   H     H_    0.273206 0.413394 0.331244 0.088018
H12   H     H_    0.243778 0.365820 0.178861 0.085661
H13   H     H_    0.709419 0.588736 0.722116 0.113263
H14   H     H_    0.207145 0.912457 0.699756 0.078661
H15   H     H_    0.774121 0.090198 0.323382 0.092549
H16   H     H_    0.773528 0.913366 0.330901 0.086987
H17   H     H_    0.209408 0.088651 0.723860 0.109231
H18   H     H_    0.392674 0.447877 0.583640 0.127639
H19   H     H_    0.579537 0.555313 0.493172 0.136244
H20   H     H_    0.890418 0.951300 0.584642 0.125095
H21   H     H_    0.082593 0.051344 0.492785 0.132451
H22   H     H_    0.539440 0.405289 0.572523 0.114261
H23   H     H_    0.193319 0.665565 0.177513 0.105636
H24   H     H_    0.433012 0.597657 0.504603 0.138884
H25   H     H_    0.464806 0.462763 0.373751 0.180472
H26   H     H_    0.513006 0.540587 0.708036 0.133350
H27   H     H_    0.038115 0.904752 0.579489 0.111620
H28   H     H_    0.935672 0.097722 0.498651 0.126664
H29   H     H_    0.965814 0.958298 0.377182 0.164048
H30   H     H_    0.011986 0.044247 0.704831 0.130728
H31   H     H_    0.933046 0.372620 0.181354 0.123743
H32   H     H_    0.008548 0.664432 0.822823 0.111546
H33   H     H_    0.065117 0.357980 0.825591 0.118796
H34   H     H_    0.758649 0.357373 0.828010 0.071315
H35   H     H_    0.969831 0.651260 0.185119 0.105127
H36   H     H_    0.439387 0.867586 0.182454 0.126723
H37   H     H_    0.500400 0.164715 0.824310 0.153174
H38   H     H_    0.564381 0.859507 0.824161 0.099548
H39   H     H_    0.499303 0.162516 0.181194 0.142549
H40   H     H_    0.553622 0.346211 0.721468 0.059746
H41   H     H_    0.235066 0.780413 0.277695 0.092971
H42   H     H_    0.444572 0.345296 0.287571 0.053872
H43   H     H_    0.665975 0.667725 0.840773 -0.020387
H44   H     H_    0.057254 0.848064 0.729676 -0.040366
H45   H     H_    0.303962 0.166531 0.828980 0.097176
H46   H     H_    0.718612 0.279776 0.260434 0.089677
H47   H     H_    0.948363 0.848807 0.272445 0.041055
H48   H     H_    0.296704 0.284583 0.754823 0.087158
H49   H     H_    0.978716 0.772324 0.721568 -0.024292
H50   H     H_    0.806109 0.400152 0.197761 0.047641
H51   H     H_    0.914798 0.710604 0.250756 -0.023913
H52   H     H_    0.191851 0.393325 0.808194 0.043297
H53   H     H_    0.605233 0.204722 0.778435 -0.003715
H54   H     H_    0.319696 0.894147 0.207229 0.048254
H55   H     H_    0.405806 0.205619 0.235828 0.000521
H56   H     H_    0.748231 0.869307 0.177195 0.080054
H57   H     H_    0.688911 0.880019 0.795304 -0.050651
H58   H     H_    0.065335 0.411636 0.622818 0.164476
H59   H     H_    0.125626 0.589575 0.511857 0.117143
H60   H     H_    0.107062 0.410823 0.497808 0.137799
H61   H     H_    0.094560 0.589898 0.650089 0.109324
H62   H     H_    0.570644 0.911513 0.628022 0.134460
H63   H     H_    0.623040 0.089966 0.510066 0.119935
H64   H     H_    0.609011 0.911103 0.499514 0.141297
H65   H     H_    0.592907 0.090258 0.648809 0.113895
H66   H     H_    0.701615 0.164939 0.175416 0.091224
H67   H     H_    0.260166 0.854688 0.828653 0.072801
H68   H     H_    0.072089 0.589099 0.334002 0.097832
N1    N     N_R   0.892620 0.603790 0.941800 -0.045517
N2    N     N_R   0.047790 0.602400 0.942090 -0.047006
N3    N     N_R   0.047790 0.397600 0.942090 -0.043220
N4    N     N_R   0.952210 0.602400 0.057910 -0.047632
N5    N     N_R   0.452210 0.897600 0.057910 -0.046077
N6    N     N_R   0.547790 0.102400 0.942090 -0.049804
N7    N     N_R   0.547790 0.897600 0.942090 -0.043002
N8    N     N_R   0.452210 0.102400 0.057910 -0.049727
N9    N     N_R   0.026300 0.529110 0.206760 -0.043384
N10   N     N_R   0.973700 0.470890 0.793240 -0.040132
N11   N     N_R   0.973700 0.529110 0.793240 -0.041514
N12   N     N_R   0.107380 0.396210 0.058200 -0.052293
N13   N     N_R   0.026300 0.470890 0.206760 -0.041640
N14   N     N_R   0.526300 0.029110 0.206760 -0.042320
N15   N     N_R   0.473700 0.970890 0.793240 -0.040590
N16   N     N_R   0.473700 0.029110 0.793240 -0.042598
N17   N     N_R   0.526300 0.970890 0.206760 -0.040814
N18   N     N_R   0.818530 0.472270 0.792960 -0.049408
N19   N     N_R   0.181470 0.527730 0.207040 -0.040570
N20   N     N_R   0.181470 0.472270 0.207040 -0.037534
N21   N     N_R   0.818530 0.527730 0.792960 -0.042672
N22   N     N_R   0.318530 0.972270 0.792960 -0.050470
N23   N     N_R   0.107380 0.603790 0.058200 -0.048653
N24   N     N_R   0.681470 0.027730 0.207040 -0.040170
N25   N     N_R   0.681470 0.972270 0.207040 -0.036154
N26   N     N_R   0.318530 0.027730 0.792960 -0.043288
N27   N     N_R   0.892620 0.396210 0.941800 -0.051639
N28   N     N_R   0.392620 0.103790 0.941800 -0.044632
N29   N     N_R   0.607380 0.896210 0.058200 -0.052228
N30   N     N_R   0.607380 0.103790 0.058200 -0.046191
N31   N     N_R   0.392620 0.896210 0.941800 -0.051729
N32   N     N_R   0.952210 0.397600 0.057910 -0.046258
Ni1   Ni    Ni4+2 0.934150 0.565840 0.869060 0.238336
Ni2   Ni    Ni4+2 0.065850 0.434160 0.130940 0.216121
Ni3   Ni    Ni4+2 0.065850 0.565840 0.130940 0.237178
Ni4   Ni    Ni4+2 0.934150 0.434160 0.869060 0.224921
Ni5   Ni    Ni4+2 0.434150 0.065840 0.869060 0.238288
Ni6   Ni    Ni4+2 0.565850 0.934160 0.130940 0.217100
Ni7   Ni    Ni4+2 0.565850 0.065840 0.130940 0.232722
Ni8   Ni    Ni4+2 0.434150 0.934160 0.869060 0.228972
O1    O     O_2   0.614042 0.411201 0.820674 -0.596890
O2    O     O_2   0.848598 0.333781 0.293159 -0.597597
O3    O     O_2   0.019038 0.760458 0.280434 -0.549259
O4    O     O_2   0.154635 0.324785 0.716187 -0.612303
O5    O     O_2   0.492367 0.253146 0.707680 -0.575270
O6    O     O_2   0.367982 0.826377 0.298977 -0.587948
O7    O     O_2   0.518100 0.255400 0.297506 -0.566355
O8    O     O_2   0.682811 0.811889 0.716029 -0.534017
O9    O     O_2   0.105214 0.751297 0.173244 -0.541601
O10   O     O_2   0.387736 0.409455 0.187909 -0.597114
O11   O     O_2   0.592710 0.730010 0.743107 -0.550467
O12   O     O_2   0.123896 0.911258 0.832987 -0.583295
O13   O     O_2   0.591637 0.249418 0.147208 -0.560692
O14   O     O_2   0.891807 0.910571 0.166994 -0.584425
O15   O     O_2   0.419038 0.250993 0.867616 -0.567580
O16   O     O_2   0.933176 0.755524 0.813990 -0.551716

loop_
_geom_bond_atom_site_label_1
_geom_bond_atom_site_label_2
_ccdc_geom_bond_type
N19   N20   A    
C40   H23   S    
C28   C47   A    
C10   H47   S    
C20   O8    D    
C15   O3    D    
C55   C59   A    
N3    N12   A    
C95   N31   A    
C55   H64   S    
C87   H17   S    
C95   C96   A    
C58   C98   S    
C78   N17   A    
C73   C93   A    
C86   C104  A    
C53   H62   S    
C72   N11   A    
C29   C89   A    
C21   C110  S    
C67   N6    A    
C2    C109  S    
C72   C98   A    
C112  H29   S    
N24   Ni7   S    
N27   Ni4   S    
N21   Ni1   S    
C43   C89   S    
C115  H19   S    
N2    N23   A    
C106  C114  S    
C77   H7    S    
C33   C42   A    
C64   C89   A    
C108  C115  S    
C61   C91   A    
C19   H55   S    
C14   O2    D    
C83   N22   A    
C68   H38   S    
C13   C112  S    
C106  C108  S    
C23   C39   A    
C75   N14   A    
C80   N19   A    
C46   C92   S    
C106  C107  S    
C11   O15   D    
C66   N5    A    
C49   C57   A    
C54   H63   S    
C63   C90   A    
C77   C100  A    
C50   H60   S    
N29   Ni6   S    
N18   Ni4   S    
C107  H24   S    
C52   H61   S    
N8    N28   A    
C19   C37   S    
C26   C45   A    
C51   C91   A    
C105  H22   S    
C19   O7    D    
C27   C44   A    
C29   H12   S    
C11   C30   S    
C3    C111  S    
N24   N25   A    
N18   N21   A    
C62   C92   A    
C67   C94   A    
C32   C41   A    
C86   N25   A    
C102  C106  S    
C109  H26   S    
C3    H21   S    
C61   N32   A    
C14   H50   S    
C69   C92   A    
C78   H8    S    
C39   C90   S    
C70   C97   A    
N28   Ni5   S    
C113  C116  S    
C16   C34   S    
C79   N18   A    
C1    C88   A    
C48   C50   A    
N10   N11   A    
C6    O10   D    
C40   N23   A    
C6    C24   S    
N15   N16   A    
N26   Ni5   S    
C5    O9    D    
C81   H11   S    
N25   Ni6   S    
C107  C109  S    
C73   N29   A    
C9    H46   S    
N17   Ni6   S    
C79   H9    S    
C69   N8    A    
C108  H25   S    
C6    H42   S    
C53   C60   A    
C84   N30   A    
C81   N20   A    
C48   H58   S    
C54   C59   A    
C53   C55   A    
C47   C93   S    
C8    C26   S    
C52   C58   A    
N2    Ni1   S    
C54   C56   A    
C81   C102  A    
C30   C34   A    
C13   C116  S    
C105  C114  S    
C51   H34   S    
C83   H14   S    
C21   C113  S    
C18   O6    D    
N6    Ni5   S    
N22   Ni8   S    
C12   H49   S    
C17   O5    D    
N5    Ni6   S    
C71   N10   A    
C84   C94   A    
C68   N7    A    
C60   C100  S    
N1    Ni1   S    
C56   C60   A    
C80   C102  A    
C73   H56   S    
C21   C103  S    
C113  H30   S    
C65   H35   S    
C66   H36   S    
C22   C35   A    
C51   N27   A    
C25   C38   A    
C20   C38   S    
C2    C115  S    
N22   N26   A    
N12   Ni2   S    
C20   H57   S    
C5    C23   S    
C74   N13   A    
C12   O16   D    
C3    C112  S    
C49   C52   A    
C57   C97   S    
C9    C27   S    
C15   H51   S    
N14   N17   A    
C75   C99   A    
C24   C37   A    
C114  H18   S    
C36   C45   A    
C111  C113  S    
C69   H39   S    
C105  C108  S    
C82   H13   S    
C35   C44   A    
N6    N30   A    
C107  C115  S    
C38   C47   A    
C85   C104  A    
C83   C103  A    
C109  C114  S    
C7    O11   D    
C87   C103  A    
C8    O12   D    
C70   H68   S    
C4    H40   S    
C28   C33   A    
C10   O14   D    
C5    H41   S    
C12   C31   S    
C9    O13   D    
N31   Ni8   S    
C87   N26   A    
C3    C21   S    
C42   C88   S    
N16   Ni5   S    
N13   Ni2   S    
C8    H44   S    
C110  C116  S    
C63   H32   S    
N11   Ni1   S    
C111  H28   S    
C65   C88   A    
C66   C96   A    
N4    Ni3   S    
C10   C28   S    
N9    Ni3   S    
C4    C22   S    
C71   C98   A    
C16   O4    D    
C71   H2    S    
C41   C91   S    
C27   C32   A    
C75   H5    S    
C50   C57   A    
C30   C46   A    
C34   C43   A    
N8    Ni7   S    
C14   C32   S    
C62   H45   S    
N1    N4    A    
C76   N15   A    
C7    C25   S    
C25   C42   A    
N10   Ni4   S    
C48   C58   A    
C116  H20   S    
C1    N1    A    
C76   C100  A    
C29   N12   A    
C74   H4    S    
C2    C105  S    
N23   Ni3   S    
C68   C93   A    
C2    C101  S    
N19   Ni3   S    
C64   H33   S    
C67   H37   S    
C76   H6    S    
C4    O1    D    
C84   H66   S    
N14   Ni7   S    
C61   H31   S    
C13   C111  S    
N7    N29   A    
C86   H16   S    
C80   H10   S    
C16   H52   S    
C70   N9    A    
N9    N13   A    
C59   C99   S    
C72   H3    S    
C11   H48   S    
C82   C101  A    
C31   C39   A    
N27   N32   A    
C17   H53   S    
C95   H67   S    
C110  H27   S    
C77   N16   A    
C110  C112  S    
C65   N4    A    
C64   N3    A    
C44   C94   S    
N30   Ni7   S    
N3    Ni4   S    
C22   C41   A    
N5    N31   A    
C26   C31   A    
C63   N2    A    
C7    H43   S    
C23   C36   A    
C56   H65   S    
C18   H54   S    
N20   Ni2   S    
C78   C99   A    
C13   C104  S    
C24   C43   A    
C62   N28   A    
C79   C101  A    
N15   Ni8   S    
C17   C35   S    
C40   C90   A    
C37   C46   A    
C1    H1    S    
C45   C96   S    
C18   C36   S    
N7    Ni8   S    
C15   C33   S    
C82   N21   A    
C85   H15   S    
C74   C97   A    
N32   Ni2   S    
C85   N24   A    
C49   H59   S    
