data_mof_unit_53580.cif
_audit_creation_date              2012-12-10T19:50:00-0500
_audit_creation_method            fapswitch 2.2
_symmetry_space_group_name_H-M    P1
_symmetry_Int_Tables_number       1
_space_group_crystal_system       triclinic
_cell_length_a                    14.235569
_cell_length_b                    14.853656
_cell_length_c                    15.327273
_cell_angle_alpha                 91.776619
_cell_angle_beta                  68.448191
_cell_angle_gamma                 90.136183
_cell_volume                      3012.77616668

loop_
_atom_site_label
_atom_site_type_symbol
_atom_type_description
_atom_site_fract_x
_atom_site_fract_y
_atom_site_fract_z
_atom_type_partial_charge
C1    C     C_R   0.498802 0.672533 0.503003 0.946931
C2    C     C_R   0.498361 0.327283 0.504713 0.942466
C3    C     C_R   0.410388 0.385333 0.086141 -0.154631
C4    C     C_R   0.632332 0.439866 0.883332 -0.146494
C5    C     C_R   0.340537 0.362346 0.044051 0.224839
C6    C     C_R   0.708250 0.440562 0.921714 0.216391
C7    C     C_R   0.398178 0.898983 0.609505 0.455775
C8    C     C_R   0.542061 0.101278 0.589216 0.434808
C9    C     C_R   0.403397 0.806528 0.589832 0.425937
C10   C     C_R   0.557747 0.190857 0.561866 0.398267
C11   C     C_R   0.491492 0.768429 0.521872 -0.300033
C12   C     C_R   0.490985 0.231856 0.525301 -0.297300
C13   C     C_R   0.575453 0.821030 0.477251 -0.448186
C14   C     C_R   0.412324 0.182252 0.514114 -0.386151
C15   C     C_R   0.570702 0.913302 0.494449 0.560214
C16   C     C_R   0.405627 0.090506 0.528837 0.516156
C17   C     C_R   0.481504 0.952537 0.559963 -0.119655
C18   C     C_R   0.472347 0.049965 0.564561 -0.120857
C19   C     C_R   0.868214 0.555857 0.565753 0.005241
C20   C     C_R   0.132150 0.439905 0.436802 0.067047
C21   C     C_R   0.771589 0.559696 0.557928 0.657364
C22   C     C_R   0.222103 0.430966 0.455586 0.683628
C23   C     C_R   0.436994 0.496613 0.676408 0.950620
C24   C     C_R   0.563573 0.499189 0.322671 0.905166
C25   C     C_R   0.814820 0.436763 0.448745 -0.085542
C26   C     C_R   0.193098 0.574470 0.531701 -0.114763
C27   C     C_R   0.911819 0.433544 0.451020 -0.348662
C28   C     C_R   0.096136 0.577807 0.528127 -0.340375
C29   C     C_R   0.945999 0.499825 0.500834 0.100817
C30   C     C_R   0.058171 0.504960 0.489616 0.096396
C31   C     C_R   0.399545 0.472016 0.775566 -0.350781
C32   C     C_R   0.605844 0.487385 0.218612 -0.343952
C33   C     C_R   0.292956 0.375442 0.899787 0.093411
C34   C     C_R   0.747995 0.450551 0.071029 0.100420
C35   C     C_R   0.312581 0.419029 0.813835 0.434130
C36   C     C_R   0.710535 0.473767 0.168457 0.446304
C37   C     C_R   0.463400 0.486350 0.824859 0.412692
C38   C     C_R   0.539773 0.481492 0.170058 0.381080
C39   C     C_R   0.451737 0.435924 0.903911 -0.117574
C40   C     C_R   0.574194 0.448269 0.076783 -0.115190
C41   C     C_R   0.359424 0.389980 0.950244 -0.014759
C42   C     C_R   0.679492 0.445919 0.021946 -0.016162
C43   C     C_R   0.529584 0.434422 0.940165 0.036836
C44   C     C_R   0.503789 0.423942 0.035413 0.062687
H1    H     H_    0.792372 0.387262 0.407132 0.171908
H2    H     H_    0.220207 0.631256 0.561212 0.213145
H3    H     H_    0.956479 0.375888 0.415997 0.188359
H4    H     H_    0.053917 0.639465 0.552220 0.191875
H5    H     H_    0.394897 0.367139 0.157554 0.153483
H6    H     H_    0.654034 0.438153 0.807761 0.201764
H7    H     H_    0.644152 0.790781 0.427304 0.191351
H8    H     H_    0.357644 0.213379 0.490752 0.254468
N1    N     N_R   0.747530 0.500020 0.500000 -0.138842
N2    N     N_R   0.252470 0.499980 0.500000 -0.138247
O1    O     O_R   0.420530 0.630930 0.499990 -0.594093
O2    O     O_R   0.579470 0.369070 0.500010 -0.588293
O3    O     O_R   0.579480 0.630940 0.499990 -0.612565
O4    O     O_R   0.420520 0.369060 0.500010 -0.566580
O5    O     O_R   0.375120 0.499990 0.632240 -0.581213
O6    O     O_R   0.624880 0.500010 0.367760 -0.580469
O7    O     O_R   0.534080 0.500000 0.632240 -0.525423
O8    O     O_R   0.465920 0.500000 0.367760 -0.580500
Zn1   Zn    Zn3+2 0.393860 0.499990 0.500000 1.009947
Zn2   Zn    Zn3+2 0.606140 0.500010 0.500000 1.011478
C45   C     C_3   0.246056 0.315878 0.105859 -0.932441
H9    H     H_    0.248001 0.302219 0.175772 0.222960
H10   H     H_    0.178805 0.359215 0.118207 0.253968
H11   H     H_    0.238854 0.248395 0.076739 0.244992
C46   C     C_3   0.815555 0.444721 0.851964 -0.922694
H12   H     H_    0.818806 0.444414 0.778519 0.240730
H13   H     H_    0.851412 0.508169 0.863052 0.242323
H14   H     H_    0.859670 0.384542 0.854920 0.250684
C47   C     C_3   0.876647 0.595663 0.654697 -0.919304
H15   H     H_    0.931234 0.557122 0.675580 0.248522
H16   H     H_    0.898198 0.667509 0.646662 0.232779
H17   H     H_    0.803244 0.591801 0.714461 0.280898
C48   C     C_3   0.137021 0.406598 0.341184 -0.970083
H18   H     H_    0.122052 0.333230 0.341066 0.252364
H19   H     H_    0.085679 0.444843 0.315961 0.254666
H20   H     H_    0.212348 0.420751 0.287911 0.250881
O9    O     O_3   0.696418 0.616419 0.616531 -0.557833
C49   C     C_3   0.717879 0.705974 0.587641 -0.261113
H21   H     H_    0.647552 0.746658 0.619214 0.194760
H22   H     H_    0.744022 0.711577 0.509992 0.145700
H23   H     H_    0.774178 0.736250 0.613667 0.155426
O10   O     O_3   0.268986 0.347496 0.444748 -0.596304
C50   C     C_3   0.333563 0.329665 0.351056 -0.323136
H24   H     H_    0.400386 0.291004 0.350166 0.167903
H25   H     H_    0.362429 0.391243 0.312002 0.212745
H26   H     H_    0.294661 0.286674 0.314688 0.159334
O11   O     O_3   0.441334 0.513026 0.212130 -0.609662
C51   C     C_3   0.438683 0.604667 0.191722 -0.278746
H27   H     H_    0.461410 0.613826 0.114904 0.149174
H28   H     H_    0.487136 0.645829 0.220052 0.145147
H29   H     H_    0.359979 0.629977 0.226130 0.186496
O12   O     O_3   0.538752 0.550209 0.794116 -0.556685
C52   C     C_3   0.505801 0.629958 0.849365 -0.289395
H30   H     H_    0.500881 0.620548 0.922610 0.153826
H31   H     H_    0.431838 0.653983 0.849243 0.120276
H32   H     H_    0.561953 0.683370 0.819189 0.198983
O13   O     O_3   0.776848 0.479793 0.215585 -0.587633
C53   C     C_3   0.813046 0.568782 0.210072 -0.297828
H33   H     H_    0.864169 0.574252 0.249860 0.185116
H34   H     H_    0.750357 0.618376 0.242373 0.149209
H35   H     H_    0.857325 0.586124 0.136217 0.155181
O14   O     O_3   0.252052 0.402316 0.762175 -0.570770
C54   C     C_3   0.170071 0.463759 0.792997 -0.270701
H36   H     H_    0.121833 0.454604 0.867900 0.149117
H37   H     H_    0.196379 0.534477 0.782477 0.147431
H38   H     H_    0.122447 0.451312 0.750623 0.194296
C55   C     C_3   0.209372 0.306325 0.927502 -0.842603
H39   H     H_    0.176412 0.293265 0.873198 0.273993
H40   H     H_    0.240328 0.240067 0.935540 0.226512
H41   H     H_    0.145471 0.329132 0.991166 0.230612
C56   C     C_3   0.857927 0.421741 0.026099 -0.857887
H42   H     H_    0.894755 0.413254 0.077731 0.268461
H43   H     H_    0.863579 0.354278 0.991493 0.233862
H44   H     H_    0.902941 0.472618 0.977170 0.225472
O15   O     O_3   0.307660 0.935699 0.670940 -0.523330
C57   C     C_3   0.320392 0.974678 0.751069 -0.287220
H45   H     H_    0.334775 0.047844 0.741809 0.173015
H46   H     H_    0.381067 0.941938 0.769119 0.112279
H47   H     H_    0.248771 0.967551 0.812068 0.183709
O16   O     O_3   0.603696 0.059872 0.628348 -0.570191
C58   C     C_3   0.574733 0.089080 0.723101 -0.294979
H48   H     H_    0.492979 0.078328 0.762941 0.122733
H49   H     H_    0.593768 0.160945 0.729481 0.207579
H50   H     H_    0.617266 0.048827 0.756306 0.183868
O17   O     O_3   0.321004 0.753757 0.636132 -0.569091
C59   C     C_3   0.330325 0.724541 0.719257 -0.296087
H51   H     H_    0.401522 0.685658 0.704235 0.140192
H52   H     H_    0.266453 0.679568 0.754780 0.172272
H53   H     H_    0.326172 0.782021 0.768718 0.158014
O18   O     O_3   0.634780 0.239087 0.575551 -0.587556
C60   C     C_3   0.727034 0.213970 0.503595 -0.219451
H54   H     H_    0.788370 0.253889 0.513673 0.173705
H55   H     H_    0.725973 0.228481 0.433127 0.133395
H56   H     H_    0.745964 0.141805 0.506204 0.214243
O19   O     O_3   0.655082 0.964682 0.449965 -0.567275
C61   C     C_3   0.657727 0.984990 0.359877 -0.376967
H57   H     H_    0.594677 0.031225 0.364627 0.150246
H58   H     H_    0.656548 0.923141 0.317361 0.159539
H59   H     H_    0.729189 0.020508 0.322386 0.194379
O20   O     O_3   0.330834 0.041183 0.512413 -0.537265
C62   C     C_3   0.360575 0.022405 0.415228 -0.309403
H60   H     H_    0.427853 0.977052 0.389661 0.138461
H61   H     H_    0.375182 0.084980 0.374334 0.144922
H62   H     H_    0.298209 0.986568 0.402376 0.200170

loop_
_geom_bond_atom_site_label_1
_geom_bond_atom_site_label_2
_ccdc_geom_bond_type
C6    C46   S    
C38   C40   A    
C50   H24   S    
O13   C53   S    
C56   H43   S    
O7    Zn2   S    
C47   H16   S    
C47   H15   S    
C55   H39   S    
C34   C42   A    
C61   H59   S    
C2    C12   S    
C52   H32   S    
O9    C49   S    
C3    H5    S    
C60   H54   S    
C39   C41   A    
C20   C30   A    
C48   H18   S    
C23   O5    A    
C29   C30   S    
C20   C48   S    
C32   C36   A    
C16   O20   S    
C25   N1    A    
C62   H60   S    
N1    Zn2   S    
C27   C29   A    
N2    Zn1   S    
C56   H42   S    
C53   H35   S    
C60   H55   S    
C46   H13   S    
C52   H31   S    
C13   H7    S    
C14   H8    S    
C7    C17   A    
O1    Zn1   S    
C58   H50   S    
C54   H36   S    
O2    Zn2   S    
C33   C55   S    
C14   C16   A    
C32   C38   A    
C57   H47   S    
C45   H11   S    
C40   C42   A    
C54   H37   S    
C46   H12   S    
C26   N2    A    
C62   H61   S    
C57   H46   S    
C52   H30   S    
C15   O19   S    
C48   H19   S    
C3    C44   A    
C7    O15   S    
C19   C47   S    
C61   H57   S    
C5    C45   S    
O11   C51   S    
O10   C50   S    
C8    O16   S    
C39   C43   A    
C45   H10   S    
C34   C56   S    
C38   O11   S    
C51   H29   S    
C8    C18   A    
C31   C37   A    
C37   O12   S    
C4    H6    S    
C36   O13   S    
C23   C31   S    
C46   H14   S    
C59   H52   S    
C43   C44   A    
C24   C32   S    
O8    Zn1   S    
C1    O3    A    
C23   O7    A    
C24   O6    A    
C56   H44   S    
O12   C52   S    
C51   H28   S    
C17   C18   S    
C55   H40   S    
C16   C18   A    
O14   C54   S    
O15   C57   S    
C53   H34   S    
C9    C11   A    
C60   H56   S    
C10   C12   A    
C4    C6    A    
C21   O9    S    
C45   H9    S    
C49   H22   S    
C22   N2    A    
C13   C15   A    
C58   H48   S    
C54   H38   S    
C31   C35   A    
C59   H53   S    
C20   C22   A    
C19   C29   A    
C25   H1    S    
C62   H62   S    
C57   H45   S    
O3    Zn2   S    
O17   C59   S    
C48   H20   S    
C27   H3    S    
O4    Zn1   S    
C15   C17   A    
C5    C41   A    
C28   H4    S    
C24   O8    A    
C19   C21   A    
C26   C28   A    
C10   O18   S    
C12   C14   A    
O20   C62   S    
C3    C5    A    
O19   C61   S    
C2    O4    A    
O18   C60   S    
C61   H58   S    
C4    C43   A    
C9    O17   S    
C25   C27   A    
C49   H23   S    
O5    Zn1   S    
O6    Zn2   S    
C33   C41   A    
C28   C30   A    
C59   H51   S    
C1    O1    A    
C37   C39   A    
C35   O14   S    
C2    O2    A    
C21   N1    A    
C11   C13   A    
C51   H27   S    
C33   C35   A    
C55   H41   S    
C34   C36   A    
C22   O10   S    
C53   H33   S    
C26   H2    S    
C7    C9    A    
C40   C44   A    
C47   H17   S    
C8    C10   A    
C49   H21   S    
C6    C42   A    
C50   H26   S    
C58   H49   S    
C50   H25   S    
C1    C11   S    
O16   C58   S    
