data_mof_unit_16610.cif
_audit_creation_date              2012-12-11T15:58:48-0500
_audit_creation_method            fapswitch 2.2
_symmetry_space_group_name_H-M    P1
_symmetry_Int_Tables_number       1
_space_group_crystal_system       triclinic
_cell_length_a                    8.304231
_cell_length_b                    18.893527
_cell_length_c                    19.097813
_cell_angle_alpha                 99.098027
_cell_angle_beta                  94.436504
_cell_angle_gamma                 92.069944
_cell_volume                      2946.25279308

loop_
_atom_site_label
_atom_site_type_symbol
_atom_type_description
_atom_site_fract_x
_atom_site_fract_y
_atom_site_fract_z
_atom_type_partial_charge
Ba1   Ba    Ba6+2 0.152460 0.535140 0.468980 1.643331
Ba2   Ba    Ba6+2 0.657710 0.464850 0.530960 1.633299
C1    C     C_3   0.333185 0.781042 0.238483 -0.103696
C2    C     C_R   0.073769 0.916532 0.592125 0.023819
C3    C     C_R   0.215161 0.948643 0.634548 0.138777
C4    C     C_3   0.844518 0.725649 0.295684 0.467709
C5    C     C_R   0.282307 0.014087 0.622077 -0.088535
C6    C     C_R   0.200357 0.054429 0.577198 0.009544
C7    C     C_R   0.048599 0.029306 0.543483 0.016074
C8    C     C_R   0.264155 0.122158 0.570545 -0.107760
C9    C     C_R   0.171824 0.169846 0.536728 -0.045572
C10   C     C_R   0.016146 0.146316 0.503894 -0.009184
C11   C     C_R   0.956922 0.075028 0.506055 -0.002628
C12   C     C_3   0.393990 0.743327 0.300725 0.438401
C13   C     C_R   0.227959 0.241355 0.537875 -0.010861
C14   C     C_R   0.126686 0.289471 0.510051 -0.300750
C15   C     C_R   0.975655 0.267325 0.474131 0.045228
C16   C     C_3   0.795589 0.772057 0.239398 -0.348211
C17   C     C_R   0.919627 0.193855 0.469620 -0.054663
C18   C     C_R   0.837884 0.933212 0.512606 0.004608
C19   C     C_R   0.782741 0.860812 0.511044 -0.006814
C20   C     C_R   0.879781 0.813153 0.545213 -0.043000
C21   C     C_R   0.016917 0.843823 0.591048 0.146707
C22   C     C_R   0.769140 0.166464 0.434331 -0.043810
C23   C     C_3   0.481604 0.689535 0.671740 0.413865
C24   C     C_R   0.707758 0.096974 0.439247 0.035225
C25   C     C_R   0.802737 0.050716 0.474332 0.003344
C26   C     C_R   0.742957 0.980047 0.477714 0.027744
C27   C     C_R   0.550373 0.073487 0.411178 -0.080286
C28   C     C_3   0.785693 0.376027 0.310932 0.305752
C29   C     C_R   0.490299 0.004255 0.415101 -0.102809
C30   C     C_R   0.586822 0.956718 0.446997 0.035178
C31   C     C_R   0.629402 0.836461 0.475422 -0.033673
C32   C     C_R   0.529903 0.886136 0.447612 -0.118788
C33   C     C_R   0.582870 0.762672 0.465909 -0.022767
C34   C     C_3   0.490336 0.765188 0.715415 -0.089373
C35   C     C_R   0.694828 0.714105 0.486139 -0.100915
C36   C     C_R   0.834712 0.737139 0.530874 0.118325
C37   C     C_R   0.615560 0.523486 0.298435 -0.269731
C38   C     C_R   0.463658 0.491191 0.275299 0.086810
C39   C     C_R   0.406095 0.486482 0.203604 -0.117031
C40   C     C_3   0.765182 0.356525 0.229564 -0.131081
C41   C     C_R   0.500544 0.514494 0.154988 -0.002920
C42   C     C_R   0.655847 0.546141 0.179525 -0.149185
C43   C     C_R   0.711946 0.551236 0.251617 -0.004129
C44   C     C_R   0.428268 0.562682 0.038601 0.145712
C45   C     C_3   0.925636 0.264243 0.678106 0.347073
C46   C     C_R   0.371691 0.548724 0.966519 -0.067952
C47   C     C_R   0.331483 0.478769 0.930629 0.016513
C48   C     C_R   0.337890 0.421386 0.970520 0.141600
C49   C     C_R   0.391880 0.435492 0.043158 -0.091120
C50   C     C_R   0.440426 0.505092 0.078048 0.013365
C51   C     C_R   0.138803 0.437497 0.822027 -0.176541
C52   C     C_3   0.024189 0.612512 0.683857 0.288290
C53   C     C_R   0.096006 0.431784 0.748978 0.021701
C54   C     C_R   0.348888 0.493142 0.733238 0.046331
C55   C     C_R   0.396179 0.497754 0.807139 0.084457
C56   C     C_3   0.893747 0.187725 0.692545 -0.094498
C57   C     C_R   0.290359 0.468749 0.851717 -0.000200
C58   C     C_R   0.203144 0.457231 0.704924 -0.299892
C59   C     C_3   0.055975 0.628158 0.764541 -0.392565
C60   C     C_3   0.297274 0.317709 0.366380 0.358841
C61   C     C_3   0.277432 0.236660 0.339616 -0.119474
C62   C     C_3   0.450942 0.306195 0.711634 0.364729
C63   C     C_3   0.479142 0.280629 0.783141 -0.347976
C64   C     C_R   0.987944 0.959089 0.548500 -0.037207
H1    H     H_    0.713074 0.401695 0.206169 0.058497
H2    H     H_    0.367543 0.782275 0.727151 0.080544
H3    H     H_    0.720132 0.816065 0.261838 0.081591
H4    H     H_    0.887705 0.265276 0.621151 0.037255
H5    H     H_    0.057534 0.277787 0.688240 -0.073469
H6    H     H_    0.763604 0.171205 0.678707 0.131716
H7    H     H_    0.965644 0.150477 0.657884 0.069597
H8    H     H_    0.368016 0.251164 0.794603 0.085219
H9    H     H_    0.509877 0.327389 0.825828 0.090044
H10   H     H_    0.580677 0.243716 0.782846 0.150199
H11   H     H_    0.384015 0.137858 0.595110 0.116282
H12   H     H_    0.925556 0.570325 0.670013 0.072018
H13   H     H_    0.695696 0.199202 0.404430 0.125169
H14   H     H_    0.472401 0.109044 0.387252 0.082261
H15   H     H_    0.368475 0.987695 0.392564 0.071804
H16   H     H_    0.409745 0.869991 0.423454 0.095131
H17   H     H_    0.732326 0.698617 0.308649 -0.041856
H18   H     H_    0.052584 0.419464 0.855986 0.081833
H19   H     H_    0.732536 0.566145 0.142906 0.077592
H20   H     H_    0.166193 0.455068 0.648980 0.062467
H21   H     H_    0.904644 0.796544 0.220582 0.124481
H22   H     H_    0.663516 0.522647 0.352485 0.064864
H23   H     H_    0.152271 0.671124 0.780096 0.142890
H24   H     H_    0.725627 0.738351 0.193126 0.078414
H25   H     H_    0.666208 0.388627 0.330317 -0.010534
H26   H     H_    0.871403 0.423577 0.326021 0.048874
H27   H     H_    0.486434 0.659216 0.238570 0.099371
H28   H     H_    0.290717 0.645138 0.252456 0.220659
H29   H     H_    0.678735 0.309178 0.214123 0.116913
H30   H     H_    0.001942 0.384044 0.216570 0.202726
H31   H     H_    0.965697 0.295764 0.219012 0.207989
H32   H     H_    0.134074 0.593215 0.659663 0.020286
H33   H     H_    0.094145 0.579767 0.785569 0.066575
H34   H     H_    0.944227 0.645752 0.788923 0.109290
H35   H     H_    0.181392 0.336970 0.385358 -0.039224
H36   H     H_    0.394253 0.328004 0.410714 0.067502
H37   H     H_    0.417235 0.231577 0.254905 0.206729
H38   H     H_    0.401049 0.155424 0.287464 0.164299
H39   H     H_    0.414351 0.770397 0.194745 0.079338
H40   H     H_    0.712784 0.663194 0.689035 0.205827
H41   H     H_    0.628706 0.634000 0.604752 0.160191
H42   H     H_    0.388950 0.686471 0.626025 0.055286
H43   H     H_    0.593337 0.864920 0.713171 0.185522
H44   H     H_    0.496979 0.825256 0.634533 0.184856
H45   H     H_    0.209748 0.759192 0.217110 0.136081
H46   H     H_    0.441565 0.878499 0.285473 0.175109
H47   H     H_    0.242839 0.869332 0.296856 0.194613
H48   H     H_    0.861847 0.211982 0.799518 0.205847
H49   H     H_    0.057145 0.202202 0.781438 0.178930
H50   H     H_    0.321844 0.318696 0.703591 -0.072426
H51   H     H_    0.527467 0.355666 0.712591 0.105841
H52   H     H_    0.967629 0.738376 0.394440 0.214454
H53   H     H_    0.009249 0.804457 0.347787 0.202143
H54   H     H_    0.204711 0.930085 0.734695 0.171885
H55   H     H_    0.392846 0.946416 0.715232 0.169387
H56   H     H_    0.165160 0.224572 0.302993 0.080332
H57   H     H_    0.393967 0.036363 0.651974 0.068592
H58   H     H_    0.169510 0.344806 0.513708 0.068591
H59   H     H_    0.083020 0.819480 0.688922 0.187872
H60   H     H_    0.219583 0.798663 0.624991 0.205435
H61   H     H_    0.639582 0.634715 0.403585 0.151455
H62   H     H_    0.586318 0.615767 0.484641 0.202123
H63   H     H_    0.618784 0.495339 0.857444 0.191619
H64   H     H_    0.610238 0.557513 0.803637 0.213259
H65   H     H_    0.361392 0.593568 0.937626 0.109919
H66   H     H_    0.571772 0.652634 0.046870 0.172401
H67   H     H_    0.265080 0.208048 0.385640 0.044764
H68   H     H_    0.495747 0.642354 0.123809 0.165242
H69   H     H_    0.289378 0.459711 0.185373 0.082651
H70   H     H_    0.189847 0.332928 0.960902 0.174451
H71   H     H_    0.270089 0.341739 0.884975 0.169416
H72   H     H_    0.399472 0.390876 0.072453 0.085711
H73   H     H_    0.516058 0.767289 0.320954 -0.028675
H74   H     H_    0.560471 0.764248 0.767351 0.116599
N1    N     N_3   0.403202 0.666277 0.276535 -0.488517
N2    N     N_3   0.098469 0.800515 0.635596 -0.451154
N3    N     N_3   0.672286 0.639765 0.457900 -0.457858
N4    N     N_3   0.546040 0.533825 0.839234 -0.504647
N5    N     N_3   0.467852 0.636243 0.069129 -0.503843
N6    N     N_3   0.295805 0.348022 0.939756 -0.502325
N7    N     N_3   0.919469 0.340446 0.199639 -0.488090
N8    N     N_3   0.417800 0.211088 0.302641 -0.486762
N9    N     N_3   0.639797 0.676831 0.646669 -0.489555
N10   N     N_3   0.572617 0.816291 0.678271 -0.507321
N11   N     N_3   0.329311 0.858712 0.260229 -0.499024
N12   N     N_3   0.938287 0.181284 0.766944 -0.491403
N13   N     N_3   0.915895 0.771401 0.360599 -0.509271
N14   N     N_3   0.283301 0.919350 0.694524 -0.533494
O1    O     O_2   0.118870 0.674530 0.547560 -0.445452
O2    O     O_2   0.764487 0.447150 0.745231 -0.507184
O3    O     O_3   0.836525 0.312387 0.721855 -0.596968
O4    O     O_3   0.870460 0.585330 0.542110 -0.478719
O5    O     O_3   0.436130 0.464210 0.414140 -0.495433
O6    O     O_2   0.629420 0.533310 0.672080 -0.477187
O7    O     O_3   0.440778 0.640569 0.716791 -0.667253
O8    O     O_2   0.560679 0.243276 0.526502 -0.484389
O9    O     O_3   0.493442 0.252450 0.657828 -0.606449
O10   O     O_3   0.354280 0.631750 0.418430 -0.454406
O11   O     O_2   0.260687 0.756036 0.487086 -0.489893
O12   O     O_3   0.336861 0.352129 0.309984 -0.651621
O13   O     O_3   0.980672 0.676235 0.660509 -0.615943
O14   O     O_3   0.287848 0.754667 0.354562 -0.584510
O15   O     O_2   0.180880 0.466650 0.327890 -0.459344
O16   O     O_3   0.939000 0.596010 0.380670 -0.461402
O17   O     O_2   0.046488 0.545877 0.254409 -0.482260
O18   O     O_3   0.957905 0.676977 0.268042 -0.586698
O19   O     O_2   0.691430 0.325420 0.452420 -0.462137
O20   O     O_3   0.939830 0.414660 0.457830 -0.490079
O21   O     O_3   0.456020 0.368240 0.581510 -0.481725
O22   O     O_3   0.843163 0.317058 0.339398 -0.643578
O23   O     O_3   0.374170 0.535780 0.585810 -0.485718
O24   O     O_3   0.871300 0.403980 0.619270 -0.476561
P1    P     P_3+3 0.947550 0.663200 0.567530 1.033610
P2    P     P_3+3 0.354660 0.445020 0.336980 0.978170
P3    P     P_3+3 0.912776 0.591328 0.287807 0.966718
P4    P     P_3+3 0.862750 0.336790 0.432410 0.982175
P5    P     P_3+3 0.892506 0.399522 0.709994 0.942808
P6    P     P_3+3 0.375108 0.726246 0.431070 0.966255
P7    P     P_3+3 0.445656 0.550109 0.676527 0.920449
P8    P     P_3+3 0.433333 0.275756 0.575057 0.940595

loop_
_geom_bond_atom_site_label_1
_geom_bond_atom_site_label_2
_ccdc_geom_bond_type
O13   P1    S    
C62   H50   S    
C60   H36   S    
H31   N7    S    
H38   N8    S    
H48   N12   S    
C52   O13   S    
O4    P1    S    
C56   H6    S    
O20   P4    S    
C51   C57   A    
C43   P3    S    
C5    C6    A    
H63   N4    S    
C4    O18   S    
C34   H2    S    
C1    H39   S    
O22   P4    S    
C24   C25   A    
C35   C36   A    
C63   H10   S    
C51   H18   S    
H66   N5    S    
C61   H67   S    
C18   C64   A    
Ba1   O4    S    
C33   C35   A    
C22   C24   A    
Ba2   O19   S    
Ba1   P2    S    
C41   C50   S    
C55   C57   A    
C44   N5    S    
C19   C31   A    
C13   C14   A    
C20   C36   A    
C44   C50   A    
Ba1   O16   S    
O23   P7    S    
C54   C55   A    
H52   N13   S    
C23   N9    S    
Ba1   Ba2   S    
Ba2   P4    S    
Ba1   O1    S    
H47   N11   S    
C7    C64   A    
C7    C11   A    
C15   C17   A    
C38   P2    S    
Ba1   O23   S    
O18   P3    S    
C8    H11   S    
Ba1   O10   S    
C56   N12   S    
Ba2   O5    S    
O14   P6    S    
H49   N12   S    
O7    P7    S    
C46   H65   S    
C36   P1    S    
Ba2   O23   S    
O11   P6    D    
H64   N4    S    
O5    P2    S    
O15   P2    D    
C11   C25   A    
O24   P5    S    
C37   C43   A    
C60   H35   S    
C48   N6    S    
C16   H3    S    
C12   N1    S    
H53   N13   S    
H40   N9    S    
C53   C58   A    
C39   C41   A    
C59   H33   S    
C9    C13   A    
C37   H22   S    
C62   O9    S    
C40   N7    S    
C15   P4    S    
C28   O22   S    
O2    P5    D    
O1    P1    D    
H37   N8    S    
C31   C32   A    
C51   C53   A    
C4    C16   S    
C13   P8    S    
C44   C46   A    
Ba1   O20   S    
C29   H15   S    
H55   N14   S    
C40   H29   S    
C16   H24   S    
H71   N6    S    
C26   C30   A    
C28   H26   S    
C1    H45   S    
C37   C38   A    
C3    C5    A    
C2    C21   A    
C58   H20   S    
C6    C7    A    
C18   C26   A    
C33   P6    S    
H60   N2    S    
C62   H51   S    
C49   C50   A    
C30   C32   A    
C41   C42   A    
C45   H4    S    
C60   C61   S    
O10   P6    S    
Ba2   O21   S    
C22   H13   S    
C29   C30   A    
Ba1   O5    S    
H59   N2    S    
Ba2   O4    S    
H54   N14   S    
C48   C49   A    
H46   N11   S    
C21   N2    S    
H61   N3    S    
C10   C11   A    
C34   H74   S    
C45   H5    S    
C1    C12   S    
Ba2   O6    S    
C46   C47   A    
C60   O12   S    
O19   P4    D    
C23   O7    S    
O9    P8    S    
O16   P3    S    
C40   H1    S    
C59   H34   S    
O12   P2    S    
C12   O14   S    
C42   H19   S    
C61   N8    S    
C39   H69   S    
C61   H56   S    
H27   N1    S    
C42   C43   A    
O8    P8    D    
C45   O3    S    
H68   N5    S    
C38   C39   A    
C4    H17   S    
C35   N3    S    
C55   N4    S    
H28   N1    S    
O6    P7    D    
O17   P3    D    
C28   C40   S    
C5    H57   S    
C28   H25   S    
H44   N10   S    
C63   H9    S    
C9    C10   A    
H30   N7    S    
C52   C59   S    
C54   P7    S    
C32   H16   S    
C1    N11   S    
C16   H21   S    
C47   C57   S    
C62   C63   S    
C17   C22   A    
C14   H58   S    
C27   C29   A    
Ba2   O20   S    
C45   C56   S    
C2    C64   A    
Ba1   P1    S    
C34   N10   S    
C14   C15   A    
C27   H14   S    
C10   C17   A    
Ba1   O15   S    
C31   C33   A    
H43   N10   S    
C59   H23   S    
H62   N3    S    
C12   H73   S    
C4    N13   S    
C8    C9    A    
C63   H8    S    
C23   C34   S    
H41   N9    S    
C49   H72   S    
C54   C58   A    
C2    C3    A    
C18   C19   A    
C23   H42   S    
C24   C27   A    
C6    C8    A    
C47   C48   A    
C25   C26   A    
C53   P5    S    
C20   C21   A    
C52   H32   S    
Ba2   O24   S    
C52   H12   S    
C19   C20   A    
H70   N6    S    
C3    N14   S    
C56   H7    S    
O3    P5    S    
O21   P8    S    
