data_mof_unit_60665.cif
_audit_creation_date              2012-12-10T21:34:11-0500
_audit_creation_method            fapswitch 2.2
_symmetry_space_group_name_H-M    P1
_symmetry_Int_Tables_number       1
_space_group_crystal_system       triclinic
_cell_length_a                    13.608348
_cell_length_b                    16.145368
_cell_length_c                    16.85317
_cell_angle_alpha                 87.982883
_cell_angle_beta                  89.945356
_cell_angle_gamma                 95.284368
_cell_volume                      3684.78506948

loop_
_atom_site_label
_atom_site_type_symbol
_atom_type_description
_atom_site_fract_x
_atom_site_fract_y
_atom_site_fract_z
_atom_type_partial_charge
C1    C     C_R   0.500424 0.510798 0.347581 1.020586
C2    C     C_R   0.545557 0.855780 0.464886 -0.276367
C3    C     C_R   0.520722 0.110894 0.483425 0.270438
C4    C     C_R   0.479277 0.889106 0.516575 0.270452
C5    C     C_R   0.581877 0.166884 0.435463 -0.257207
C6    C     C_R   0.418125 0.833115 0.564539 -0.257233
C7    C     C_R   0.576317 0.253169 0.439699 -0.033576
C8    C     C_R   0.423686 0.746831 0.560304 -0.033618
C9    C     C_R   0.685188 0.515318 0.500599 0.937239
C10   C     C_R   0.314811 0.484682 0.499401 0.937245
C11   C     C_1   0.211276 0.472476 0.498998 -0.066031
C12   C     C_R   0.499574 0.489202 0.652416 1.020710
C13   C     C_1   0.788724 0.527524 0.501005 -0.066052
C14   C     C_2   0.019669 0.463970 0.498768 -0.118924
C15   C     C_2   0.980331 0.536029 0.501243 -0.118915
C16   C     C_1   0.876414 0.534591 0.501223 0.069608
C17   C     C_1   0.123586 0.465408 0.498785 0.069618
C18   C     C_R   0.499084 0.515099 0.262117 -0.274509
C19   C     C_R   0.500871 0.484895 0.737877 -0.274437
C20   C     C_R   0.571600 0.477021 0.220615 0.267959
C21   C     C_R   0.428238 0.522849 0.779357 0.267917
C22   C     C_R   0.559653 0.464265 0.139760 0.359761
C23   C     C_R   0.406597 0.531699 0.141884 -0.207435
C24   C     C_R   0.440107 0.535609 0.860219 0.359805
C25   C     C_R   0.476934 0.492503 0.100703 0.109512
C26   C     C_R   0.522879 0.507501 0.899300 0.109504
C27   C     C_R   0.593338 0.468434 0.858134 -0.207349
C28   C     C_R   0.417179 0.543543 0.222566 0.319147
C29   C     C_R   0.582827 0.456584 0.777449 0.319077
C30   C     C_R   0.451013 0.230698 0.537648 0.508441
C31   C     C_R   0.548984 0.769302 0.462350 0.508502
C32   C     C_R   0.454439 0.144220 0.535112 -0.276378
Cl1   Cl    Cl    0.322741 0.555307 0.729956 -0.508763
Cl2   Cl    Cl    0.677058 0.444421 0.269971 -0.508814
Cl3   Cl    Cl    0.354715 0.590887 0.911243 -0.451481
Cl4   Cl    Cl    0.644885 0.408849 0.088702 -0.451466
Cl5   Cl    Cl    0.322959 0.588627 0.272982 -0.531382
Cl6   Cl    Cl    0.677186 0.411668 0.727051 -0.531452
Cl7   Cl    Cl    0.633208 0.731380 0.397011 -0.522375
Cl8   Cl    Cl    0.366788 0.268620 0.602985 -0.522338
H1    H     H_    0.025375 0.595147 0.503253 0.179287
H2    H     H_    0.376140 0.704377 0.597561 0.199468
H3    H     H_    0.974625 0.404852 0.496758 0.179282
H4    H     H_    0.343246 0.552733 0.110859 0.242068
H5    H     H_    0.656732 0.447506 0.889174 0.242064
H6    H     H_    0.594516 0.896054 0.426636 0.199789
H7    H     H_    0.405478 0.103947 0.573361 0.199790
H8    H     H_    0.633810 0.143764 0.394871 0.187935
H9    H     H_    0.366194 0.856235 0.605133 0.187917
H10   H     H_    0.623866 0.295622 0.402444 0.199542
N1    N     N_2   0.463735 0.483563 0.019102 -0.065233
N2    N     N_2   0.536044 0.516458 0.980904 -0.065395
N3    N     N_R   0.511670 0.283920 0.490320 -0.130688
N4    N     N_R   0.488330 0.716080 0.509680 -0.130666
N5    N     N_2   0.528372 0.023088 0.477664 -0.144325
N6    N     N_2   0.471627 0.976912 0.522337 -0.144329
O1    O     O_R   0.495820 0.577170 0.387320 -0.542179
O2    O     O_R   0.504180 0.422830 0.612680 -0.542222
O3    O     O_R   0.503320 0.438390 0.381110 -0.617267
O4    O     O_R   0.496680 0.561610 0.618890 -0.617325
O5    O     O_R   0.636060 0.579370 0.503570 -0.584917
O6    O     O_R   0.363940 0.420630 0.496430 -0.584921
O7    O     O_R   0.643560 0.440600 0.497360 -0.602610
O8    O     O_R   0.356440 0.559400 0.502640 -0.602581
Zn1   Zn    Zn3+2 0.495000 0.592660 0.504150 1.064052
Zn2   Zn    Zn3+2 0.505000 0.407340 0.495850 1.064041

loop_
_geom_bond_atom_site_label_1
_geom_bond_atom_site_label_2
_ccdc_geom_bond_type
C29   Cl6   S    
C2    C4    A    
N5    N6    D    
C25   N1    S    
C26   N2    S    
C27   C29   A    
C22   Cl4   S    
C2    C31   A    
C3    C5    A    
C20   Cl2   S    
O8    Zn1   S    
C27   H5    S    
C23   C25   A    
C1    C18   S    
O7    Zn2   S    
C30   Cl8   S    
C12   O2    A    
C31   N4    A    
N4    Zn1   S    
C23   C28   A    
C2    H6    S    
C30   C32   A    
N3    Zn2   S    
C14   C17   S    
C26   C27   A    
C10   O6    A    
C28   Cl5   S    
C9    O5    A    
C15   C16   S    
C12   C19   S    
C4    C6    A    
C5    H8    S    
C8    H2    S    
O4    Zn1   S    
C18   C20   A    
C1    O3    A    
O3    Zn2   S    
C3    C32   A    
C32   H7    S    
C10   O8    A    
C13   C16   T    
C24   Cl3   S    
C21   Cl1   S    
C10   C11   S    
C20   C22   A    
N1    N2    D    
C19   C29   A    
O5    Zn1   S    
O6    Zn2   S    
C18   C28   A    
C15   H1    S    
C30   N3    A    
O1    Zn1   S    
C21   C24   A    
C8    N4    A    
C12   O4    A    
C5    C7    A    
C9    C13   S    
C14   C15   D    
C11   C17   T    
C6    C8    A    
C7    N3    A    
C19   C21   A    
C9    O7    A    
C3    N5    S    
O2    Zn2   S    
C4    N6    S    
C6    H9    S    
C24   C26   A    
C7    H10   S    
C31   Cl7   S    
C14   H3    S    
C23   H4    S    
C22   C25   A    
C1    O1    A    
