data_mof_unit_16418.cif
_audit_creation_date              2012-12-10T17:37:50-0500
_audit_creation_method            fapswitch 2.2
_symmetry_space_group_name_H-M    P1
_symmetry_Int_Tables_number       1
_space_group_crystal_system       triclinic
_cell_length_a                    12.320842
_cell_length_b                    13.189939
_cell_length_c                    17.329362
_cell_angle_alpha                 105.04977
_cell_angle_beta                  74.686116
_cell_angle_gamma                 116.676279
_cell_volume                      2394.35488264

loop_
_atom_site_label
_atom_site_type_symbol
_atom_type_description
_atom_site_fract_x
_atom_site_fract_y
_atom_site_fract_z
_atom_type_partial_charge
C1    C     C_R   0.144397 0.713787 0.509069 0.806659
C2    C     C_R   0.012211 0.484030 0.261736 -0.025081
C3    C     C_R   0.725221 0.983093 0.374361 -0.271138
C4    C     C_R   0.988138 0.504354 0.652186 0.784955
C5    C     C_R   0.775220 0.165326 0.465046 -0.155537
C6    C     C_R   0.182205 0.912313 0.577562 -0.233410
C7    C     C_R   0.260879 0.025543 0.601341 0.505558
C8    C     C_R   0.388076 0.061124 0.570902 -0.310317
C9    C     C_R   0.434839 0.988153 0.510263 0.047667
C10   C     C_R   0.350166 0.877447 0.480645 0.076537
C11   C     C_R   0.562548 0.022075 0.476775 0.108340
C12   C     C_R   0.885693 0.521715 0.796269 -0.194440
C13   C     C_R   0.601152 0.948686 0.410947 0.089578
C14   C     C_R   0.514969 0.843994 0.379250 -0.217087
C15   C     C_R   0.391288 0.809715 0.412547 -0.168402
C16   C     C_R   0.856153 0.286391 0.486012 0.820275
C17   C     C_R   0.653295 0.127566 0.505427 -0.323322
C18   C     C_R   0.811147 0.093653 0.397611 0.465450
C19   C     C_R   0.225736 0.836953 0.519601 -0.183835
C20   C     C_R   0.642849 0.676153 0.628498 -0.293833
C21   C     C_R   0.249912 0.351199 0.390496 0.086356
C22   C     C_R   0.348445 0.318749 0.367007 -0.257035
C23   C     C_R   0.909316 0.466382 0.155021 -0.159033
C24   C     C_R   0.448612 0.375267 0.407877 -0.206505
C25   C     C_R   0.451367 0.465457 0.473341 -0.001790
C26   C     C_R   0.347663 0.495367 0.495472 0.286948
C27   C     C_R   0.552252 0.526495 0.517885 -0.043754
C28   C     C_R   0.011318 0.494653 0.347778 0.762576
C29   C     C_R   0.547099 0.615838 0.583132 0.177398
C30   C     C_R   0.445544 0.643395 0.603778 -0.285871
C31   C     C_R   0.348022 0.584195 0.561356 -0.194338
C32   C     C_R   0.658274 0.502542 0.501511 0.011585
C33   C     C_R   0.743784 0.647987 0.609556 0.071522
C34   C     C_R   0.909858 0.478029 0.236776 -0.208946
C35   C     C_R   0.984100 0.508908 0.737910 -0.024004
C36   C     C_R   0.079881 0.501307 0.762040 -0.210508
C37   C     C_R   0.076301 0.504253 0.843172 -0.144793
C38   C     C_R   0.975887 0.513378 0.901258 0.192762
C39   C     C_R   0.882005 0.524354 0.877630 -0.171899
C40   C     C_3   0.932005 0.186407 0.290467 0.071445
C41   C     C_3   0.904100 0.100613 0.211886 -0.382104
C42   C     C_3   0.931094 0.162048 0.141146 -0.889169
C43   C     C_3   0.263177 0.209592 0.653141 0.066404
C44   C     C_3   0.336521 0.283469 0.721523 -0.357804
C45   C     C_R   0.112972 0.475652 0.203750 -0.214490
C46   C     C_3   0.407022 0.408513 0.709102 -0.913986
C47   C     C_R   0.112492 0.464342 0.121803 -0.175265
C48   C     C_R   0.011879 0.462002 0.097287 0.197294
C49   C     C_2   0.967468 0.513264 0.987068 -0.229719
C50   C     C_2   0.017087 0.457337 0.011253 -0.230001
Cu1   Cu    Cu3+1 0.900140 0.524980 0.518800 0.933670
Cu2   Cu    Cu3+1 0.099860 0.475020 0.481200 0.932815
H1    H     H_    0.158023 0.493605 0.718381 0.150478
H2    H     H_    0.829705 0.481344 0.280263 0.150787
H3    H     H_    0.440660 0.711071 0.654056 0.155797
H4    H     H_    0.639322 0.744371 0.678593 0.139770
H5    H     H_    0.670197 0.436462 0.452883 0.122401
H6    H     H_    0.172763 0.306541 0.358607 0.148644
H7    H     H_    0.522283 0.346565 0.387059 0.134802
H8    H     H_    0.347112 0.249411 0.316916 0.149261
H9    H     H_    0.274224 0.610976 0.583030 0.207293
H10   H     H_    0.192312 0.478599 0.221648 0.149036
H11   H     H_    0.067476 0.411338 0.967563 0.145835
H12   H     H_    0.191602 0.459758 0.077655 0.123915
H13   H     H_    0.804804 0.532953 0.922007 0.122305
H14   H     H_    0.828458 0.460214 0.137175 0.126003
H15   H     H_    0.811194 0.528656 0.779104 0.152051
H16   H     H_    0.917515 0.559336 0.031276 0.146373
H17   H     H_    0.152931 0.500762 0.860030 0.126096
H18   H     H_    0.026750 0.253357 0.277993 0.166347
H19   H     H_    0.869438 0.232141 0.308650 0.105752
H20   H     H_    0.961228 0.050386 0.197148 0.231428
H21   H     H_    0.805377 0.040174 0.219778 0.208387
H22   H     H_    0.876269 0.214251 0.155020 0.266493
H23   H     H_    0.542993 0.789103 0.327302 0.140299
H24   H     H_    0.906144 0.097605 0.085872 0.252632
H25   H     H_    0.030747 0.218810 0.128798 0.258350
H26   H     H_    0.186337 0.235058 0.659198 0.167237
H27   H     H_    0.319733 0.227521 0.592353 0.134068
H28   H     H_    0.272067 0.279023 0.780386 0.221822
H29   H     H_    0.403138 0.249842 0.724482 0.220589
H30   H     H_    0.478653 0.414687 0.653930 0.268109
H31   H     H_    0.453134 0.460930 0.761941 0.252727
H32   H     H_    0.343404 0.443392 0.702781 0.256569
H33   H     H_    0.754122 0.926943 0.323938 0.146672
H34   H     H_    0.631835 0.184771 0.557747 0.166451
H35   H     H_    0.086567 0.882033 0.607103 0.170088
H36   H     H_    0.447673 0.146072 0.595070 0.137011
H37   H     H_    0.327995 0.730661 0.382524 0.163517
H38   H     H_    0.818010 0.694334 0.644303 0.123459
N1    N     N_R   0.749710 0.562810 0.547300 -0.179915
N2    N     N_R   0.249640 0.437820 0.453210 -0.211935
O1    O     O_R   0.025490 0.682370 0.523640 -0.575869
O2    O     O_3   0.210675 0.092443 0.662353 -0.616538
O3    O     O_R   0.194150 0.640180 0.491890 -0.600648
O4    O     O_R   0.905900 0.523560 0.631310 -0.587982
O5    O     O_R   0.074570 0.481370 0.599560 -0.606592
O6    O     O_R   0.805850 0.359820 0.508110 -0.594276
O7    O     O_R   0.974510 0.317630 0.476360 -0.547105
O8    O     O_R   0.925430 0.518630 0.400440 -0.584272
O9    O     O_R   0.094100 0.476440 0.368690 -0.606985
O10   O     O_3   0.928576 0.131896 0.352269 -0.615114

loop_
_geom_bond_atom_site_label_1
_geom_bond_atom_site_label_2
_ccdc_geom_bond_type
C40   H19   S    
C37   H17   S    
C27   C29   A    
C41   C42   S    
C31   H9    S    
C35   C36   A    
C20   H4    S    
C28   O8    A    
C7    C8    A    
C38   C49   S    
C43   H26   S    
C6    C19   A    
C29   C30   A    
C40   H18   S    
Cu2   O3    S    
C23   H14   S    
C21   C22   A    
C36   C37   A    
C49   H16   S    
C10   C15   A    
C33   N1    A    
C22   H8    S    
C30   C31   A    
C32   N1    A    
C3    H33   S    
C43   H27   S    
C45   H10   S    
C43   O2    S    
C3    C18   A    
C18   O10   S    
C5    C16   S    
C36   H1    S    
Cu1   N1    S    
C4    O4    A    
C28   O9    A    
C8    C9    A    
C9    C10   A    
C3    C13   A    
Cu1   O4    S    
C2    C34   A    
Cu1   O6    S    
C48   C50   S    
C4    C35   S    
C26   C31   A    
C46   H30   S    
C13   C14   A    
C50   H11   S    
C39   H13   S    
C32   H5    S    
C44   C46   S    
C20   C29   A    
C45   C47   A    
C2    C45   A    
C12   H15   S    
Cu2   O9    S    
C42   H22   S    
C1    C19   S    
Cu1   Cu2   S    
C44   H28   S    
C24   C25   A    
C44   H29   S    
C47   H12   S    
C5    C18   A    
C25   C26   A    
C41   H21   S    
C6    H35   S    
C17   H34   S    
C8    H36   S    
C43   C44   S    
C37   C38   A    
C15   H37   S    
Cu2   O5    S    
C47   C48   A    
C10   C19   A    
C1    O3    A    
C23   C34   A    
C12   C35   A    
C9    C11   A    
Cu1   O1    S    
C41   H20   S    
C46   H32   S    
C20   C33   A    
C40   C41   S    
C34   H2    S    
C22   C24   A    
Cu2   N2    S    
Cu1   O8    S    
C7    O2    S    
C11   C17   A    
C23   C48   A    
C27   C32   A    
C16   O7    A    
C6    C7    A    
C25   C27   A    
C30   H3    S    
Cu2   O7    S    
C42   H24   S    
C14   H23   S    
C12   C39   A    
C21   H6    S    
C33   H38   S    
C11   C13   A    
C16   O6    A    
C38   C39   A    
C24   H7    S    
C40   O10   S    
C46   H31   S    
C5    C17   A    
C42   H25   S    
C1    O1    A    
C49   C50   D    
C14   C15   A    
C2    C28   S    
C4    O5    A    
C26   N2    A    
C21   N2    A    
