data_mof_unit_66648.cif
_audit_creation_date              2013-03-05T15:47:58-0500
_audit_creation_method            fapswitch 2.2
_symmetry_space_group_name_H-M    P1
_symmetry_Int_Tables_number       1
_space_group_crystal_system       triclinic
_cell_length_a                    26.883931
_cell_length_b                    7.435093
_cell_length_c                    11.877927
_cell_angle_alpha                 89.986123
_cell_angle_beta                  101.819812
_cell_angle_gamma                 89.970367
_cell_volume                      2323.87200352

loop_
_atom_site_label
_atom_site_type_symbol
_atom_site_description
_atom_site_fract_x
_atom_site_fract_y
_atom_site_fract_z
_atom_type_partial_charge
O1    O     O_R   0.437360 0.505910 0.042120 -0.567712
O2    O     O_R   0.562640 0.005910 0.957880 -0.579099
O3    O     O_R   0.542480 0.176660 0.157100 -0.587836
O4    O     O_R   0.457520 0.676660 0.842900 -0.581540
C1    C     C_R   0.555404 0.344506 0.196568 1.048916
C2    C     C_R   0.444838 0.844689 0.803134 1.068627
O5    O     O_R   0.436520 0.176250 0.054800 -0.564711
O6    O     O_R   0.563480 0.676250 0.945200 -0.568071
O7    O     O_R   0.455920 0.005040 0.854840 -0.545848
O8    O     O_R   0.544080 0.505040 0.145160 -0.577327
C3    C     C_R   0.418079 0.343804 0.064549 1.070650
C4    C     C_R   0.581886 0.843661 0.935471 1.069857
O9    O     O_3   0.506490 0.338900 0.934520 -0.288000
O10   O     O_3   0.493510 0.838900 0.065480 -0.294506
V1    V     V_3+5 0.498800 0.064400 0.012150 1.305438
V2    V     V_3+5 0.501200 0.564400 0.987850 1.309372
C5    C     C_R   0.678982 0.801653 0.743043 0.423489
C6    C     C_R   0.320967 0.304202 0.257427 0.411194
C7    C     C_R   0.630215 0.845274 0.893157 -0.319831
C8    C     C_R   0.369684 0.346090 0.106890 -0.305635
C9    C     C_R   0.855753 0.916720 0.198059 0.576600
C10   C     C_R   0.143954 0.413890 0.801721 0.625550
C11   C     C_R   0.808830 0.909678 0.229865 -0.149045
C12   C     C_R   0.190867 0.406187 0.769746 -0.140093
C13   C     C_R   0.765371 0.857515 0.153109 0.522767
C14   C     C_R   0.234510 0.356741 0.847186 0.512791
C15   C     C_R   0.767608 0.839147 0.034445 0.033351
C16   C     C_R   0.232284 0.341214 0.966113 0.009257
C17   C     C_R   0.816849 0.827980 0.004424 -0.022822
C18   C     C_R   0.183064 0.330434 0.996218 -0.027973
C19   C     C_R   0.722782 0.834676 0.945460 0.121645
C20   C     C_R   0.277079 0.338352 0.055218 0.117567
C21   C     C_R   0.725783 0.801058 0.828284 -0.158260
C22   C     C_R   0.274081 0.306417 0.172616 -0.152269
C23   C     C_R   0.775131 0.774046 0.804080 0.661437
C24   C     C_R   0.224700 0.281645 0.197260 0.669986
C25   C     C_R   0.818985 0.783995 0.891282 -0.145777
C26   C     C_R   0.180887 0.290121 0.109909 -0.134685
C27   C     C_R   0.675214 0.885674 0.968609 -0.085735
C28   C     C_R   0.324686 0.387893 0.031705 -0.087802
C29   C     C_R   0.632376 0.793643 0.781112 0.322566
C30   C     C_R   0.367444 0.294231 0.218864 0.339604
C31   C     C_R   0.862639 0.865817 0.087591 -0.320266
C32   C     C_R   0.137264 0.365443 0.912619 -0.279998
H1    H     H_    0.672261 0.953472 0.046613 0.209906
H2    H     H_    0.327610 0.455261 0.953552 0.212522
H3    H     H_    0.806827 0.934969 0.318764 0.176026
H4    H     H_    0.192798 0.430315 0.680682 0.176895
H5    H     H_    0.855516 0.765471 0.867805 0.133471
H6    H     H_    0.144355 0.271881 0.133424 0.129998
C33   C     C_R   0.096693 0.861828 0.306711 -0.347041
C34   C     C_R   0.903520 0.360889 0.693120 -0.391663
C35   C     C_R   0.412210 0.853501 0.687461 -0.381682
C36   C     C_R   0.588032 0.353274 0.312198 -0.387185
C37   C     C_R   0.114748 0.927173 0.508451 0.460581
C38   C     C_R   0.885824 0.423119 0.491239 0.546798
C39   C     C_R   0.079859 0.888357 0.408809 0.294824
C40   C     C_R   0.920373 0.381466 0.590630 0.433126
C41   C     C_R   0.149695 0.861729 0.314821 -0.072800
C42   C     C_R   0.850522 0.362510 0.684791 -0.090638
C43   C     C_R   0.185139 0.840099 0.422759 0.147307
C44   C     C_R   0.815170 0.340402 0.576661 0.160251
C45   C     C_R   0.164289 0.861190 0.522856 -0.280873
C46   C     C_R   0.836131 0.359924 0.476690 -0.346194
C47   C     C_R   0.239836 0.823480 0.436265 -0.041997
C48   C     C_R   0.760505 0.325413 0.562880 -0.025868
C49   C     C_R   0.271011 0.806883 0.552487 -0.116028
C50   C     C_R   0.729376 0.309075 0.446642 -0.131404
C51   C     C_R   0.245592 0.798147 0.648448 0.382540
C52   C     C_R   0.754861 0.299938 0.350593 0.392829
C53   C     C_R   0.193247 0.834394 0.634767 0.451099
C54   C     C_R   0.807280 0.334666 0.364677 0.448743
C55   C     C_R   0.265984 0.825549 0.340847 0.614716
C56   C     C_R   0.734509 0.329564 0.658431 0.600362
C57   C     C_R   0.318310 0.848979 0.361472 -0.186433
C58   C     C_R   0.682291 0.355056 0.637943 -0.200767
C59   C     C_R   0.348066 0.845192 0.470656 0.064147
C60   C     C_R   0.652456 0.349889 0.528740 0.085541
C61   C     C_R   0.326349 0.809678 0.566842 0.241751
C62   C     C_R   0.674091 0.312757 0.432500 0.239426
C63   C     C_R   0.399659 0.891459 0.483898 -0.060819
C64   C     C_R   0.600776 0.395029 0.515544 -0.066835
C65   C     C_R   0.429293 0.923369 0.592589 0.550897
C66   C     C_R   0.570791 0.423146 0.406801 0.487523
C67   C     C_R   0.362579 0.785953 0.671597 -0.105554
C68   C     C_R   0.637903 0.288120 0.327853 -0.109113
H7    H     H_    0.355721 0.711570 0.742761 0.227029
H8    H     H_    0.645067 0.215665 0.256288 0.223988
H9    H     H_    0.336914 0.869694 0.289598 0.174771
H10   H     H_    0.663829 0.376005 0.710027 0.162586
H11   H     H_    0.160835 0.899670 0.237595 0.199615
H12   H     H_    0.839276 0.399625 0.762104 0.194246
H13   H     H_    0.415302 0.919690 0.409225 0.201882
H14   H     H_    0.585192 0.424375 0.590137 0.181984
O11   O     O_R   0.955980 0.206520 0.854760 -0.570024
O12   O     O_R   0.044020 0.706520 0.145240 -0.572581
O13   O     O_R   0.063490 0.536770 0.945200 -0.553443
O14   O     O_R   0.936510 0.036770 0.054800 -0.573977
C69   C     C_R   0.084141 0.369554 0.941398 0.985970
C70   C     C_R   0.915832 0.869619 0.058740 0.990121
O15   O     O_R   0.957530 0.536190 0.842880 -0.558415
O16   O     O_R   0.042470 0.036190 0.157120 -0.559386
O17   O     O_R   0.937350 0.707210 0.042130 -0.565112
O18   O     O_R   0.062650 0.207210 0.957870 -0.565510
C71   C     C_R   0.940303 0.368705 0.807420 1.018771
C72   C     C_R   0.059893 0.868810 0.192295 1.019933
O19   O     O_3   0.993540 0.373870 0.065440 -0.282600
O20   O     O_3   0.006460 0.873870 0.934560 -0.276535
V3    V     V_3+5 0.001200 0.648440 0.987860 1.329894
V4    V     V_3+5 0.998800 0.148440 0.012140 1.322857
Cl1   Cl    Cl    0.575482 0.732130 0.687230 -0.521092
Cl2   Cl    Cl    0.424026 0.227594 0.311663 -0.508974
S1    S     S_3+6 0.479854 0.080169 0.604133 0.066877
O21   O     O_2   0.505486 0.060400 0.503818 -0.173051
O22   O     O_2   0.456844 0.264587 0.601001 -0.197282
O23   O     O_3   0.523705 0.062116 0.726023 -0.522036
H15   H     H_    0.549068 0.156698 0.720644 0.373474
S2    S     S_3+6 0.519118 0.575671 0.393752 0.076053
O24   O     O_2   0.479894 0.551289 0.285393 -0.279766
O25   O     O_2   0.493949 0.557951 0.494943 -0.151826
O26   O     O_3   0.543040 0.784118 0.393051 -0.401414
H16   H     H_    0.560196 0.786369 0.326746 0.338074
Cl3   Cl    Cl    0.107278 0.140048 0.566345 -0.462309
Cl4   Cl    Cl    0.893916 0.637437 0.435382 -0.397155
S3    S     S_3+6 0.016025 0.923310 0.405306 0.103847
O27   O     O_2   0.003397 0.099724 0.344617 -0.157623
O28   O     O_2   0.987583 0.771549 0.337292 -0.223737
O29   O     O_3   0.000762 0.934657 0.535380 -0.354911
H17   H     H_    0.028811 0.874411 0.588399 0.391090
S4    S     S_3+6 0.983753 0.413184 0.591841 0.099452
O30   O     O_2   0.996304 0.592383 0.648490 -0.245239
O31   O     O_2   0.012926 0.264300 0.661492 -0.213196
O32   O     O_3   0.995330 0.416217 0.458072 -0.379012
H18   H     H_    0.030540 0.461555 0.466911 0.403479
Cl5   Cl    Cl    0.276767 0.763603 0.792615 -0.563937
Cl6   Cl    Cl    0.723990 0.266904 0.205901 -0.510357
S5    S     S_3+6 0.241290 0.773526 0.193578 -0.089402
O33   O     O_2   0.225534 0.940730 0.126236 -0.387692
O34   O     O_2   0.282167 0.689133 0.142475 -0.295831
O35   O     O_3   0.191426 0.634734 0.177782 -0.576405
H19   H     H_    0.169431 0.667755 0.103064 0.362427
S6    S     S_3+6 0.759119 0.268035 0.804292 -0.065636
O36   O     O_2   0.776394 0.428354 0.877879 -0.352197
O37   O     O_2   0.717791 0.181874 0.852876 -0.280174
O38   O     O_3   0.807749 0.124887 0.812498 -0.563221
H20   H     H_    0.832021 0.155863 0.884400 0.338349
Cl7   Cl    Cl    0.787795 0.720390 0.669237 -0.614455
Cl8   Cl    Cl    0.212048 0.223453 0.331523 -0.615058
S7    S     S_3+6 0.674063 0.862776 0.595185 0.015602
O39   O     O_2   0.670527 0.701187 0.519702 -0.297615
O40   O     O_2   0.627007 0.973455 0.555514 -0.223739
O41   O     O_3   0.723543 0.982889 0.573767 -0.513241
H21   H     H_    0.727832 0.950732 0.495336 0.405564
S8    S     S_3+6 0.326235 0.359991 0.406151 0.023226
O42   O     O_2   0.329015 0.195508 0.478878 -0.292271
O43   O     O_2   0.373771 0.467216 0.447535 -0.203025
O44   O     O_3   0.277280 0.480988 0.429733 -0.524130
H22   H     H_    0.273268 0.447471 0.508152 0.407006
Cl9   Cl    Cl    0.902946 0.998920 0.304053 -0.412419
Cl10  Cl    Cl    0.096694 0.499664 0.697188 -0.501172
S9    S     S_3+6 0.717325 0.761855 0.219355 -0.023979
O45   O     O_2   0.687560 0.621786 0.142907 -0.252881
O46   O     O_2   0.742333 0.678128 0.331667 -0.261486
O47   O     O_3   0.676845 0.917177 0.249294 -0.584641
H23   H     H_    0.652570 0.849947 0.285900 0.385685
S10   S     S_3+6 0.282799 0.259691 0.782169 -0.021598
O48   O     O_2   0.311991 0.119301 0.859553 -0.253453
O49   O     O_2   0.258091 0.175757 0.669769 -0.258762
O50   O     O_3   0.323825 0.413292 0.752636 -0.575418
H24   H     H_    0.348285 0.344743 0.717263 0.402012
S11   S     S_3+6 0.165566 0.870345 0.761143 0.044054
O51   O     O_2   0.180503 0.053328 0.803065 -0.286978
O52   O     O_2   0.108631 0.865167 0.737003 -0.210018
O53   O     O_3   0.186743 0.733980 0.873302 -0.542969
H25   H     H_    0.206701 0.810219 0.934152 0.440501
S12   S     S_3+6 0.835406 0.372006 0.239037 0.053221
O54   O     O_2   0.820918 0.555899 0.198501 -0.265558
O55   O     O_2   0.892445 0.363908 0.264581 -0.193068
O56   O     O_3   0.813551 0.241154 0.124735 -0.496060
H26   H     H_    0.834624 0.273112 0.068465 0.377211

loop_
_geom_bond_atom_site_label_1
_geom_bond_atom_site_label_2
_geom_bond_distance
_ccdc_geom_bond_type
C50   C62   1.461389 A    
C48   C50   1.465679 A    
S11   O51   1.476195 D    
O44   H22   0.991162 S    
C64   H14   1.077139 S    
C15   C17   1.442141 A    
C9    Cl9   1.707358 S    
O50   H24   0.990800 S    
C65   S1    1.775086 S    
O1    C3    1.359932 A    
O2    C4    1.360052 A    
O29   H17   0.985310 S    
S9    O47   1.673881 S    
C2    O7    1.346521 A    
C36   C66   1.400281 A    
S9    O45   1.501038 D    
C47   C55   1.450968 A    
S10   O49   1.500209 D    
O23   H15   0.990902 S    
C53   S11   1.826502 S    
O5    C3    1.354291 A    
S5    O34   1.497540 D    
S3    O27   1.501384 D    
C56   C58   1.387658 A    
O14   V4    2.024660 S    
C38   Cl4   1.756607 S    
O47   H23   0.990606 S    
C23   C25   1.402904 A    
C12   C14   1.383893 A    
S7    O40   1.501351 D    
C39   S3    1.727579 S    
C8    C28   1.383622 A    
C32   C69   1.535357 S    
C60   C62   1.411966 A    
O15   V3    2.052761 S    
C48   C56   1.449975 A    
C63   H13   1.077237 S    
O20   V3    1.807346 S    
C18   C26   1.396097 A    
C42   C44   1.442237 A    
C51   C53   1.408998 A    
C30   Cl2   1.756805 S    
O53   H25   0.986532 S    
C62   C68   1.424759 A    
C34   C42   1.407918 A    
S9    O46   1.500300 D    
C9    C31   1.413819 A    
C24   Cl8   1.751636 S    
S12   O56   1.676141 S    
C10   C32   1.412122 A    
C13   S9    1.791784 S    
C47   C49   1.466007 A    
C37   C45   1.396332 A    
S3    O29   1.679968 S    
C44   C46   1.422242 A    
C19   C21   1.432572 A    
C33   C39   1.392574 A    
C38   C40   1.379352 A    
O11   C71   1.360136 A    
S8    O43   1.501409 D    
C6    S8    1.791843 S    
C27   H1    1.071998 S    
S1    O23   1.674645 S    
C46   C54   1.408746 A    
C69   O18   1.369662 A    
C56   S6    1.782804 S    
O6    V2    2.024927 S    
C17   C31   1.439690 A    
C52   Cl6   1.766045 S    
O19   V3    2.266351 S    
S6    O38   1.672652 S    
C18   C32   1.438242 A    
C5    C21   1.444398 A    
S2    O24   1.498551 D    
C63   C65   1.391659 A    
O38   H20   0.990030 S    
C5    C29   1.417794 A    
C67   H7    1.057394 S    
C9    C11   1.389990 A    
O15   C71   1.365103 A    
C34   C40   1.391610 A    
S11   O53   1.677774 S    
C37   Cl3   1.753590 S    
C3    C8    1.487945 S    
C41   C43   1.441117 A    
C11   H3    1.084726 S    
C44   C48   1.449330 A    
C68   H8    1.056911 S    
C15   C19   1.431358 A    
C12   H4    1.084628 S    
C1    C36   1.471919 S    
C16   C20   1.431325 A    
C49   C61   1.462488 A    
O35   H19   0.991134 S    
S8    O44   1.664276 S    
O4    C2    1.354040 A    
O13   C69   1.365862 A    
S7    O41   1.664790 S    
C36   C68   1.401437 A    
C40   S4    1.717426 S    
C41   H11   1.059811 S    
C52   C54   1.408696 A    
C70   O17   1.370350 A    
C49   C51   1.445509 A    
S2    O26   1.678941 S    
C20   C22   1.432916 A    
O4    V2    2.051810 S    
S4    O31   1.502583 D    
C43   C47   1.451388 A    
O13   V3    2.024050 S    
C60   C64   1.406346 A    
C59   C63   1.406436 A    
O6    C4    1.353333 A    
C10   Cl10  1.707387 S    
C43   C45   1.423158 A    
O26   H16   0.990985 S    
C59   C61   1.410372 A    
O1    V2    2.001027 S    
C23   Cl7   1.750412 S    
C31   C70   1.537534 S    
O2    V1    2.000709 S    
C57   C59   1.377511 A    
S8    O42   1.490086 D    
C25   H5    1.083193 S    
C7    C27   1.383208 A    
C50   C52   1.447680 A    
S12   O54   1.474865 D    
C45   C53   1.410135 A    
C34   C71   1.508170 S    
C28   H2    1.071687 S    
C64   C66   1.391040 A    
C37   C39   1.381843 A    
C66   S2    1.774824 S    
O32   H18   0.990100 S    
O19   V4    1.807496 S    
C10   C12   1.390800 A    
O16   V4    2.051928 S    
S4    O32   1.680630 S    
C33   C41   1.408320 A    
C55   C57   1.388655 A    
C2    C35   1.472282 S    
C24   C26   1.402538 A    
C61   C67   1.425214 A    
C20   C28   1.413744 A    
O3    V1    2.052642 S    
S1    O21   1.500843 D    
O12   V3    2.031120 S    
O12   C72   1.361474 A    
C14   S10   1.792312 S    
O10   V1    1.808080 S    
C14   C16   1.430711 A    
C5    S7    1.792436 S    
C58   C60   1.378818 A    
O3    C1    1.353471 A    
O11   V4    2.030674 S    
C8    C30   1.397802 A    
O20   V4    2.266560 S    
C26   H6    1.083248 S    
C13   C15   1.429584 A    
S5    O33   1.491600 D    
O14   C70   1.366411 A    
O17   V3    2.001407 S    
C35   C65   1.400942 A    
C6    C30   1.418073 A    
S4    O30   1.499889 D    
O7    V1    2.033115 S    
C16   C18   1.441908 A    
O8    V2    2.032659 S    
S7    O39   1.490653 D    
O18   V4    2.001727 S    
C38   C46   1.393393 A    
S10   O48   1.501157 D    
C55   S5    1.781875 S    
C6    C22   1.443492 A    
C33   C72   1.509149 S    
S5    O35   1.671995 S    
C4    C7    1.486061 S    
O5    V1    2.024315 S    
C21   C23   1.427956 A    
C19   C27   1.413621 A    
O16   C72   1.364436 A    
C22   C24   1.428770 A    
C54   S12   1.827068 S    
S2    O25   1.501011 D    
C57   H9    1.085173 S    
O56   H26   0.989599 S    
S11   O52   1.498925 D    
C1    O8    1.346590 A    
C11   C13   1.382349 A    
O41   H21   0.991166 S    
S10   O50   1.674324 S    
C51   Cl5   1.764180 S    
C29   Cl1   1.759070 S    
O9    V2    1.808229 S    
C17   C25   1.395737 A    
S3    O28   1.502920 D    
S6    O36   1.495092 D    
C35   C67   1.402064 A    
C42   H12   1.060481 S    
S6    O37   1.497031 D    
C7    C29   1.397793 A    
C58   H10   1.085257 S    
S12   O55   1.502126 D    
S1    O22   1.501268 D    
