data_mof_unit_37320.cif
_audit_creation_date              2012-12-10T18:05:40-0500
_audit_creation_method            fapswitch 2.2
_symmetry_space_group_name_H-M    P1
_symmetry_Int_Tables_number       1
_space_group_crystal_system       triclinic
_cell_length_a                    11.06923
_cell_length_b                    10.846266
_cell_length_c                    9.751345
_cell_angle_alpha                 89.244434
_cell_angle_beta                  91.173798
_cell_angle_gamma                 96.880073
_cell_volume                      1162.00236004

loop_
_atom_site_label
_atom_site_type_symbol
_atom_type_description
_atom_site_fract_x
_atom_site_fract_y
_atom_site_fract_z
_atom_type_partial_charge
C1    C     C_R   0.501411 0.262915 0.500985 0.744325
C2    C     C_R   0.494409 0.736571 0.499538 0.747512
C3    C     C_R   0.871739 0.504336 0.505501 -0.095809
C4    C     C_R   0.128397 0.503165 0.497352 -0.084273
C5    C     C_R   0.938962 0.479083 0.624471 0.011038
C6    C     C_R   0.061364 0.531472 0.379561 0.006310
C7    C     C_R   0.512151 0.066598 0.380375 -0.197084
C8    C     C_R   0.473699 0.931541 0.623437 -0.203137
C9    C     C_R   0.496858 0.938596 0.377889 -0.212181
C10   C     C_R   0.481353 0.060109 0.625280 -0.200152
C11   C     C_R   0.486705 0.870112 0.499954 -0.012795
C12   C     C_R   0.500404 0.128531 0.503059 -0.014365
C13   C     C_R   0.430909 0.408804 0.074975 0.438354
C14   C     C_R   0.573928 0.587922 0.925133 0.419102
C15   C     C_R   0.438554 0.403218 0.926359 0.366442
C16   C     C_R   0.575433 0.586224 0.074756 0.373144
C17   C     C_R   0.262521 0.500058 0.498716 0.757248
C18   C     C_R   0.737436 0.501938 0.501790 0.773247
C19   C     C_R   0.228871 0.636398 0.058958 -0.175374
C20   C     C_R   0.774403 0.361681 0.943495 -0.164221
C21   C     C_R   0.187730 0.637495 0.193093 -0.048506
C22   C     C_R   0.812547 0.367418 0.807826 -0.020102
C23   C     C_R   0.112922 0.534225 0.243638 0.102869
C24   C     C_R   0.887061 0.472640 0.761125 0.115587
C25   C     C_R   0.081413 0.430345 0.162606 -0.128446
C26   C     C_R   0.920014 0.572723 0.847972 -0.142921
C27   C     C_R   0.118480 0.430137 0.028141 0.106157
C28   C     C_R   0.882649 0.567446 0.983022 0.114906
C29   C     C_R   0.193102 0.533927 0.975716 -0.224205
C30   C     C_R   0.811161 0.460220 0.031789 -0.175630
C31   C     C_R   0.935436 0.533200 0.385619 -0.225954
C32   C     C_R   0.064731 0.477512 0.618261 -0.230938
Cu1   Cu    Cu3+1 0.500000 0.500020 0.640660 0.997228
Cu2   Cu    Cu3+1 0.500000 0.499980 0.359340 1.014690
H1    H     H_    0.225303 0.537936 0.872413 0.133793
H2    H     H_    0.780535 0.452470 0.136005 0.163377
H3    H     H_    0.286939 0.715477 0.018758 0.118080
H4    H     H_    0.717585 0.280459 0.980730 0.132548
H5    H     H_    0.212948 0.717941 0.256729 0.118262
H6    H     H_    0.786593 0.289738 0.740429 0.118384
H7    H     H_    0.023197 0.351142 0.203331 0.124556
H8    H     H_    0.976778 0.654239 0.810424 0.124263
H9    H     H_    0.886218 0.555817 0.295051 0.178486
H10   H     H_    0.112398 0.455468 0.709662 0.144517
H11   H     H_    0.532191 0.116699 0.285754 0.138209
H12   H     H_    0.456489 0.880628 0.718236 0.139393
H13   H     H_    0.492887 0.894243 0.280382 0.131206
H14   H     H_    0.472593 0.104983 0.722131 0.192484
N1    N     N_R   0.500030 0.500030 0.852070 -0.266517
N2    N     N_R   0.499970 0.499970 0.147930 -0.267423
O1    O     O_R   0.499990 0.319660 0.618740 -0.544656
O2    O     O_R   0.500010 0.680340 0.381260 -0.573523
O3    O     O_R   0.499990 0.319630 0.381170 -0.559461
O4    O     O_R   0.500010 0.680370 0.618830 -0.572900
O5    O     O_R   0.319650 0.500020 0.618780 -0.612113
O6    O     O_R   0.680350 0.499980 0.381220 -0.556300
O7    O     O_R   0.319640 0.500000 0.381210 -0.529748
O8    O     O_R   0.680360 0.500000 0.618790 -0.531184
O9    O     O_3   0.416412 0.287864 0.864957 -0.598301
C33   C     C_3   0.301052 0.269067 0.799860 -0.182365
H15   H     H_    0.307819 0.238245 0.693195 0.164950
H16   H     H_    0.253567 0.351744 0.795609 0.151164
H17   H     H_    0.245626 0.190503 0.849603 0.154222
O10   O     O_3   0.670893 0.651890 0.146127 -0.551586
C34   C     C_3   0.655365 0.778131 0.157466 -0.211255
H18   H     H_    0.667408 0.803959 0.266606 0.187020
H19   H     H_    0.567079 0.802546 0.115215 0.089485
H20   H     H_    0.730544 0.836373 0.107153 0.161478
C35   C     C_1   0.071191 0.324707 0.947264 0.156500
N3    N     N_1   0.031166 0.238952 0.884551 -0.332548
C36   C     C_1   0.918685 0.673934 0.067419 0.268323
N4    N     N_1   0.948507 0.760261 0.133986 -0.317465
O11   O     O_3   0.342932 0.333810 0.146992 -0.542679
C37   C     C_3   0.351072 0.206123 0.132197 -0.229825
H21   H     H_    0.440232 0.184330 0.094175 0.145249
H22   H     H_    0.334828 0.160854 0.233571 0.171701
H23   H     H_    0.275465 0.163924 0.066320 0.167211
O12   O     O_3   0.670372 0.651595 0.855343 -0.530831
C38   C     C_3   0.660532 0.779411 0.840945 -0.232601
H24   H     H_    0.666912 0.805539 0.731123 0.186210
H25   H     H_    0.576051 0.809060 0.882770 0.096175
H26   H     H_    0.741874 0.832892 0.887891 0.153975

loop_
_geom_bond_atom_site_label_1
_geom_bond_atom_site_label_2
_ccdc_geom_bond_type
Cu1   O5    S    
Cu2   O6    S    
Cu1   O8    S    
C27   C29   A    
O11   C37   S    
C20   C30   A    
C31   H9    S    
C33   H17   S    
C7    H11   S    
C19   C21   A    
C16   N2    A    
C20   C22   A    
C14   N1    A    
Cu1   N1    S    
C14   O12   S    
C3    C18   S    
C33   H16   S    
C1    O3    A    
C19   H3    S    
C18   O8    A    
C34   H19   S    
C37   H23   S    
Cu2   O7    S    
C17   O5    A    
C27   C35   S    
C18   O6    A    
C5    C32   A    
C15   N1    A    
C6    C31   A    
O9    C33   S    
C1    C12   S    
C15   O9    S    
C2    C11   S    
C10   C12   A    
C21   C23   A    
C7    C12   A    
Cu2   N2    S    
C37   H21   S    
C4    C6    A    
C2    O4    A    
C25   H7    S    
C38   H25   S    
O12   C38   S    
C13   N2    A    
C33   H15   S    
C20   H4    S    
C21   H5    S    
C34   H20   S    
C22   H6    S    
Cu1   Cu2   S    
C32   H10   S    
C3    C31   A    
C9    C11   A    
C4    C32   A    
C2    O2    A    
C4    C17   S    
C13   O11   S    
C9    H13   S    
C13   C15   A    
C10   H14   S    
C22   C24   A    
C28   C36   S    
Cu1   O1    S    
C37   H22   S    
C19   C29   A    
C26   H8    S    
Cu1   O4    S    
C7    C9    A    
Cu2   O2    S    
C24   C26   A    
C3    C5    A    
C38   H26   S    
C25   C27   A    
C29   H1    S    
C26   C28   A    
C1    O1    A    
C30   H2    S    
O10   C34   S    
C28   C30   A    
C36   N4    T    
C5    C24   S    
C8    C11   A    
C6    C23   S    
C14   C16   A    
C23   C25   A    
C35   N3    T    
C8    H12   S    
C38   H24   S    
Cu2   O3    S    
C8    C10   A    
C34   H18   S    
C16   O10   S    
C17   O7    A    
