data_mof_unit_34492.cif
_audit_creation_date              2012-12-10T17:47:43-0500
_audit_creation_method            fapswitch 2.2
_symmetry_space_group_name_H-M    P1
_symmetry_Int_Tables_number       1
_space_group_crystal_system       triclinic
_cell_length_a                    10.632774
_cell_length_b                    10.714615
_cell_length_c                    9.889592
_cell_angle_alpha                 88.223732
_cell_angle_beta                  89.894636
_cell_angle_gamma                 91.708053
_cell_volume                      1125.636389

loop_
_atom_site_label
_atom_site_type_symbol
_atom_type_description
_atom_site_fract_x
_atom_site_fract_y
_atom_site_fract_z
_atom_type_partial_charge
C1    C     C_R   0.511633 0.260108 0.502936 0.925399
C2    C     C_3   0.878869 0.502547 0.498764 0.163587
C3    C     C_3   0.931319 0.616629 0.575786 -0.408339
C4    C     C_3   0.929369 0.511575 0.351104 -0.373375
C5    C     C_R   0.481316 0.101236 0.761172 -0.121888
C6    C     C_R   0.417772 0.034836 0.865405 -0.112283
C7    C     C_R   0.353862 0.923436 0.838955 -0.168531
C8    C     C_R   0.365138 0.872024 0.712202 -0.140324
C9    C     C_R   0.440397 0.932977 0.610304 0.102963
C10   C     C_R   0.482641 0.056027 0.627704 0.030700
C11   C     C_R   0.527300 0.126034 0.511338 -0.274733
C12   C     C_R   0.257765 0.500996 0.499814 0.800862
C13   C     C_R   0.565973 0.063829 0.394931 0.406332
C14   C     C_R   0.542398 0.937304 0.388787 -0.318704
C15   C     C_R   0.481351 0.872215 0.495013 -0.196237
C16   C     C_R   0.327409 0.343397 0.145182 -0.116160
C17   C     C_R   0.239919 0.269645 0.077127 -0.208519
C18   C     C_R   0.239815 0.270406 0.937198 -0.204568
C19   C     C_R   0.328057 0.343954 0.864744 -0.185841
C20   C     C_R   0.414809 0.423364 0.930188 0.158393
C21   C     C_R   0.414602 0.423398 0.074871 0.217311
C22   C     C_R   0.581513 0.573458 0.068954 -0.093131
C23   C     C_R   0.489820 0.739195 0.498129 0.895368
C24   C     C_R   0.581441 0.573461 0.925663 -0.099785
C25   C     C_R   0.742348 0.501677 0.499631 0.858019
C26   C     C_3   0.068387 0.380632 0.569530 -0.424232
C27   C     C_3   0.924143 0.380560 0.568763 -0.377987
C28   C     C_3   0.075856 0.616811 0.575162 -0.398898
C29   C     C_3   0.072028 0.509685 0.351221 -0.397876
C30   C     C_3   0.121394 0.502106 0.499011 0.197925
H1    H     H_    0.101845 0.373456 0.675939 0.180853
H2    H     H_    0.898580 0.599442 0.299692 0.165787
H3    H     H_    0.113646 0.704706 0.525266 0.151576
H4    H     H_    0.898481 0.704927 0.527230 0.158093
H5    H     H_    0.534520 0.183529 0.789613 0.190858
H6    H     H_    0.416960 0.070621 0.966480 0.196088
H7    H     H_    0.300280 0.874163 0.918166 0.141614
H8    H     H_    0.317222 0.783296 0.695465 0.142156
H9    H     H_    0.576989 0.888187 0.302728 0.210957
H10   H     H_    0.648005 0.633441 0.120799 0.142030
H11   H     H_    0.101628 0.297503 0.516523 0.156593
H12   H     H_    0.324784 0.333322 0.252429 0.191716
H13   H     H_    0.173413 0.209732 0.133517 0.157572
H14   H     H_    0.173730 0.210573 0.884413 0.160422
H15   H     H_    0.328078 0.333251 0.758129 0.208657
H16   H     H_    0.647867 0.633502 0.869518 0.150540
H17   H     H_    0.887131 0.297706 0.514872 0.199073
H18   H     H_    0.888664 0.372261 0.674760 0.183437
H19   H     H_    0.110509 0.614364 0.681356 0.180404
H20   H     H_    0.896908 0.613028 0.682274 0.184008
H21   H     H_    0.110383 0.595567 0.297566 0.179857
H22   H     H_    0.102482 0.427619 0.294478 0.181491
H23   H     H_    0.892366 0.432118 0.291694 0.234136
N1    N     N_R   0.498810 0.498800 0.142780 -0.114771
N2    N     N_R   0.498760 0.498720 0.857170 -0.127759
O1    O     O_R   0.500000 0.316780 0.614690 -0.663430
O2    O     O_R   0.499990 0.316750 0.385360 -0.560665
O3    O     O_R   0.314800 0.499990 0.614670 -0.651239
O4    O     O_R   0.314790 0.499970 0.385330 -0.659171
O5    O     O_R   0.500010 0.683250 0.614640 -0.615818
O6    O     O_R   0.500000 0.683220 0.385310 -0.626564
O7    O     O_R   0.685210 0.500030 0.614670 -0.631326
O8    O     O_R   0.685200 0.500010 0.385330 -0.592972
Zn1   Zn    Zn3+2 0.500010 0.500020 0.653130 0.923864
Zn2   Zn    Zn3+2 0.499990 0.499980 0.346870 0.979834
S1    S     S_3+6 0.657415 0.134995 0.261539 0.008351
O9    O     O_2   0.571530 0.183511 0.153000 -0.286544
O10   O     O_2   0.737684 0.241069 0.312311 -0.347388
O11   O     O_3   0.751218 0.029753 0.193552 -0.556011
H24   H     H_    0.809412 0.005449 0.267255 0.338242

loop_
_geom_bond_atom_site_label_1
_geom_bond_atom_site_label_2
_ccdc_geom_bond_type
C27   H18   S    
S1    O10   D    
C19   H15   S    
C16   C21   A    
C29   C30   S    
O6    Zn2   S    
C4    H23   S    
C28   H19   S    
C6    C7    A    
C2    C4    S    
C19   C20   A    
C1    C11   S    
C23   O6    A    
C13   S1    S    
C24   H16   S    
N2    Zn1   S    
C22   C24   A    
O1    Zn1   S    
C17   C18   A    
C7    H7    S    
C22   H10   S    
C5    C10   A    
C22   N1    A    
N1    Zn2   S    
C4    H2    S    
C13   C14   A    
O4    Zn2   S    
C24   N2    A    
C23   O5    A    
C11   C13   A    
C26   C27   S    
C2    C27   S    
C8    H8    S    
C12   O3    A    
C20   N2    A    
C5    C6    A    
C5    H5    S    
C9    C10   A    
C28   C30   S    
C3    C28   S    
C3    H20   S    
C6    H6    S    
C28   H3    S    
C26   C30   S    
C2    C25   S    
C2    C3    S    
C25   O7    A    
O3    Zn1   S    
C21   N1    A    
O8    Zn2   S    
O11   H24   S    
S1    O11   S    
C10   C11   A    
C15   C23   S    
C29   H21   S    
C16   H12   S    
C18   H14   S    
C7    C8    A    
S1    O9    D    
C20   C21   A    
C18   C19   A    
C25   O8    A    
C27   H17   S    
C17   H13   S    
C14   C15   A    
C16   C17   A    
O7    Zn1   S    
C3    H4    S    
C12   C30   S    
C14   H9    S    
C9    C15   A    
C12   O4    A    
C26   H1    S    
C1    O1    A    
O5    Zn1   S    
C4    C29   S    
C26   H11   S    
O2    Zn2   S    
C8    C9    A    
C29   H22   S    
C1    O2    A    
