data_mof_unit_36003.cif
_audit_creation_date              2013-03-05T16:47:41-0500
_audit_creation_method            fapswitch 2.2
_symmetry_space_group_name_H-M    P1
_symmetry_Int_Tables_number       1
_space_group_crystal_system       triclinic
_cell_length_a                    8.956198
_cell_length_b                    8.148585
_cell_length_c                    10.585693
_cell_angle_alpha                 89.316892
_cell_angle_beta                  90.645205
_cell_angle_gamma                 90.336517
_cell_volume                      772.430871636

loop_
_atom_site_label
_atom_site_type_symbol
_atom_site_description
_atom_site_fract_x
_atom_site_fract_y
_atom_site_fract_z
_atom_type_partial_charge
O1    O     O_R   0.285350 0.636850 0.500000 -0.626442
O2    O     O_R   0.714650 0.363150 0.500000 -0.629223
O3    O     O_R   0.714650 0.636850 0.500000 -0.598195
O4    O     O_R   0.285350 0.363150 0.500000 -0.599107
C1    C     C_R   0.218122 0.499688 0.500039 0.939107
C2    C     C_R   0.781890 0.500252 0.501511 0.967410
O5    O     O_R   0.499970 0.636850 0.313950 -0.606993
O6    O     O_R   0.500030 0.363150 0.686050 -0.598513
O7    O     O_R   0.500030 0.636850 0.686050 -0.625225
O8    O     O_R   0.499970 0.363150 0.313950 -0.623672
C3    C     C_R   0.493198 0.500627 0.257187 0.961402
C4    C     C_R   0.507606 0.499357 0.742600 0.932277
Zn1   Zn    Zn3+2 0.500000 0.682780 0.500000 0.998316
Zn2   Zn    Zn3+2 0.500000 0.317220 0.500000 1.004408
C5    C     C_3   0.395078 0.606688 0.033583 -0.030403
C6    C     C_3   0.609295 0.393242 0.965457 -0.016148
C7    C     C_3   0.537145 0.652565 0.957934 0.057942
C8    C     C_3   0.468032 0.347504 0.041389 0.069654
C9    C     C_3   0.371870 0.453084 0.952167 0.322524
C10   C     C_3   0.633121 0.546305 0.047233 0.319250
C11   C     C_3   0.510776 0.498842 0.876669 -0.255229
C12   C     C_3   0.493764 0.501231 0.122855 -0.264362
C13   C     C_1   0.065192 0.499516 0.500802 -0.147857
C14   C     C_1   0.934848 0.500351 0.501378 -0.135131
N1    N     N_1   0.500000 0.073640 0.500000 -0.036126
N2    N     N_1   0.500000 0.926360 0.500000 -0.039421
N3    N     N_R   0.233353 0.393428 0.894340 0.189298
O9    O     O_R   0.106663 0.425819 0.946469 -0.394834
O10   O     O_R   0.238287 0.275465 0.812835 -0.415105
N4    N     N_R   0.776382 0.598721 0.100773 0.202176
O11   O     O_R   0.890040 0.620258 0.027539 -0.395860
O12   O     O_R   0.792844 0.622946 0.221169 -0.424149
C15   C     C_3   0.273341 0.721070 0.080776 -0.346423
C16   C     C_3   0.189505 0.809502 0.973566 -0.698107
H1    H     H_    0.261818 0.900088 0.925414 0.227843
H2    H     H_    0.146924 0.722609 0.901926 0.297336
H3    H     H_    0.093413 0.876349 0.013069 0.251864
H4    H     H_    0.192624 0.647687 0.137266 0.249467
H5    H     H_    0.325796 0.813107 0.143691 0.202861
C17   C     C_3   0.731083 0.279002 0.918402 -0.349426
C18   C     C_3   0.820090 0.199433 0.026466 -0.726270
H6    H     H_    0.871306 0.293298 0.088492 0.302257
H7    H     H_    0.748019 0.117990 0.084204 0.226769
H8    H     H_    0.911150 0.124797 0.986847 0.245770
H9    H     H_    0.678232 0.182052 0.860149 0.208350
H10   H     H_    0.808392 0.350795 0.857489 0.245782
C19   C     C_3   0.583012 0.824392 0.911064 -0.370942
C20   C     C_3   0.728687 0.826911 0.836137 -0.701014
H11   H     H_    0.755633 0.705009 0.797017 0.256248
H12   H     H_    0.719649 0.915949 0.756221 0.224987
H13   H     H_    0.823017 0.867005 0.897164 0.263282
H14   H     H_    0.492722 0.874888 0.849990 0.219321
H15   H     H_    0.596732 0.903896 0.994452 0.193222
C21   C     C_3   0.420540 0.176893 0.088681 -0.367973
C22   C     C_3   0.267169 0.176952 0.151563 -0.735183
H16   H     H_    0.247944 0.291048 0.204973 0.253069
H17   H     H_    0.177447 0.164408 0.079348 0.276723
H18   H     H_    0.258138 0.071684 0.218477 0.228564
H19   H     H_    0.416016 0.094839 0.006573 0.203071
H20   H     H_    0.505216 0.128992 0.156604 0.216792

loop_
_geom_bond_atom_site_label_1
_geom_bond_atom_site_label_2
_geom_bond_distance
_ccdc_geom_bond_type
O5    C3    1.269321 A    
C22   H16   1.109187 S    
C19   H14   1.107700 S    
C8    C12   1.543969 S    
N3    O10   1.300557 A    
C16   H3    1.109632 S    
C9    N3    1.460471 S    
C18   H6    1.107974 S    
C3    C12   1.422014 S    
C19   C20   1.534385 S    
O3    Zn1   1.960697 S    
O6    C4    1.268412 A    
C19   H15   1.106458 S    
O3    C2    1.268499 A    
C2    C14   1.369938 S    
C18   H8    1.109274 S    
C20   H12   1.110459 S    
C15   C16   1.529270 S    
C5    C12   1.543835 S    
C21   H20   1.108591 S    
N4    O12   1.298617 A    
C18   H7    1.106712 S    
C6    C11   1.540563 S    
C6    C17   1.529597 S    
O1    C1    1.266423 A    
C17   H10   1.110732 S    
C20   H11   1.109642 S    
C9    C11   1.528157 S    
C10   C12   1.530881 S    
C8    C9    1.531330 S    
C16   H2    1.106800 S    
C21   H19   1.103130 S    
C22   H17   1.107971 S    
Zn2   N1    1.984832 S    
O4    Zn2   1.960697 S    
N4    O11   1.296312 A    
O2    Zn2   1.956382 S    
O7    C4    1.265769 A    
O6    Zn2   2.009090 S    
Zn1   N2    1.984832 S    
O1    Zn1   1.956382 S    
O8    C3    1.266335 A    
C8    C21   1.531516 S    
C13   C14   1.167528 T    
C6    C10   1.539148 S    
C7    C19   1.535124 S    
O5    Zn1   2.009090 S    
C7    C10   1.533990 S    
C17   H9    1.108633 S    
C6    C8    1.547867 S    
C16   H1    1.103167 S    
O8    Zn2   2.000323 S    
C22   H18   1.109080 S    
N3    O9    1.297197 A    
C5    C7    1.552478 S    
O7    Zn1   2.000323 S    
C21   C22   1.533149 S    
C17   C18   1.527184 S    
C15   H4    1.110811 S    
C10   N4    1.460433 S    
N1    N2    1.200123 T    
C5    C9    1.539888 S    
C4    C11   1.419130 S    
C15   H5    1.107905 S    
C20   H13   1.107855 S    
C7    C11   1.543542 S    
O2    C2    1.266227 A    
C5    C15   1.530466 S    
O4    C1    1.268177 A    
C1    C13   1.369782 S    
