data_mof_unit_57046.cif
_audit_creation_date              2012-12-10T17:15:56-0500
_audit_creation_method            fapswitch 2.2
_symmetry_space_group_name_H-M    P1
_symmetry_Int_Tables_number       1
_space_group_crystal_system       triclinic
_cell_length_a                    10.212279
_cell_length_b                    10.73803
_cell_length_c                    10.490337
_cell_angle_alpha                 92.15866
_cell_angle_beta                  93.977636
_cell_angle_gamma                 80.97812
_cell_volume                      1132.98030993

loop_
_atom_site_label
_atom_site_type_symbol
_atom_type_description
_atom_site_fract_x
_atom_site_fract_y
_atom_site_fract_z
_atom_type_partial_charge
C1    C     C_R   0.445880 0.503155 0.265366 0.962406
C2    C     C_2   0.487501 0.411056 0.924446 -0.425432
C3    C     C_2   0.072397 0.489789 0.488259 0.059712
C4    C     C_R   0.499056 0.259729 0.489426 0.919118
C5    C     C_2   0.925491 0.512666 0.509519 -0.135072
C6    C     C_R   0.554200 0.492237 0.735553 0.763906
C7    C     C_R   0.501604 0.739770 0.511316 0.887907
C8    C     C_R   0.746433 0.068014 0.451358 -0.239548
C9    C     C_R   0.863556 0.984542 0.479035 0.549082
C10   C     C_R   0.861251 0.886270 0.560839 -0.250284
C11   C     C_R   0.740473 0.852733 0.587908 -0.227517
C12   C     C_R   0.623388 0.041440 0.489565 -0.029602
C13   C     C_R   0.621194 0.922078 0.536430 0.102967
C14   C     C_3   0.214396 0.135457 0.316575 0.093179
C15   C     C_3   0.273866 0.216418 0.225519 -0.388923
C16   C     C_3   0.219078 0.198528 0.088203 -0.985709
C17   C     C_3   0.185604 0.656968 0.737148 0.240244
C18   C     C_3   0.110970 0.742868 0.835417 -0.987198
C19   C     C_3   0.978854 0.921875 0.303660 -0.003799
C20   C     C_3   0.049551 0.786456 0.323420 -0.290874
C21   C     C_3   0.077105 0.717314 0.196111 -0.967328
C22   C     C_3   0.611665 0.195369 0.044102 0.108063
C23   C     C_R   0.501271 0.125005 0.477209 -0.239139
C24   C     C_3   0.690203 0.088646 0.120611 -0.893022
C25   C     C_3   0.792665 0.525252 0.903044 0.101615
C26   C     C_3   0.872910 0.392306 0.890202 -0.351751
C27   C     C_3   0.013850 0.397474 0.853561 -0.952451
C28   C     C_R   0.380036 0.078204 0.471672 0.492580
C29   C     C_R   0.380991 0.952484 0.494793 -0.308389
C30   C     C_R   0.501115 0.873699 0.523152 -0.188011
C31   C     C_2   0.418444 0.488949 0.128654 -0.425021
C32   C     C_2   0.490699 0.396628 0.062461 0.587149
C33   C     C_2   0.577886 0.469171 0.873070 0.324883
H1    H     H_    0.344959 0.558963 0.080480 0.108102
H2    H     H_    0.104922 0.164425 0.310215 0.185772
H3    H     H_    0.234138 0.034382 0.284732 0.132329
H4    H     H_    0.249449 0.317267 0.254698 0.235620
H5    H     H_    0.383529 0.189913 0.229601 0.232154
H6    H     H_    0.261567 0.259938 0.024615 0.265776
H7    H     H_    0.109219 0.224329 0.081391 0.270943
H8    H     H_    0.246227 0.098878 0.055222 0.267721
H9    H     H_    0.271276 0.701452 0.713400 0.191793
H10   H     H_    0.217518 0.563814 0.781809 0.161298
H11   H     H_    0.022120 0.703636 0.860844 0.260826
H12   H     H_    0.886679 0.583737 0.578866 0.196003
H13   H     H_    0.177297 0.750682 0.922697 0.224234
H14   H     H_    0.079313 0.838618 0.797049 0.268632
H15   H     H_    0.031871 0.967574 0.234349 0.157371
H16   H     H_    0.877689 0.918901 0.257286 0.146042
H17   H     H_    0.144855 0.787051 0.380810 0.252874
H18   H     H_    0.985637 0.734145 0.375605 0.229488
H19   H     H_    0.984248 0.721813 0.133543 0.260776
H20   H     H_    0.117264 0.616706 0.212925 0.275630
H21   H     H_    0.151426 0.760382 0.147520 0.257072
H22   H     H_    0.675186 0.217552 0.968648 0.153559
H23   H     H_    0.109148 0.416705 0.419873 0.111858
H24   H     H_    0.520806 0.161953 0.999195 0.141708
H25   H     H_    0.629139 0.061584 0.195478 0.256317
H26   H     H_    0.718126 0.005409 0.056538 0.215924
H27   H     H_    0.782145 0.119201 0.165196 0.250476
H28   H     H_    0.849804 0.580697 0.971856 0.161865
H29   H     H_    0.782470 0.577913 0.813047 0.130490
H30   H     H_    0.877959 0.344232 0.982828 0.229087
H31   H     H_    0.823493 0.335654 0.816246 0.222087
H32   H     H_    0.011354 0.447418 0.762753 0.286689
H33   H     H_    0.067652 0.300197 0.840238 0.275220
H34   H     H_    0.881830 0.380697 0.384062 0.171068
H35   H     H_    0.068454 0.447062 0.929891 0.259793
H36   H     H_    0.752497 0.145311 0.390383 0.192698
H37   H     H_    0.952438 0.829995 0.593162 0.223220
H38   H     H_    0.740655 0.770204 0.644050 0.154412
H39   H     H_    0.287417 0.916574 0.486669 0.199732
H40   H     H_    0.409731 0.373120 0.866398 0.126648
N1    N     N_2   0.157290 0.551390 0.551110 0.054206
N2    N     N_2   0.842740 0.448550 0.448960 -0.201198
O1    O     O_R   0.568950 0.489660 0.307530 -0.535524
O2    O     O_3   0.100776 0.645410 0.627987 -0.612838
O3    O     O_3   0.978099 0.994213 0.420048 -0.655581
O4    O     O_3   0.578051 0.301916 0.125743 -0.597508
O5    O     O_3   0.669296 0.522383 0.955112 -0.634366
O6    O     O_R   0.348880 0.522640 0.340350 -0.646078
O7    O     O_R   0.610060 0.300270 0.483590 -0.615965
O8    O     O_R   0.389990 0.333260 0.516410 -0.573469
O9    O     O_R   0.651120 0.477360 0.659650 -0.619466
O10   O     O_R   0.431050 0.510340 0.692470 -0.659278
O11   O     O_R   0.610010 0.666740 0.483590 -0.608400
O12   O     O_R   0.389940 0.699730 0.516410 -0.633883
O13   O     O_3   0.260181 0.155773 0.445073 -0.615085
Zn1   Zn    Zn3+2 0.646940 0.477980 0.478090 0.963028
Zn2   Zn    Zn3+2 0.353060 0.522020 0.521910 0.944358

loop_
_geom_bond_atom_site_label_1
_geom_bond_atom_site_label_2
_ccdc_geom_bond_type
C25   O5    S    
C19   C20   S    
C18   H14   S    
C22   H24   S    
C12   C23   A    
C8    H36   S    
O7    Zn1   S    
C28   C29   A    
C22   O4    S    
C20   H18   S    
C14   H3    S    
C21   H21   S    
C11   H38   S    
C7    O11   A    
C1    O6    A    
C15   C16   S    
C1    C31   S    
C2    C32   S    
C3    N1    D    
C26   H31   S    
C17   H9    S    
C15   H4    S    
C20   H17   S    
C27   H35   S    
C7    O12   A    
C8    C9    A    
N1    O2    S    
C28   O13   S    
C9    C10   A    
C24   H27   S    
O1    Zn1   S    
C25   H29   S    
C29   H39   S    
C7    C30   S    
C18   H13   S    
C6    O9    A    
C13   C30   A    
C14   H2    S    
C4    C23   S    
C19   H15   S    
C25   C26   S    
C5    H12   S    
C5    N2    D    
C19   O3    S    
C26   H30   S    
C17   H10   S    
C15   H5    S    
C29   C30   A    
C27   H32   S    
C18   H11   S    
C3    H23   S    
C19   H16   S    
C31   C32   D    
C8    C12   A    
C17   O2    S    
C17   C18   S    
C26   C27   S    
C31   H1    S    
C25   H28   S    
C23   C28   A    
C12   C13   A    
C6    O10   A    
C2    H40   S    
C16   H7    S    
O6    Zn2   S    
C10   H37   S    
C2    C33   D    
C22   C24   S    
H34   N2    S    
O9    Zn1   S    
O8    Zn2   S    
C1    O1    A    
C3    C5    S    
O11   Zn1   S    
O10   Zn2   S    
C33   O5    S    
C22   H22   S    
C6    C33   S    
N1    Zn2   S    
C14   O13   S    
C27   H33   S    
C32   O4    S    
C21   H20   S    
C11   C13   A    
C4    O8    A    
C24   H26   S    
C9    O3    S    
C10   C11   A    
N2    Zn1   S    
C16   H6    S    
C4    O7    A    
C20   C21   S    
C24   H25   S    
O12   Zn2   S    
C14   C15   S    
C16   H8    S    
C21   H19   S    
