data_mof_unit_22593.cif
_audit_creation_date              2012-12-11T17:10:15-0500
_audit_creation_method            fapswitch 2.2
_symmetry_space_group_name_H-M    P1
_symmetry_Int_Tables_number       1
_space_group_crystal_system       triclinic
_cell_length_a                    14.947432
_cell_length_b                    14.899557
_cell_length_c                    14.976477
_cell_angle_alpha                 108.956344
_cell_angle_beta                  110.180391
_cell_angle_gamma                 108.769054
_cell_volume                      2583.22132892

loop_
_atom_site_label
_atom_site_type_symbol
_atom_type_description
_atom_site_fract_x
_atom_site_fract_y
_atom_site_fract_z
_atom_type_partial_charge
C1    C     C_R   0.199919 0.295139 0.200557 -0.084243
C2    C     C_R   0.407542 0.497463 0.195662 -0.153805
C3    C     C_R   0.554460 0.814874 0.587692 -0.110417
C4    C     C_R   0.524081 0.430759 0.743929 -0.146575
C5    C     C_R   0.724924 0.463073 0.409502 -0.115406
C6    C     C_R   0.539506 0.824087 0.494786 0.049662
C7    C     C_R   0.828958 0.534109 0.502283 0.043873
C8    C     C_R   0.441919 0.438285 0.136326 0.075170
C9    C     C_R   0.820423 0.825927 0.820075 0.049566
C10   C     C_R   0.081551 0.559077 0.165039 -0.307443
C11   C     C_R   0.089897 0.597745 0.267794 -0.247092
C12   C     C_R   0.455538 0.451998 0.779371 -0.021579
C13   C     C_R   0.009732 0.535781 0.283982 0.132949
C14   C     C_R   0.917897 0.438169 0.193822 -0.221754
C15   C     C_R   0.907996 0.401876 0.090771 -0.227387
C16   C     C_R   0.502701 0.200527 0.407944 -0.140581
C17   C     C_R   0.991058 0.459746 0.076328 0.647130
C18   C     C_R   0.930123 0.559849 0.404799 -0.226951
C19   C     C_R   0.933688 0.577625 0.504378 0.048444
C20   C     C_R   0.037652 0.633751 0.600639 0.033757
C21   C     C_R   0.129969 0.663633 0.591182 -0.226378
C22   C     C_R   0.121025 0.611525 0.490249 0.036951
C23   C     C_R   0.564196 0.196155 0.497240 0.052835
C24   C     C_R   0.022087 0.571081 0.394591 0.066852
C25   C     C_R   0.117888 0.759740 0.796521 -0.204322
C26   C     C_R   0.143143 0.782710 0.902690 -0.286733
C27   C     C_R   0.107165 0.697964 0.926079 0.612458
C28   C     C_R   0.292979 0.601542 0.585171 -0.148884
C29   C     C_R   0.055709 0.590365 0.842654 -0.217822
C30   C     C_R   0.033294 0.565976 0.735593 -0.117580
C31   C     C_R   0.059045 0.652146 0.711260 0.006227
C32   C     C_R   0.485789 0.373182 0.901592 -0.048630
C33   C     C_R   0.422524 0.407758 0.842982 0.070019
C34   C     C_R   0.200425 0.572748 0.491924 0.030769
C35   C     C_R   0.334425 0.408648 0.857158 -0.182799
C36   C     C_R   0.332590 0.409205 0.950243 -0.209971
C37   C     C_R   0.415194 0.402222 0.023924 0.092515
C38   C     C_R   0.481341 0.369951 0.990485 0.071445
C39   C     C_3   0.599613 0.401834 0.052563 -0.625770
C40   C     C_R   0.594842 0.288827 0.589401 -0.133888
C41   C     C_3   0.606505 0.404789 0.954415 0.452859
C42   C     C_R   0.551649 0.927698 0.393853 -0.077237
C43   C     C_R   0.587513 0.924685 0.491798 0.050911
C44   C     C_R   0.660226 0.024821 0.589288 -0.172014
C45   C     C_R   0.469058 0.720746 0.405647 -0.177888
C46   C     C_R   0.667306 0.120913 0.589615 -0.136292
C47   C     C_R   0.600845 0.115726 0.492802 0.105488
C48   C     C_R   0.557310 0.021969 0.393911 -0.053052
C49   C     C_3   0.452402 0.960700 0.286488 -0.376341
C50   C     C_3   0.446119 0.856234 0.285575 0.362205
C51   C     C_R   0.003359 0.117883 0.004877 0.035727
C52   C     C_R   0.199095 0.501738 0.404912 -0.040338
C53   C     C_R   0.104467 0.121561 0.032721 0.042556
C54   C     C_R   0.110533 0.036792 0.963695 -0.193133
C55   C     C_R   0.014332 0.939800 0.884837 -0.228589
C56   C     C_R   0.814708 0.555502 0.591862 -0.120400
C57   C     C_R   0.915425 0.930098 0.877379 0.065187
C58   C     C_R   0.909471 0.023836 0.924716 0.140653
C59   C     C_3   0.845691 0.045428 0.979273 -0.615056
C60   C     C_3   0.950166 0.148516 0.070324 -0.242991
C61   C     C_R   0.444394 0.534739 0.759831 0.027833
C62   C     C_R   0.287708 0.199041 0.198315 -0.143685
C63   C     C_R   0.194584 0.201067 0.139292 0.027377
C64   C     C_3   0.065831 0.396650 0.976715 0.210293
C65   C     C_3   0.019901 0.290696 0.874491 -0.841738
C66   C     C_3   0.118898 0.807293 0.086248 0.246532
C67   C     C_R   0.500299 0.407060 0.200078 -0.137207
C68   C     C_3   0.103120 0.801577 0.179600 -0.884116
C69   C     C_2   0.982128 0.451287 0.650170 0.526660
C70   C     C_2   0.684121 0.517576 0.983224 0.480505
C71   C     C_3   0.550828 0.218540 0.841121 0.292308
C72   C     C_3   0.599968 0.144092 0.822460 -0.930485
C73   C     C_2   0.469614 0.977126 0.198266 0.672516
C74   C     C_3   0.547823 0.790161 0.216992 0.210607
C75   C     C_3   0.539233 0.719236 0.112008 -0.779179
C76   C     C_2   0.989984 0.145198 0.175758 0.607463
C77   C     C_2   0.417070 0.612947 0.817867 0.460008
C78   C     C_R   0.717480 0.812047 0.778802 -0.091846
C79   C     C_R   0.813742 0.724625 0.781366 -0.136510
H1    H     H_    0.148597 0.329162 0.175146 0.081934
H2    H     H_    0.160575 0.673878 0.335453 0.147080
H3    H     H_    0.551258 0.372591 0.747255 0.119489
H4    H     H_    0.854799 0.388369 0.203384 0.147339
H5    H     H_    0.837337 0.326220 0.022546 0.175836
H6    H     H_    0.854170 0.530098 0.332831 0.124077
H7    H     H_    0.207953 0.709095 0.665562 0.141290
H8    H     H_    0.144226 0.826648 0.780487 0.151724
H9    H     H_    0.189549 0.866994 0.965569 0.163315
H10   H     H_    0.032678 0.525426 0.861731 0.204363
H11   H     H_    0.274093 0.419761 0.803537 0.124053
H12   H     H_    0.875001 0.606028 0.675349 0.113335
H13   H     H_    0.481976 0.154666 0.325028 0.124168
H14   H     H_    0.274318 0.425729 0.969453 0.123978
H15   H     H_    0.647521 0.482272 0.128263 0.200321
H16   H     H_    0.610842 0.336180 0.065941 0.193622
H17   H     H_    0.700679 0.028424 0.666790 0.122560
H18   H     H_    0.713136 0.194998 0.667138 0.139394
H19   H     H_    0.385018 0.973083 0.293448 0.136752
H20   H     H_    0.375091 0.812442 0.292450 0.064805
H21   H     H_    0.328889 0.667994 0.665267 0.153546
H22   H     H_    0.188170 0.040641 0.978346 0.138821
H23   H     H_    0.521934 0.344668 0.173737 0.106790
H24   H     H_    0.017545 0.870568 0.836964 0.144914
H25   H     H_    0.782870 0.061947 0.932724 0.200890
H26   H     H_    0.814564 0.983192 0.002477 0.206751
H27   H     H_    0.945694 0.223421 0.077725 0.162491
H28   H     H_    0.655876 0.319219 0.672386 0.120275
H29   H     H_    0.144496 0.466234 0.319117 0.115446
H30   H     H_    0.314919 0.142290 0.169798 0.130569
H31   H     H_    0.439188 0.695870 0.320686 0.127722
H32   H     H_    0.107128 0.387371 0.048266 0.058732
H33   H     H_    0.128313 0.463777 0.978716 0.123485
H34   H     H_    0.691604 0.870955 0.801119 0.110265
H35   H     H_    0.984140 0.298140 0.800744 0.298440
H36   H     H_    0.085693 0.270711 0.876226 0.211428
H37   H     H_    0.955233 0.223476 0.870183 0.245565
H38   H     H_    0.048273 0.810660 0.032027 0.087495
H39   H     H_    0.195974 0.883237 0.122194 0.131763
H40   H     H_    0.173597 0.801341 0.237332 0.245413
H41   H     H_    0.097494 0.873483 0.224228 0.214983
H42   H     H_    0.026552 0.726725 0.147248 0.270696
H43   H     H_    0.974735 0.432212 0.570803 0.034026
H44   H     H_    0.754775 0.530985 0.972747 0.050283
H45   H     H_    0.879248 0.707420 0.811783 0.093585
H46   H     H_    0.493809 0.204524 0.760641 0.095540
H47   H     H_    0.504441 0.195758 0.881626 0.104840
H48   H     H_    0.650557 0.150488 0.901078 0.249104
H49   H     H_    0.533925 0.058435 0.764998 0.219412
H50   H     H_    0.652226 0.167642 0.787702 0.260340
H51   H     H_    0.541743 0.982175 0.193509 0.016436
H52   H     H_    0.570333 0.758821 0.274465 0.111056
H53   H     H_    0.613719 0.874197 0.251800 0.105334
H54   H     H_    0.519688 0.750707 0.054237 0.269392
H55   H     H_    0.618322 0.720766 0.130166 0.252998
H56   H     H_    0.347260 0.520838 0.164329 0.097746
H57   H     H_    0.474257 0.634353 0.074190 0.250567
H58   H     H_    0.002791 0.078261 0.178775 0.008848
H59   H     H_    0.360357 0.590276 0.846046 0.021044
H60   H     H_    0.596912 0.881156 0.669342 0.089519
H61   H     H_    0.703930 0.427104 0.324985 0.093006
H62   H     H_    0.145473 0.605818 0.154430 0.179896
N1    N     N_R   0.291070 0.347930 0.293870 -0.040182
N2    N     N_R   0.497240 0.291100 0.443210 -0.040996
N3    N     N_R   0.347890 0.554050 0.556810 -0.046950
N4    N     N_R   0.554050 0.347900 0.556830 -0.044649
N5    N     N_R   0.291070 0.497250 0.443190 -0.049668
N6    N     N_R   0.497240 0.554030 0.706140 -0.038126
N7    N     N_R   0.347890 0.291110 0.293870 -0.039770
N8    N     N_R   0.445950 0.652100 0.443170 -0.043732
N9    N     N_R   0.708930 0.502750 0.556810 -0.041968
N10   N     N_R   0.502760 0.445970 0.293860 -0.040182
N11   N     N_R   0.652110 0.708890 0.706130 -0.037692
N12   N     N_R   0.708930 0.652070 0.706130 -0.042973
N13   N     N_R   0.445950 0.502780 0.293850 -0.041030
N14   N     N_R   0.502760 0.708900 0.556790 -0.039721
N15   N     N_R   0.652110 0.445950 0.443190 -0.042116
N16   N     N_R   0.554050 0.497220 0.706150 -0.047896
Ni1   Ni    Ni4+2 0.369690 0.500010 0.369700 0.205590
Ni2   Ni    Ni4+2 0.630310 0.499990 0.630300 0.230501
Ni3   Ni    Ni4+2 0.500000 0.369720 0.369720 0.214756
Ni4   Ni    Ni4+2 0.500000 0.630280 0.630280 0.266237
O1    O     O_3   0.979980 0.418963 0.973709 -0.632569
O2    O     O_3   0.126240 0.715574 0.029709 -0.632013
O3    O     O_2   0.947084 0.376240 0.667172 -0.603158
O4    O     O_2   0.669803 0.594549 0.019589 -0.618345
O5    O     O_3   0.635979 0.328124 0.905114 -0.662242
O6    O     O_2   0.402352 0.985137 0.131394 -0.646172
O7    O     O_3   0.446238 0.786867 0.193465 -0.613386
O8    O     O_2   0.008050 0.217865 0.258467 -0.596850
O9    O     O_2   0.463464 0.707706 0.840153 -0.597784

loop_
_geom_bond_atom_site_label_1
_geom_bond_atom_site_label_2
_ccdc_geom_bond_type
C25   C31   A    
C66   C68   S    
C6    C45   A    
C74   H53   S    
N3    Ni4   S    
C27   C29   A    
C53   C63   S    
C65   H35   S    
C54   H22   S    
C35   C36   A    
C69   O3    D    
C73   O6    D    
C3    C6    A    
C74   O7    S    
C57   C58   A    
C75   H55   S    
C78   N11   A    
N2    Ni3   S    
C39   C41   S    
C53   C54   A    
N14   Ni4   S    
C26   C27   A    
C37   C38   A    
C40   N4    A    
C72   H49   S    
C18   C24   A    
C59   H25   S    
C7    C56   A    
C36   C37   A    
N13   Ni1   S    
C68   H40   S    
N7    Ni3   S    
C30   C31   A    
N4    Ni2   S    
C64   H33   S    
C10   C17   A    
C23   C40   A    
C55   H24   S    
C25   H8    S    
C15   C17   A    
C18   C19   A    
C9    C79   A    
N10   N13   A    
C1    N1    A    
C13   C14   A    
C27   O2    S    
C49   H19   S    
C21   H7    S    
C36   H14   S    
C56   H12   S    
C4    N16   A    
C61   C77   S    
C77   O9    D    
C71   O5    S    
C32   C41   S    
C71   H47   S    
C28   N3    A    
C32   C38   A    
C4    C12   A    
C29   C30   A    
N8    Ni1   S    
C9    C57   S    
N11   Ni4   S    
C28   H21   S    
C28   C34   A    
C59   C60   S    
N16   Ni2   S    
N9    N15   A    
C74   H52   S    
C65   H36   S    
C14   H4    S    
N1    Ni1   S    
C1    C63   A    
C29   H10   S    
C44   C46   A    
C22   C34   S    
C18   H6    S    
C23   C47   S    
C74   C75   S    
C72   H48   S    
C67   N10   A    
C73   H51   S    
N1    N7    A    
N15   Ni3   S    
C16   N2    A    
C77   H59   S    
N3    N5    A    
N6    Ni4   S    
C70   O4    D    
C5    C7    A    
C45   H31   S    
C64   H32   S    
C42   C48   A    
C25   C26   A    
C76   H58   S    
C60   C76   S    
C11   H2    S    
C13   C24   S    
C51   C53   A    
C10   H62   S    
N12   Ni2   S    
C43   C44   A    
C39   H15   S    
C62   C63   A    
C44   H17   S    
C79   N12   A    
C47   C48   A    
C41   O5    S    
C3    N14   A    
C50   H20   S    
C17   O1    S    
C51   C58   A    
C59   H26   S    
N11   N12   A    
C39   H16   S    
N8    N14   A    
C42   C50   S    
C40   H28   S    
C64   O1    S    
C48   C49   S    
C46   H18   S    
C16   H13   S    
C16   C23   A    
C7    C19   S    
C6    C43   S    
C55   C57   A    
C50   O7    S    
C65   H37   S    
C22   C24   A    
C51   C60   S    
C78   H34   S    
C3    H60   S    
C42   C43   A    
C56   N9    A    
N6    N16   A    
C30   C69   S    
C60   H27   S    
C5    H61   S    
C72   H50   S    
N2    N4    A    
C54   C55   A    
C52   N5    A    
C66   H38   S    
C75   H57   S    
C2    C8    A    
C68   H42   S    
C75   H54   S    
C15   H5    S    
N5    Ni1   S    
C26   H9    S    
C8    C37   S    
C5    N15   A    
C79   H45   S    
C34   C52   A    
C2    H56   S    
N10   Ni3   S    
C19   C20   A    
C58   C59   S    
C71   C72   S    
C32   C33   A    
C12   C61   A    
C11   C13   A    
C49   C73   S    
C38   C39   S    
C62   H30   S    
C69   H43   S    
C64   C65   S    
C33   C35   A    
C66   O2    S    
C45   N8    A    
C9    C78   A    
C61   N6    A    
C76   O8    D    
C46   C47   A    
C10   C11   A    
C70   H44   S    
C35   H11   S    
C4    H3    S    
C20   C21   A    
C52   H29   S    
C8    C67   A    
C2    N13   A    
C49   C50   S    
C66   H39   S    
C1    H1    S    
C14   C15   A    
C71   H46   S    
C62   N7    A    
N9    Ni2   S    
C12   C33   S    
C21   C22   A    
C68   H41   S    
C67   H23   S    
C41   C70   S    
C20   C31   S    
