data_mof_unit_60626.cif
_audit_creation_date              2012-12-10T18:57:50-0500
_audit_creation_method            fapswitch 2.2
_symmetry_space_group_name_H-M    P1
_symmetry_Int_Tables_number       1
_space_group_crystal_system       triclinic
_cell_length_a                    36.998409
_cell_length_b                    30.259068
_cell_length_c                    21.533275
_cell_angle_alpha                 90.0
_cell_angle_beta                  54.730483
_cell_angle_gamma                 89.999777
_cell_volume                      19682.2874283

loop_
_atom_site_label
_atom_site_type_symbol
_atom_type_description
_atom_site_fract_x
_atom_site_fract_y
_atom_site_fract_z
_atom_type_partial_charge
C1    C     C_R   0.913667 0.500015 0.586584 0.863329
C2    C     C_R   0.086332 0.500015 0.413416 0.863315
C3    C     C_R   0.413667 0.000015 0.586584 0.863324
C4    C     C_R   0.586333 0.000015 0.413416 0.863318
C5    C     C_3   0.010146 0.452867 0.203628 -0.044740
C6    C     C_3   0.989858 0.452867 0.796369 -0.044738
C7    C     C_3   0.510151 0.952868 0.203623 -0.044740
C8    C     C_3   0.489864 0.952867 0.796363 -0.044740
C9    C     C_R   0.796227 0.463661 0.686458 -0.230697
C10   C     C_R   0.203774 0.463671 0.313574 -0.230685
C11   C     C_R   0.296226 0.963668 0.686434 -0.230692
C12   C     C_R   0.703774 0.963666 0.313561 -0.230693
C13   C     C_R   0.842026 0.463139 0.639850 -0.202098
C14   C     C_R   0.157975 0.463149 0.360186 -0.202094
C15   C     C_R   0.342026 0.963146 0.639825 -0.202097
C16   C     C_R   0.657975 0.963144 0.360169 -0.202098
C17   C     C_R   0.865673 0.500281 0.636129 -0.076755
C18   C     C_R   0.134326 0.500280 0.363867 -0.076734
C19   C     C_R   0.365674 0.000281 0.636130 -0.076739
C20   C     C_R   0.634326 0.000280 0.363869 -0.076741
C21   C     C_R   0.843343 0.537711 0.680372 -0.203521
C22   C     C_R   0.156655 0.537697 0.319581 -0.203536
C23   C     C_R   0.343344 0.037703 0.680400 -0.203530
C24   C     C_R   0.656655 0.037704 0.319603 -0.203535
C25   C     C_R   0.797215 0.538437 0.728187 0.224421
C26   C     C_R   0.202783 0.538422 0.271761 0.224435
C27   C     C_R   0.297216 0.038429 0.728217 0.224427
C28   C     C_R   0.702783 0.038430 0.271786 0.224432
C29   C     C_R   0.773767 0.501141 0.730005 0.100455
C30   C     C_R   0.226233 0.501139 0.269983 0.100450
C31   C     C_R   0.273767 0.001141 0.730008 0.100449
C32   C     C_R   0.726233 0.001140 0.269990 0.100449
C33   C     C_R   0.702407 0.527116 0.759558 -0.168045
C34   C     C_R   0.297592 0.527144 0.240398 -0.168024
C35   C     C_R   0.202407 0.027133 0.759580 -0.168040
C36   C     C_R   0.797592 0.027131 0.240422 -0.168039
C37   C     C_R   0.656615 0.525675 0.804278 -0.233778
C38   C     C_R   0.343384 0.525704 0.195684 -0.233786
C39   C     C_R   0.156615 0.025692 0.804298 -0.233779
C40   C     C_R   0.843384 0.025690 0.195704 -0.233779
C41   C     C_R   0.633976 0.497072 0.866800 -0.063584
C42   C     C_R   0.366024 0.497075 0.133199 -0.063549
C43   C     C_R   0.133976 0.997075 0.866801 -0.063570
C44   C     C_R   0.866024 0.997074 0.133199 -0.063573
C45   C     C_R   0.999857 0.499970 0.378814 0.861144
C46   C     C_R   0.000143 0.499971 0.621186 0.861143
C47   C     C_R   0.499858 0.999970 0.378813 0.861143
C48   C     C_R   0.500144 0.999971 0.621185 0.861142
C49   C     C_R   0.657536 0.468382 0.883548 0.164800
C50   C     C_R   0.342467 0.468358 0.116483 0.164792
C51   C     C_R   0.157535 0.968370 0.883531 0.164760
C52   C     C_R   0.842465 0.968370 0.116467 0.164760
C53   C     C_R   0.703650 0.470639 0.838366 -0.205845
C54   C     C_R   0.296353 0.470613 0.161660 -0.205835
C55   C     C_R   0.203650 0.970626 0.838351 -0.205837
C56   C     C_R   0.796351 0.970627 0.161647 -0.205839
C57   C     C_R   0.725767 0.500149 0.777435 0.084761
C58   C     C_R   0.274234 0.500149 0.222554 0.084750
C59   C     C_R   0.225767 0.000150 0.777439 0.084760
C60   C     C_R   0.774233 0.000150 0.222561 0.084761
C61   C     C_R   1.000000 0.586314 1.000000 0.880317
C62   C     C_R   0.500000 0.086314 1.000000 0.880329
C63   C     C_R   0.000083 0.500465 0.121266 0.884328
C64   C     C_R   0.999917 0.500465 0.878734 0.884327
C65   C     C_R   0.500083 0.000464 0.121266 0.884328
C66   C     C_R   0.499917 0.000466 0.878734 0.884327
C67   C     C_R   1.000000 0.413663 1.000000 0.855367
C68   C     C_R   0.500000 0.913663 1.000000 0.855367
C69   C     C_R   0.500000 0.413737 0.000000 0.837844
C70   C     C_R   1.000000 0.913738 1.000000 0.837824
C71   C     C_R   0.586063 0.498718 0.914151 0.862235
C72   C     C_R   0.413937 0.498720 0.085849 0.862225
C73   C     C_R   0.086063 0.998719 0.914151 0.862220
C74   C     C_R   0.913937 0.998719 0.085849 0.862219
C75   C     C_R   0.500000 0.586213 1.000000 0.867908
C76   C     C_R   0.000000 0.086213 1.000000 0.867913
C77   C     C_R   0.040651 0.703475 0.966483 0.165476
C78   C     C_R   0.959349 0.703476 0.033515 0.165477
C79   C     C_R   0.540660 0.203475 0.966338 0.165453
C80   C     C_R   0.459337 0.203475 0.033658 0.165457
C81   C     C_3   0.953618 0.513880 0.331975 -0.026157
C82   C     C_3   0.046382 0.513883 0.668026 -0.026157
C83   C     C_3   0.453617 0.013874 0.331976 -0.026160
C84   C     C_3   0.546381 0.013889 0.668027 -0.026153
C85   C     C_R   0.039898 0.657326 0.967153 -0.192809
C86   C     C_R   0.960101 0.657326 0.032845 -0.192808
C87   C     C_R   0.539907 0.157326 0.967025 -0.192801
C88   C     C_R   0.460092 0.157326 0.032972 -0.192797
C89   C     C_R   1.000000 0.634436 1.000000 -0.145927
C90   C     C_R   0.499999 0.134436 0.999999 -0.145958
C91   C     C_R   1.000000 0.726163 0.999999 -0.046196
C92   C     C_R   0.499999 0.226163 0.999999 -0.046170
C93   C     C_R   0.502393 0.296788 0.941287 -0.197857
C94   C     C_R   0.497605 0.296787 0.058713 -0.197844
C95   C     C_R   0.002636 0.796788 0.941071 -0.197844
C96   C     C_R   0.997364 0.796787 0.058927 -0.197841
C97   C     C_R   0.502300 0.342575 0.941300 -0.196885
C98   C     C_R   0.497698 0.342574 0.058701 -0.196898
C99   C     C_R   0.002544 0.842575 0.941082 -0.196869
C100  C     C_R   0.997455 0.842575 0.058918 -0.196868
C101  C     C_R   0.499999 0.365701 0.000000 -0.030836
C102  C     C_R   1.000000 0.865701 1.000000 -0.030864
C103  C     C_R   0.499998 0.274123 0.000000 0.105144
C104  C     C_R   0.000000 0.774123 0.999999 0.105112
C105  C     C_R   0.037491 0.296923 0.983273 -0.177943
C106  C     C_R   0.962509 0.296923 0.016726 -0.177944
C107  C     C_R   0.537492 0.796923 0.983272 -0.177942
C108  C     C_R   0.462509 0.796923 0.016727 -0.177943
C109  C     C_R   0.037599 0.342731 0.982839 -0.198355
C110  C     C_R   0.962402 0.342732 0.017161 -0.198356
C111  C     C_R   0.537599 0.842731 0.982838 -0.198356
C112  C     C_R   0.462402 0.842732 0.017161 -0.198357
C113  C     C_R   0.000000 0.365752 1.000000 -0.026976
C114  C     C_R   0.500000 0.865753 0.999999 -0.026977
C115  C     C_3   0.954225 0.514539 0.259927 -0.431777
C116  C     C_3   0.045775 0.514542 0.740074 -0.431780
C117  C     C_3   0.454223 0.014533 0.259928 -0.431773
C118  C     C_3   0.545773 0.014548 0.740076 -0.431782
C119  C     C_R   0.000000 0.273998 0.999999 0.111423
C120  C     C_R   0.500000 0.773998 0.999999 0.111423
C121  C     C_R   0.488410 0.703111 0.957472 -0.180201
C122  C     C_R   0.511591 0.703111 0.042527 -0.180201
C123  C     C_R   0.988410 0.203111 0.957471 -0.180200
C124  C     C_R   0.011591 0.203110 0.042528 -0.180200
C125  C     C_R   0.488633 0.657300 0.957125 -0.193311
C126  C     C_R   0.511367 0.657300 0.042875 -0.193310
C127  C     C_R   0.988634 0.157300 0.957124 -0.193311
C128  C     C_R   0.011367 0.157300 0.042875 -0.193311
C129  C     C_R   0.500000 0.634217 1.000000 -0.031533
C130  C     C_R   0.000000 0.134217 1.000000 -0.031535
C131  C     C_R   0.500000 0.726034 0.999999 0.112165
C132  C     C_R   0.000001 0.226034 0.999999 0.112165
C133  C     C_3   0.037196 0.533385 0.249617 0.004132
C134  C     C_3   0.962802 0.533383 0.750384 0.004126
C135  C     C_3   0.537192 0.033388 0.249620 0.004136
C136  C     C_3   0.462799 0.033378 0.750387 0.004128
C137  C     C_3   0.010895 0.453251 0.274418 -0.448391
C138  C     C_3   0.989109 0.453251 0.725578 -0.448393
C139  C     C_3   0.510901 0.953252 0.274413 -0.448391
C140  C     C_3   0.489115 0.953250 0.725572 -0.448390
C141  C     C_3   0.000670 0.500496 0.309874 0.031637
C142  C     C_3   0.999331 0.500496 0.690125 0.031639
C143  C     C_3   0.500670 0.000496 0.309874 0.031642
C144  C     C_3   0.499331 0.000496 0.690125 0.031638
C145  C     C_3   0.000668 0.500810 0.188812 0.079313
C146  C     C_3   0.999332 0.500811 0.811188 0.079314
C147  C     C_3   0.500668 0.000810 0.188812 0.079315
C148  C     C_3   0.499333 0.000811 0.811188 0.079316
C149  C     C_3   0.036450 0.534185 0.178064 0.031141
C150  C     C_3   0.963547 0.534183 0.821938 0.031141
C151  C     C_3   0.536447 0.034188 0.178067 0.031129
C152  C     C_3   0.463544 0.034180 0.821941 0.031139
H1    H     H_    0.069181 0.523433 0.127571 0.189946
H2    H     H_    0.930818 0.523429 0.872430 0.189945
H3    H     H_    0.569178 0.023440 0.127573 0.189946
H4    H     H_    0.430816 0.023422 0.872431 0.189949
H5    H     H_    0.778142 0.434926 0.688285 0.146000
H6    H     H_    0.221860 0.434946 0.311779 0.145998
H7    H     H_    0.278141 0.934940 0.688241 0.145997
H8    H     H_    0.721859 0.934937 0.311750 0.145997
H9    H     H_    0.858905 0.433996 0.605984 0.158851
H10   H     H_    0.141096 0.434016 0.394086 0.158829
H11   H     H_    0.358904 0.934009 0.605937 0.158837
H12   H     H_    0.641096 0.934006 0.394053 0.158838
H13   H     H_    0.861896 0.566057 0.678400 0.161202
H14   H     H_    0.138100 0.566034 0.321524 0.161198
H15   H     H_    0.361898 0.066043 0.678447 0.161200
H16   H     H_    0.638102 0.066045 0.321559 0.161201
H17   H     H_    0.719676 0.549218 0.711119 0.139888
H18   H     H_    0.280322 0.549267 0.288809 0.139889
H19   H     H_    0.219676 0.049246 0.711156 0.139888
H20   H     H_    0.780323 0.049243 0.288847 0.139887
H21   H     H_    0.638752 0.547442 0.790858 0.155791
H22   H     H_    0.361246 0.547491 0.209077 0.155759
H23   H     H_    0.138752 0.047469 0.790893 0.155774
H24   H     H_    0.861247 0.047467 0.209111 0.155775
H25   H     H_    0.929964 0.487572 0.370119 0.155264
H26   H     H_    0.070038 0.487576 0.629880 0.155258
H27   H     H_    0.429966 0.987564 0.370118 0.155265
H28   H     H_    0.570040 0.987585 0.629879 0.155256
H29   H     H_    0.722468 0.449093 0.850086 0.139270
H30   H     H_    0.277537 0.449047 0.149966 0.139272
H31   H     H_    0.222467 0.949070 0.850056 0.139273
H32   H     H_    0.777534 0.949071 0.149940 0.139273
H33   H     H_    0.070180 0.638737 0.942490 0.179358
H34   H     H_    0.929819 0.638737 0.057508 0.179357
H35   H     H_    0.570196 0.138738 0.942267 0.179378
H36   H     H_    0.429803 0.138737 0.057731 0.179378
H37   H     H_    0.504255 0.278963 0.895878 0.135240
H38   H     H_    0.495742 0.278961 0.104122 0.135238
H39   H     H_    0.004688 0.778962 0.895491 0.135250
H40   H     H_    0.995312 0.778961 0.104507 0.135250
H41   H     H_    0.504129 0.359760 0.895445 0.158005
H42   H     H_    0.495869 0.359759 0.104556 0.158002
H43   H     H_    0.004572 0.859762 0.895048 0.157988
H44   H     H_    0.995428 0.859762 0.104952 0.157987
H45   H     H_    0.066701 0.279345 0.969865 0.132024
H46   H     H_    0.933299 0.279345 0.030134 0.132024
H47   H     H_    0.566702 0.779344 0.969864 0.132024
H48   H     H_    0.433299 0.779345 0.030135 0.132024
H49   H     H_    0.066814 0.360100 0.969845 0.150923
H50   H     H_    0.933187 0.360100 0.030154 0.150923
H51   H     H_    0.566814 0.860100 0.969843 0.150922
H52   H     H_    0.433186 0.860100 0.030155 0.150924
H53   H     H_    0.479662 0.720693 0.924070 0.131475
H54   H     H_    0.520339 0.720693 0.075929 0.131474
H55   H     H_    0.979663 0.220693 0.924069 0.131474
H56   H     H_    0.020338 0.220693 0.075930 0.131474
H57   H     H_    0.479614 0.640009 0.923885 0.154382
H58   H     H_    0.520387 0.640009 0.076114 0.154381
H59   H     H_    0.979614 0.140010 0.923884 0.154382
H60   H     H_    0.020386 0.140009 0.076115 0.154382
H61   H     H_    0.928503 0.491053 0.268530 0.162528
H62   H     H_    0.071498 0.491058 0.731469 0.162531
H63   H     H_    0.428504 0.991044 0.268530 0.162523
H64   H     H_    0.571499 0.991067 0.731469 0.162533
H65   H     H_    0.944591 0.547379 0.250662 0.204248
H66   H     H_    0.055406 0.547382 0.749341 0.204246
H67   H     H_    0.444585 0.047371 0.250668 0.204248
H68   H     H_    0.555400 0.047390 0.749347 0.204237
H69   H     H_    0.028717 0.566756 0.276082 0.194483
H70   H     H_    0.971280 0.566755 0.723921 0.194483
H71   H     H_    0.528709 0.066759 0.276089 0.194485
H72   H     H_    0.471272 0.066751 0.723927 0.194480
H73   H     H_    0.043122 0.441310 0.260957 0.198307
H74   H     H_    0.956882 0.441307 0.739039 0.198310
H75   H     H_    0.543129 0.941314 0.260950 0.198302
H76   H     H_    0.456891 0.941302 0.739031 0.198314
H77   H     H_    0.985568 0.429372 0.316530 0.170081
H78   H     H_    0.014437 0.429372 0.683465 0.170078
H79   H     H_    0.485576 0.929370 0.316522 0.170083
H80   H     H_    0.514447 0.929375 0.683456 0.170074
H81   H     H_    0.981973 0.431487 0.216812 0.161089
H82   H     H_    0.018032 0.431488 0.783184 0.161089
H83   H     H_    0.481980 0.931484 0.216805 0.161085
H84   H     H_    0.518041 0.931491 0.783176 0.161094
O1    O     O_R   0.934520 0.536930 0.565470 -0.628223
O2    O     O_R   0.065480 0.536930 0.434530 -0.628214
O3    O     O_R   0.434520 0.036930 0.565470 -0.628215
O4    O     O_R   0.565480 0.036930 0.434530 -0.628219
O5    O     O_R   0.565440 0.499980 0.882290 -0.620434
O6    O     O_R   0.434560 0.499980 0.117710 -0.620427
O7    O     O_R   0.065440 0.999980 0.882290 -0.620451
O8    O     O_R   0.934560 0.999980 0.117710 -0.620450
O9    O     O_R   0.565450 0.499990 0.986830 -0.614485
O10   O     O_R   0.434550 0.499990 0.013170 -0.614475
O11   O     O_R   0.065450 0.999990 0.986830 -0.614467
O12   O     O_R   0.934550 0.999990 0.013170 -0.614466
O13   O     O_R   0.500010 0.565460 0.947720 -0.624693
O14   O     O_R   0.499990 0.565460 0.052280 -0.624694
O15   O     O_R   0.000010 0.065460 0.947720 -0.624693
O16   O     O_R   0.999990 0.065460 0.052280 -0.624692
O17   O     O_R   0.934480 0.463010 0.565510 -0.623710
O18   O     O_R   0.065520 0.463010 0.434490 -0.623701
O19   O     O_R   0.434480 0.963010 0.565510 -0.623704
O20   O     O_R   0.565520 0.963010 0.434490 -0.623706
O21   O     O_R   0.999990 0.536930 0.407410 -0.624290
O22   O     O_R   0.000010 0.536930 0.592590 -0.624288
O23   O     O_R   0.499990 0.036930 0.407410 -0.624290
O24   O     O_R   0.500010 0.036930 0.592590 -0.624288
O25   O     O_R   0.999940 0.463010 0.407450 -0.633967
O26   O     O_R   0.000060 0.463010 0.592550 -0.633970
O27   O     O_R   0.499940 0.963010 0.407450 -0.633970
O28   O     O_R   0.500060 0.963010 0.592550 -0.633969
O29   O     O_R   0.963000 0.565420 0.036990 -0.628124
O30   O     O_R   0.037000 0.565420 0.963010 -0.628123
O31   O     O_R   0.463000 0.065420 0.036990 -0.628135
O32   O     O_R   0.537000 0.065420 0.963010 -0.628134
O33   O     O_R   0.963020 0.499940 0.129580 -0.634986
O34   O     O_R   0.036980 0.499940 0.870420 -0.634987
O35   O     O_R   0.463020 0.999940 0.129580 -0.634990
O36   O     O_R   0.536980 0.999940 0.870420 -0.634992
O37   O     O_R   0.036940 0.500000 0.055660 -0.626694
O38   O     O_R   0.963060 0.500000 0.944340 -0.626694
O39   O     O_R   0.536940 0.000000 0.055660 -0.626688
O40   O     O_R   0.463060 0.000000 0.944340 -0.626689
O41   O     O_R   0.963020 0.434470 0.036970 -0.627582
O42   O     O_R   0.036980 0.434470 0.963030 -0.627582
O43   O     O_R   0.463020 0.934470 0.036970 -0.627582
O44   O     O_R   0.536980 0.934470 0.963030 -0.627582
O45   O     O_R   0.499930 0.434510 0.947790 -0.628360
O46   O     O_R   0.500070 0.434510 0.052210 -0.628369
O47   O     O_R   0.999930 0.934510 0.947790 -0.628358
O48   O     O_R   0.000070 0.934510 0.052210 -0.628358
Zn1   Zn    Zn3+2 0.000000 0.549330 0.500000 0.926810
Zn2   Zn    Zn3+2 0.500000 0.049330 0.500000 0.926811
Zn3   Zn    Zn3+2 0.000000 0.450610 0.500000 0.924428
Zn4   Zn    Zn3+2 0.500000 0.950610 0.500000 0.924428
Zn5   Zn    Zn3+2 0.950610 0.499940 0.049380 0.927046
Zn6   Zn    Zn3+2 0.049390 0.499940 0.950620 0.927046
Zn7   Zn    Zn3+2 0.450610 0.999940 0.049380 0.927042
Zn8   Zn    Zn3+2 0.549390 0.999940 0.950620 0.927040
Zn9   Zn    Zn3+2 0.499970 0.499980 0.930220 0.938026
Zn10  Zn    Zn3+2 0.500030 0.499980 0.069780 0.938020
Zn11  Zn    Zn3+2 0.999970 0.999980 0.930220 0.938016
Zn12  Zn    Zn3+2 0.000030 0.999980 0.069780 0.938016
C153  C     C_3   0.934254 0.557428 0.376915 -0.902658
H85   H     H_    0.926858 0.554472 0.434532 0.260343
H86   H     H_    0.956718 0.585806 0.346712 0.246969
H87   H     H_    0.902242 0.564736 0.385426 0.237995
C154  C     C_3   0.065743 0.557432 0.623089 -0.902653
H88   H     H_    0.073139 0.554477 0.565471 0.260344
H89   H     H_    0.043278 0.585809 0.653293 0.246968
H90   H     H_    0.097755 0.564741 0.614577 0.237995
C155  C     C_3   0.434248 0.057420 0.376920 -0.902666
H91   H     H_    0.426855 0.054465 0.434536 0.260344
H92   H     H_    0.456708 0.085801 0.346718 0.246969
H93   H     H_    0.402234 0.064723 0.385437 0.237997
C156  C     C_3   0.565737 0.057440 0.623095 -0.902647
H94   H     H_    0.573136 0.054485 0.565476 0.260345
H95   H     H_    0.543267 0.085814 0.653301 0.246968
H96   H     H_    0.597747 0.064754 0.614588 0.237992
C157  C     C_3   0.052036 0.430315 0.135911 -0.921025
H97   H     H_    0.082250 0.450078 0.114743 0.244420
H98   H     H_    0.056463 0.397466 0.153721 0.242135
H99   H     H_    0.048679 0.424214 0.088669 0.255919
C158  C     C_3   0.947969 0.430312 0.864084 -0.921026
H100  H     H_    0.917753 0.450072 0.885253 0.244418
H101  H     H_    0.943544 0.397463 0.846273 0.242135
H102  H     H_    0.951326 0.424212 0.911327 0.255918
C159  C     C_3   0.552044 0.930320 0.135904 -0.921022
H103  H     H_    0.582256 0.950086 0.114737 0.244420
H104  H     H_    0.556476 0.897472 0.153711 0.242134
H105  H     H_    0.548687 0.924217 0.088662 0.255921
C160  C     C_3   0.447978 0.930307 0.864076 -0.921032
H106  H     H_    0.417759 0.950064 0.885244 0.244418
H107  H     H_    0.443558 0.897457 0.846261 0.242138
H108  H     H_    0.451335 0.924209 0.911319 0.255917
C161  C     C_3   0.084389 0.522792 0.228275 -0.440921
C162  C     C_3   0.116781 0.561083 0.187121 -0.895879
H109  H     H_    0.122872 0.567173 0.131002 0.260698
H110  H     H_    0.103731 0.591637 0.222012 0.258588
H111  H     H_    0.148899 0.552764 0.177484 0.261920
H112  H     H_    0.083081 0.515866 0.280113 0.214628
H113  H     H_    0.098309 0.492973 0.191697 0.212710
C163  C     C_3   0.915610 0.522788 0.771725 -0.440923
C164  C     C_3   0.883216 0.561078 0.812878 -0.895835
H114  H     H_    0.877122 0.567168 0.868998 0.260688
H115  H     H_    0.896266 0.591633 0.777988 0.258588
H116  H     H_    0.851099 0.552758 0.822510 0.261915
H117  H     H_    0.916919 0.515861 0.719885 0.214633
H118  H     H_    0.901691 0.492969 0.808302 0.212703
C165  C     C_3   0.584386 0.022802 0.228277 -0.440925
C166  C     C_3   0.616773 0.061097 0.187130 -0.895863
H119  H     H_    0.622865 0.067188 0.131011 0.260697
H120  H     H_    0.603718 0.091649 0.222025 0.258588
H121  H     H_    0.648892 0.052783 0.177495 0.261914
H122  H     H_    0.583079 0.015875 0.280114 0.214632
H123  H     H_    0.598310 0.992985 0.191694 0.212708
C167  C     C_3   0.415608 0.022778 0.771726 -0.440923
C168  C     C_3   0.383209 0.061063 0.812885 -0.895866
H124  H     H_    0.377115 0.067152 0.869005 0.260696
H125  H     H_    0.396254 0.091619 0.777999 0.258587
H126  H     H_    0.351093 0.052739 0.822517 0.261922
H127  H     H_    0.416918 0.015851 0.719886 0.214630
H128  H     H_    0.401694 0.992956 0.808299 0.212708
C169  C     C_3   0.773817 0.578174 0.777984 -0.944231
H129  H     H_    0.753784 0.594579 0.761372 0.244176
H130  H     H_    0.751834 0.567736 0.838434 0.250243
H131  H     H_    0.797603 0.602856 0.772960 0.236657
C170  C     C_3   0.226179 0.578143 0.221915 -0.944251
H132  H     H_    0.246211 0.594573 0.238507 0.244178
H133  H     H_    0.248163 0.567681 0.161477 0.250246
H134  H     H_    0.202392 0.602812 0.226907 0.236661
C171  C     C_3   0.273819 0.078156 0.778045 -0.944240
H135  H     H_    0.253786 0.094576 0.761446 0.244180
H136  H     H_    0.251835 0.067704 0.838488 0.250244
H137  H     H_    0.297605 0.102832 0.773040 0.236659
C172  C     C_3   0.726181 0.078159 0.221963 -0.944241
H138  H     H_    0.746212 0.094577 0.238566 0.244179
H139  H     H_    0.748165 0.067708 0.161520 0.250245
H140  H     H_    0.702394 0.102834 0.226970 0.236658
C173  C     C_3   0.635283 0.433683 0.945605 -0.414513
C174  C     C_3   0.633479 0.448204 0.015213 -0.827761
H141  H     H_    0.667461 0.452764 0.000139 0.246318
H142  H     H_    0.614945 0.479725 0.038160 0.272398
H143  H     H_    0.616453 0.422500 0.060099 0.239353
H144  H     H_    0.601352 0.425995 0.962762 0.211313
H145  H     H_    0.654047 0.402154 0.923706 0.193343
C175  C     C_3   0.364725 0.433635 0.054467 -0.414533
C176  C     C_3   0.366523 0.448109 0.984845 -0.827769
H146  H     H_    0.332540 0.452650 0.999916 0.246321
H147  H     H_    0.385052 0.479630 0.961859 0.272393
H148  H     H_    0.383553 0.422388 0.939990 0.239362
H149  H     H_    0.398659 0.425966 0.037314 0.211289
H150  H     H_    0.345967 0.402105 0.076406 0.193356
C177  C     C_3   0.135280 0.933659 0.945568 -0.414494
C178  C     C_3   0.133481 0.948156 0.015182 -0.827708
H151  H     H_    0.167463 0.952707 0.000108 0.246306
H152  H     H_    0.114948 0.979676 0.038152 0.272384
H153  H     H_    0.116455 0.922442 0.060051 0.239379
H154  H     H_    0.101347 0.925980 0.962724 0.211320
H155  H     H_    0.154041 0.902129 0.923647 0.193344
C179  C     C_3   0.864721 0.933660 0.054428 -0.414493
C180  C     C_3   0.866521 0.948158 0.984814 -0.827707
H156  H     H_    0.832538 0.952708 0.999887 0.246305
H157  H     H_    0.885052 0.979679 0.961848 0.272384
H158  H     H_    0.883548 0.922446 0.939943 0.239378
H159  H     H_    0.898653 0.925981 0.037273 0.211321
H160  H     H_    0.845961 0.902130 0.076347 0.193344
C181  C     C_3   0.083716 0.729498 0.930840 -0.385378
C182  C     C_3   0.126094 0.702164 0.895025 -0.915138
H161  H     H_    0.124741 0.681164 0.938635 0.260261
H162  H     H_    0.131154 0.681354 0.848108 0.261013
H163  H     H_    0.154908 0.724738 0.870869 0.254727
H164  H     H_    0.087678 0.751388 0.885838 0.213179
H165  H     H_    0.081123 0.750837 0.975249 0.211727
C183  C     C_3   0.916284 0.729499 0.069156 -0.385376
C184  C     C_3   0.873907 0.702166 0.104969 -0.915138
H166  H     H_    0.875261 0.681165 0.061358 0.260259
H167  H     H_    0.868844 0.681356 0.151887 0.261012
H168  H     H_    0.845092 0.724740 0.129121 0.254727
H169  H     H_    0.912322 0.751388 0.114159 0.213178
H170  H     H_    0.918878 0.750839 0.024747 0.211727
C185  C     C_3   0.583738 0.229497 0.930522 -0.385382
C186  C     C_3   0.626135 0.202164 0.894436 -0.915136
H171  H     H_    0.624899 0.181147 0.937921 0.260234
H172  H     H_    0.631081 0.181370 0.847590 0.261037
H173  H     H_    0.654961 0.224736 0.870130 0.254729
H174  H     H_    0.587598 0.251418 0.885635 0.213245
H175  H     H_    0.581244 0.250804 0.974876 0.211657
C187  C     C_3   0.416259 0.229496 0.069472 -0.385381
C188  C     C_3   0.373865 0.202163 0.105535 -0.915130
H176  H     H_    0.375108 0.181150 0.062039 0.260233
H177  H     H_    0.368912 0.181364 0.152383 0.261033
H178  H     H_    0.345039 0.224736 0.129834 0.254727
H179  H     H_    0.412394 0.251412 0.114369 0.213239
H180  H     H_    0.418758 0.250808 0.025119 0.211662
C189  C     C_3   0.030412 0.581905 0.159608 -0.983240
H181  H     H_    0.999548 0.597197 0.207885 0.249568
H182  H     H_    0.058497 0.602826 0.147238 0.253577
H183  H     H_    0.029946 0.582768 0.108580 0.254294
C190  C     C_3   0.969582 0.581904 0.840398 -0.983240
H184  H     H_    0.000445 0.597198 0.792122 0.249567
H185  H     H_    0.941496 0.602823 0.852769 0.253577
H186  H     H_    0.970048 0.582767 0.891425 0.254294
C191  C     C_3   0.530403 0.081908 0.159616 -0.983222
H187  H     H_    0.499536 0.097196 0.207894 0.249562
H188  H     H_    0.558485 0.102832 0.147250 0.253580
H189  H     H_    0.529937 0.082770 0.108588 0.254302
C192  C     C_3   0.469573 0.081901 0.840405 -0.983227
H190  H     H_    0.500434 0.097198 0.792131 0.249562
H191  H     H_    0.441484 0.102817 0.852778 0.253580
H192  H     H_    0.470039 0.082764 0.891432 0.254308

loop_
_geom_bond_atom_site_label_1
_geom_bond_atom_site_label_2
_ccdc_geom_bond_type
C169  H129  S    
C55   C59   A    
C122  H54   S    
C79   C87   A    
C164  H114  S    
C11   H7    S    
C191  H187  S    
O4    Zn2   S    
C150  C190  S    
C15   H11   S    
C6    C146  S    
C95   C99   A    
C191  H189  S    
C83   C155  S    
C99   H43   S    
C48   C144  S    
C31   C59   S    
C84   H28   S    
C9    C13   A    
C146  C150  S    
C11   C15   A    
C77   C91   A    
C152  H4    S    
C161  H112  S    
C3    C19   S    
C151  H3    S    
O32   Zn8   S    
C7    C147  S    
C82   C154  S    
C172  H140  S    
C74   O8    A    
C122  C126  A    
C105  H45   S    
O1    Zn1   S    
C124  H56   S    
O29   Zn5   S    
C25   C169  S    
C2    O18   A    
O35   Zn7   S    
C136  C152  S    
C188  H178  S    
C100  H44   S    
C25   C29   A    
C170  H134  S    
C36   H20   S    
C162  H109  S    
C27   C31   A    
C28   C32   A    
C46   C142  S    
C111  H51   S    
O8    Zn12  S    
C192  H192  S    
C56   H32   S    
C126  C129  A    
C154  H88   S    
O19   Zn4   S    
C17   C21   A    
C80   C92   A    
C158  H102  S    
C19   C23   A    
C94   H38   S    
C177  H155  S    
C72   O6    A    
C10   C30   A    
C16   C20   A    
C190  H186  S    
C82   H26   S    
C168  H125  S    
C78   C183  S    
C67   O42   A    
C44   C74   S    
C27   C171  S    
C181  H165  S    
C64   O34   A    
C23   H15   S    
C169  H131  S    
C96   C104  A    
C79   C185  S    
C176  H146  S    
C112  H52   S    
C116  H66   S    
C177  C178  S    
C76   O16   A    
C123  C127  A    
C164  H116  S    
C154  H90   S    
C48   O24   A    
C64   C146  S    
C163  C164  S    
C5    C137  S    
C73   O11   A    
C69   C101  S    
C135  H71   S    
C134  C163  S    
C8    C140  S    
C179  H159  S    
C47   O27   A    
C186  H171  S    
C83   C117  S    
C80   C88   A    
C171  H135  S    
C83   C143  S    
C49   C53   A    
O31   Zn7   S    
C117  H67   S    
C51   C55   A    
C167  C168  S    
C179  C180  S    
C4    C20   S    
C125  C129  A    
C159  H103  S    
C34   C58   A    
C94   C98   A    
C139  H79   S    
C184  H166  S    
O24   Zn2   S    
C175  C176  S    
O25   Zn3   S    
C43   C73   S    
C108  H48   S    
C47   C143  S    
C123  C132  A    
C7    C159  S    
C168  H124  S    
C93   C103  A    
C112  C114  A    
C181  C182  S    
C168  H126  S    
C189  H181  S    
C16   H12   S    
O33   Zn5   S    
C98   H42   S    
C139  H75   S    
C53   H29   S    
O39   Zn8   S    
C133  C161  S    
C38   H22   S    
O41   Zn5   S    
C84   C144  S    
C97   H41   S    
C77   C181  S    
C115  H61   S    
C138  H74   S    
C160  H107  S    
C174  H141  S    
C149  H1    S    
C62   O32   A    
C76   C130  S    
C63   O37   A    
O47   Zn11  S    
C178  H151  S    
C134  H70   S    
C176  H148  S    
C151  C191  S    
C75   O14   A    
C10   H6    S    
C5    C157  S    
C41   C71   S    
C44   C52   A    
C135  C143  S    
C6    H82   S    
C77   C85   A    
C187  H179  S    
C153  H86   S    
C84   C156  S    
C149  C189  S    
C156  H95   S    
C85   H33   S    
C140  H76   S    
C5    C145  S    
O28   Zn4   S    
C186  H173  S    
C12   C16   A    
C138  H78   S    
C39   H23   S    
C10   C14   A    
C171  H137  S    
C40   H24   S    
C125  H57   S    
C87   H35   S    
C1    O1    A    
O11   Zn12  S    
O12   Zn11  S    
C174  H143  S    
C22   H14   S    
O23   Zn2   S    
C147  C151  S    
C121  C125  A    
C74   O12   A    
C45   O25   A    
C69   O46   A    
C136  H72   S    
O9    Zn10  S    
C159  H105  S    
C175  H150  S    
O30   Zn6   S    
C184  H168  S    
C8    C160  S    
O2    Zn1   S    
C42   C50   A    
C26   C30   A    
C118  H68   S    
C187  C188  S    
C155  H93   S    
C65   C147  S    
C4    O20   A    
C93   C97   A    
C122  C131  A    
C182  H161  S    
C189  H183  S    
C163  H118  S    
C21   C25   A    
C183  H169  S    
C18   C22   A    
C107  C111  A    
C24   C28   A    
C93   H37   S    
O13   Zn9   S    
C1    C17   S    
C124  C128  A    
C185  H175  S    
C96   H40   S    
C173  H145  S    
C81   H25   S    
C107  H47   S    
C107  C120  A    
C167  H127  S    
C178  H153  S    
C96   C100  A    
C26   C170  S    
C37   C41   A    
C61   O30   A    
C40   C44   A    
C166  H119  S    
C84   C118  S    
C51   C177  S    
C118  H64   S    
C63   C145  S    
C172  H139  S    
C46   O22   A    
C106  C119  A    
C65   O39   A    
C120  C131  S    
C35   H19   S    
C66   O40   A    
C121  H53   S    
C82   C142  S    
C33   H17   S    
C68   O44   A    
C188  H177  S    
O18   Zn3   S    
C15   C19   A    
C170  H133  S    
C50   C54   A    
C162  H110  S    
O22   Zn1   S    
C108  C120  A    
O5    Zn9   S    
C180  H158  S    
C192  H191  S    
O48   Zn12  S    
C70   O47   A    
C21   H13   S    
O20   Zn4   S    
C35   C59   A    
C153  H85   S    
C41   C49   A    
C158  H101  S    
C105  C109  A    
O40   Zn7   S    
C47   O23   A    
C152  C192  S    
C190  H185  S    
C162  H111  S    
C110  H50   S    
C133  H69   S    
C67   O41   A    
C181  H164  S    
C106  H46   S    
C191  H188  S    
C169  H130  S    
O16   Zn12  S    
C45   C141  S    
C8    C148  S    
C164  H115  S    
C1    O17   A    
C154  H89   S    
O42   Zn6   S    
C7    H83   S    
C148  C152  S    
C137  H77   S    
C138  C142  S    
C85   C89   A    
O46   Zn10  S    
C64   O38   A    
C135  C165  S    
C108  C112  A    
C186  H172  S    
C14   H10   S    
C35   C39   A    
C134  C142  S    
C166  H121  S    
C9    H5    S    
O21   Zn1   S    
C4    O4    A    
C12   H8    S    
C13   H9    S    
C8    H84   S    
C29   C57   S    
C94   C103  A    
C140  H80   S    
O37   Zn6   S    
C32   C60   S    
C136  C167  S    
C137  C141  S    
C53   C57   A    
O27   Zn4   S    
C140  C144  S    
C86   C89   A    
C128  C130  A    
O34   Zn6   S    
C180  H156  S    
C70   C102  S    
C45   O21   A    
C83   H27   S    
C98   C101  A    
C115  C145  S    
O10   Zn9   S    
C133  C141  S    
C117  C147  S    
O15   Zn11  S    
C109  H49   S    
C82   C116  S    
C136  C144  S    
C128  H60   S    
C43   C51   A    
C157  H97   S    
C135  C151  S    
C165  H123  S    
C80   C187  S    
C111  C114  A    
C63   O33   A    
C160  H106  S    
C33   C37   A    
C157  H98   S    
C118  C148  S    
C56   C60   A    
C99   C102  A    
C50   C175  S    
C183  C184  S    
C178  H152  S    
C155  H91   S    
C22   C26   A    
C87   C90   A    
C176  H147  S    
C55   H31   S    
C185  H174  S    
C105  C119  A    
C75   O13   A    
C76   O15   A    
C145  C149  S    
C3    O3    A    
C116  C146  S    
C165  C166  S    
C187  H180  S    
O14   Zn10  S    
C2    C18   S    
C161  C162  S    
C14   C18   A    
C91   C104  S    
C68   O43   A    
C156  H94   S    
C124  C132  A    
O44   Zn8   S    
C13   C17   A    
C24   H16   S    
C38   C42   A    
C171  H136  S    
O7    Zn11  S    
C134  C150  S    
C30   C58   S    
C117  H63   S    
C92   C103  S    
C69   O45   A    
C20   C24   A    
C159  H104  S    
C137  H73   S    
C54   H30   S    
C23   C27   A    
C184  H167  S    
C34   H18   S    
C9    C29   A    
O45   Zn9   S    
C78   C86   A    
C81   C141  S    
O26   Zn3   S    
C11   C31   A    
C5    H81   S    
C165  H122  S    
C12   C32   A    
C139  C143  S    
C121  C131  A    
C42   C72   S    
C61   C89   S    
O6    Zn10  S    
C182  H162  S    
C189  H182  S    
C161  H113  S    
C183  H170  S    
C28   C172  S    
C36   C40   A    
C133  C149  S    
C71   O5    A    
C116  H62   S    
C177  H154  S    
C126  H58   S    
C188  H176  S    
C2    O2    A    
C157  H99   S    
C39   C43   A    
C155  H92   S    
C48   O28   A    
C6    C138  S    
C160  H108  S    
C173  H144  S    
C163  H117  S    
C81   C153  S    
C62   O31   A    
C182  H163  S    
C185  C186  S    
C73   O7    A    
C167  H128  S    
C66   C148  S    
C81   C115  S    
C100  C102  A    
C119  C132  S    
C123  H55   S    
C109  C113  A    
C110  C113  A    
C61   O29   A    
C79   C92   A    
C6    C158  S    
C127  H59   S    
O3    Zn2   S    
C166  H120  S    
O43   Zn7   S    
C153  H87   S    
C95   C104  A    
C172  H138  S    
C54   C58   A    
C156  H96   S    
C33   C57   A    
C34   C38   A    
C49   C173  S    
C88   C90   A    
C36   C60   A    
C52   C179  S    
O17   Zn3   S    
C86   H34   S    
C95   H39   S    
C78   C91   A    
C46   O26   A    
C170  H132  S    
C67   C113  S    
C127  C130  A    
C72   O10   A    
C179  H160  S    
C173  C174  S    
O36   Zn8   S    
C7    C139  S    
C180  H157  S    
C192  H190  S    
C70   O48   A    
C62   C90   S    
C174  H142  S    
C175  H149  S    
C158  H100  S    
C65   O35   A    
O38   Zn5   S    
C3    O19   A    
C66   O36   A    
C37   H21   S    
C75   C129  S    
C88   H36   S    
C106  C110  A    
C190  H184  S    
C150  H2    S    
C71   O9    A    
C115  H65   S    
C97   C101  A    
C52   C56   A    
C68   C114  S    
