data_mof_unit_44530.cif
_audit_creation_date              2012-12-10T19:00:46-0500
_audit_creation_method            fapswitch 2.2
_symmetry_space_group_name_H-M    P1
_symmetry_Int_Tables_number       1
_space_group_crystal_system       triclinic
_cell_length_a                    15.042258
_cell_length_b                    10.828053
_cell_length_c                    9.571565
_cell_angle_alpha                 90.105169
_cell_angle_beta                  90.247315
_cell_angle_gamma                 90.600728
_cell_volume                      1558.89790667

loop_
_atom_site_label
_atom_site_type_symbol
_atom_type_description
_atom_site_fract_x
_atom_site_fract_y
_atom_site_fract_z
_atom_type_partial_charge
C1    C     C_R   0.498350 0.262453 0.500013 0.845056
C2    C     C_R   0.907773 0.562513 0.400744 0.123594
C3    C     C_R   0.948920 0.353037 0.700785 -0.298252
C4    C     C_R   0.041770 0.348209 0.703450 0.183502
C5    C     C_R   0.092392 0.413967 0.601782 0.027456
C6    C     C_R   0.046524 0.487678 0.502239 -0.045855
C7    C     C_R   0.093673 0.558388 0.402447 0.123034
C8    C     C_R   0.048104 0.629333 0.303486 -0.172469
C9    C     C_R   0.955681 0.630991 0.302265 -0.217503
C10   C     C_R   0.186593 0.410271 0.595062 0.353633
C11   C     C_R   0.232116 0.487597 0.499985 -0.143635
C12   C     C_R   0.328909 0.495497 0.499848 0.885004
C13   C     C_R   0.185839 0.558951 0.403637 -0.275251
C14   C     C_R   0.494345 0.063455 0.624692 0.172949
C15   C     C_R   0.488622 0.129443 0.500258 -0.132773
C16   C     C_R   0.467567 0.065652 0.376582 -0.211976
C17   C     C_R   0.464511 0.936224 0.374436 0.133307
C18   C     C_R   0.485574 0.870721 0.498539 -0.126534
C19   C     C_R   0.493387 0.936521 0.623657 0.104946
C20   C     C_3   0.561600 0.929368 0.737221 -0.475678
C21   C     C_3   0.562586 0.069684 0.738374 -0.465969
C22   C     C_R   0.545071 0.589657 0.074561 0.187440
C23   C     C_R   0.496719 0.737572 0.499648 0.796557
C24   C     C_R   0.446037 0.421949 0.072235 0.425295
C25   C     C_R   0.446984 0.421570 0.924038 -0.102538
C26   C     C_R   0.546482 0.588192 0.927560 0.214041
C27   C     C_3   0.644714 0.615012 0.927723 -0.067700
C28   C     C_3   0.641278 0.621237 0.086492 -0.541625
C29   C     C_R   0.671074 0.499915 0.500178 0.796567
C30   C     C_R   0.815117 0.564806 0.400705 -0.265771
C31   C     C_R   0.767516 0.497476 0.500505 -0.053912
C32   C     C_R   0.812012 0.426655 0.600025 -0.225936
C33   C     C_R   0.904583 0.422984 0.600967 0.085054
C34   C     C_R   0.953062 0.490962 0.501407 0.085851
Cu1   Cu    Cu3+1 0.500000 0.499980 0.640670 0.984187
Cu2   Cu    Cu3+1 0.500000 0.500020 0.359330 0.997526
H1    H     H_    0.780060 0.620582 0.324869 0.140569
H2    H     H_    0.534113 0.888453 0.834561 0.204992
H3    H     H_    0.625131 0.888842 0.701013 0.190062
H4    H     H_    0.535541 0.109650 0.836269 0.213034
H5    H     H_    0.626691 0.110814 0.702985 0.186592
H6    H     H_    0.405551 0.356560 0.867039 0.222252
H7    H     H_    0.662481 0.704011 0.876731 0.155772
H8    H     H_    0.680445 0.548444 0.139245 0.217712
H9    H     H_    0.774396 0.372740 0.675130 0.155109
H10   H     H_    0.652188 0.716071 0.128210 0.187561
H11   H     H_    0.911336 0.302447 0.778858 0.143466
H12   H     H_    0.222091 0.616225 0.329870 0.163283
H13   H     H_    0.084078 0.683619 0.226839 0.148050
H14   H     H_    0.921672 0.686221 0.224741 0.143701
H15   H     H_    0.456703 0.115717 0.280524 0.210630
N1    N     N_R   0.500570 0.500930 0.147930 -0.219034
N2    N     N_R   0.500570 0.500890 0.852020 -0.213607
O1    O     O_R   0.500000 0.319640 0.618810 -0.577590
O2    O     O_R   0.500010 0.319680 0.381230 -0.549569
O3    O     O_R   0.370250 0.499950 0.618800 -0.555132
O4    O     O_R   0.370260 0.499990 0.381220 -0.540971
O5    O     O_R   0.499990 0.680320 0.618770 -0.587379
O6    O     O_R   0.500000 0.680360 0.381190 -0.555759
O7    O     O_R   0.629740 0.500010 0.618780 -0.548980
O8    O     O_R   0.629750 0.500050 0.381200 -0.597211
N3    N     N_3   0.443544 0.872483 0.246281 -0.558048
H16   H     H_    0.381144 0.830612 0.258859 0.224490
H17   H     H_    0.437332 0.934692 0.163455 0.220057
Cl1   Cl    Cl    0.371715 0.319352 0.153575 -0.603132
N4    N     N_3   0.697751 0.511251 0.878200 -0.536125
H18   H     H_    0.764273 0.529506 0.903702 0.218510
H19   H     H_    0.679063 0.429708 0.929406 0.221543
N5    N     N_3   0.082862 0.280335 0.814090 -0.488032
H20   H     H_    0.062261 0.317580 0.909353 0.225370
H21   H     H_    0.060107 0.188844 0.808793 0.230644
Cl2   Cl    Cl    0.249443 0.300492 0.690087 -0.594453

loop_
_geom_bond_atom_site_label_1
_geom_bond_atom_site_label_2
_ccdc_geom_bond_type
C24   N1    A    
C23   O5    A    
N4    H19   S    
Cu1   N2    S    
C32   H9    S    
C19   C20   S    
C16   H15   S    
Cu2   O6    S    
C7    C8    A    
C23   O6    A    
C28   H10   S    
C26   C27   S    
Cu1   O5    S    
C14   C21   S    
C25   N2    A    
C5    C6    A    
C3    C33   A    
C15   C16   A    
C18   C19   A    
N5    H21   S    
N3    H17   S    
Cu1   Cu2   S    
C16   C17   A    
C1    C15   S    
Cu2   N1    S    
C2    C34   A    
N4    H18   S    
C22   C28   S    
Cu1   O1    S    
C4    N5    S    
C17   C18   A    
C29   O8    A    
C18   C23   S    
C24   C25   A    
Cu2   O4    S    
C20   H3    S    
C8    C9    A    
C28   H8    S    
C6    C34   A    
C30   H1    S    
Cu1   O7    S    
C1    O1    A    
N3    H16   S    
C17   N3    S    
C20   H2    S    
C31   C32   A    
C29   O7    A    
C33   C34   A    
C12   O3    A    
C24   Cl1   S    
C21   H5    S    
C12   O4    A    
Cu2   O8    S    
C26   N2    A    
C22   N1    A    
Cu1   O3    S    
C14   C19   A    
C9    H14   S    
C4    C5    A    
C25   H6    S    
C13   H12   S    
C11   C12   S    
C6    C7    A    
C2    C30   A    
C32   C33   A    
C1    O2    A    
C5    C10   A    
C29   C31   S    
Cu2   O2    S    
C11   C13   A    
C30   C31   A    
C21   H4    S    
C3    H11   S    
N5    H20   S    
C10   C11   A    
C27   H7    S    
C7    C13   A    
C20   C21   S    
C22   C26   A    
C27   C28   S    
C27   N4    S    
C14   C15   A    
C2    C9    A    
C8    H13   S    
C3    C4    A    
C10   Cl2   S    
