data_mof_unit_66782.cif
_audit_creation_date              2012-12-11T14:22:49-0500
_audit_creation_method            fapswitch 2.2
_symmetry_space_group_name_H-M    P1
_symmetry_Int_Tables_number       1
_space_group_crystal_system       triclinic
_cell_length_a                    8.228399
_cell_length_b                    14.465024
_cell_length_c                    15.50476
_cell_angle_alpha                 93.733826
_cell_angle_beta                  100.922879
_cell_angle_gamma                 91.124844
_cell_volume                      1807.19571538

loop_
_atom_site_label
_atom_site_type_symbol
_atom_type_description
_atom_site_fract_x
_atom_site_fract_y
_atom_site_fract_z
_atom_type_partial_charge
Ba1   Ba    Ba6+2 0.142880 0.544780 0.454020 1.596500
Ba2   Ba    Ba6+2 0.667290 0.455210 0.545900 1.585361
C1    C     C_3   0.126355 0.911284 0.157530 0.015299
C2    C     C_3   0.172459 0.889502 0.253536 0.470465
C3    C     C_3   0.411427 0.726805 0.809289 0.006526
C4    C     C_3   0.487538 0.808966 0.873312 0.667184
C5    C     C_3   0.982540 0.192262 0.789263 1.071955
C6    C     C_3   0.970717 0.105726 0.842901 0.607931
C7    C     C_3   0.415617 0.159897 0.766062 0.723425
C8    C     C_3   0.479566 0.192722 0.861782 -0.436561
C9    C     C_R   0.026238 0.939229 0.530122 0.145156
C10   C     C_R   0.814444 0.806994 0.506037 -0.014514
C11   C     C_R   0.651767 0.777582 0.469165 -0.202043
C12   C     C_3   0.686064 0.778197 0.219681 0.189796
C13   C     C_R   0.535904 0.837966 0.428611 -0.201964
C14   C     C_R   0.580142 0.931429 0.426096 0.192081
C15   C     C_R   0.743348 0.964604 0.459675 -0.150192
C16   C     C_R   0.863476 0.902712 0.499837 0.059964
C17   C     C_R   0.946725 0.096398 0.488152 0.131151
C18   C     C_R   0.069299 0.033272 0.521398 -0.170170
C19   C     C_R   0.992019 0.193908 0.492841 -0.069710
C20   C     C_R   0.151271 0.223821 0.533558 -0.272651
C21   C     C_R   0.272246 0.161160 0.560697 0.032491
C22   C     C_R   0.234581 0.065944 0.548407 -0.003278
C23   C     C_3   0.695942 0.883674 0.220591 0.165213
C24   C     C_R   0.786045 0.059251 0.453229 -0.173879
C25   C     C_R   0.252238 0.454744 0.765807 -0.243602
C26   C     C_R   0.178521 0.404680 0.822618 -0.053990
C27   C     C_R   0.269180 0.396574 0.909360 0.500437
C28   C     C_R   0.389285 0.464648 0.948956 0.101178
C29   C     C_R   0.464623 0.512713 0.888423 -0.356833
C30   C     C_R   0.399336 0.505388 0.796831 0.053121
C31   C     C_R   0.593645 0.529875 0.084035 -0.068772
C32   C     C_R   0.647811 0.556839 0.173378 -0.094113
C33   C     C_R   0.403950 0.481106 0.207829 0.092946
C34   C     C_3   0.756219 0.336538 0.281574 0.392310
C35   C     C_R   0.332181 0.464786 0.115349 0.278375
C36   C     C_R   0.435881 0.485298 0.050497 -0.076711
C37   C     C_R   0.552800 0.531970 0.233814 -0.382667
C38   C     C_3   0.695620 0.304643 0.185111 -0.497611
C39   C     C_3   0.937274 0.666432 0.717721 0.169735
C40   C     C_3   0.027743 0.660131 0.812053 0.327796
C41   C     C_3   0.265605 0.261495 0.348867 0.169145
C42   C     C_3   0.237651 0.158051 0.322725 0.066059
H1    H     H_    0.236183 0.951461 0.292303 -0.013288
H2    H     H_    0.583398 0.258707 0.177887 0.180242
H3    H     H_    0.665148 0.364506 0.145267 0.163796
H4    H     H_    0.793820 0.266062 0.159375 0.228526
H5    H     H_    0.934715 0.594502 0.687762 0.131307
H6    H     H_    0.811037 0.691933 0.716783 0.121552
H7    H     H_    0.134879 0.615749 0.812169 -0.114857
H8    H     H_    0.070861 0.729921 0.841035 0.173727
H9    H     H_    0.149743 0.290042 0.364073 0.016129
H10   H     H_    0.366988 0.271711 0.407518 0.117103
H11   H     H_    0.238367 0.931991 0.132629 0.121546
H12   H     H_    0.133095 0.146688 0.265393 0.137518
H13   H     H_    0.203183 0.121786 0.377453 -0.007785
H14   H     H_    0.055880 0.873928 0.276339 -0.025427
H15   H     H_    0.039711 0.969413 0.151295 0.007983
H16   H     H_    0.292310 0.749413 0.772776 0.060775
H17   H     H_    0.388689 0.672306 0.851452 0.017369
H18   H     H_    0.488555 0.869101 0.834208 0.128709
H19   H     H_    0.065262 0.849543 0.117059 0.110039
H20   H     H_    0.112775 0.216424 0.808562 -0.280478
H21   H     H_    0.093017 0.075588 0.850259 0.116695
H22   H     H_    0.311055 0.203936 0.740857 0.000389
H23   H     H_    0.520363 0.266881 0.867278 0.151664
H24   H     H_    0.382454 0.182621 0.901060 0.247233
H25   H     H_    0.669789 0.758506 0.285710 -0.030513
H26   H     H_    0.584861 0.150462 0.889053 0.277899
H27   H     H_    0.614620 0.705739 0.471478 0.070453
H28   H     H_    0.488363 0.977751 0.395644 0.067189
H29   H     H_    0.332158 0.017778 0.564255 0.123866
H30   H     H_    0.183673 0.297184 0.541044 0.056093
H31   H     H_    0.120953 0.895757 0.562351 0.080225
H32   H     H_    0.691780 0.103609 0.421849 0.181813
H33   H     H_    0.680676 0.541582 0.041865 0.118259
H34   H     H_    0.578080 0.751287 0.169206 0.140408
H35   H     H_    0.568347 0.559703 0.910323 0.197733
H36   H     H_    0.600406 0.548108 0.303290 0.092091
H37   H     H_    0.190144 0.459191 0.698208 0.050913
H38   H     H_    0.786587 0.911746 0.279399 0.011385
H39   H     H_    0.738044 0.904388 0.160377 0.195577
H40   H     H_    0.653769 0.368218 0.308638 -0.061734
H41   H     H_    0.859714 0.388100 0.286866 0.093558
O1    O     O_2   0.113690 0.728200 0.532750 -0.436731
O2    O     O_3   0.308231 0.303579 0.277534 -0.611764
O3    O     O_3   0.832780 0.743861 0.198309 -0.619049
O4    O     O_2   0.696600 0.271740 0.467230 -0.403134
O5    O     O_3   0.938380 0.387880 0.459490 -0.543660
O6    O     O_3   0.484630 0.331100 0.627330 -0.457464
O7    O     O_3   0.809671 0.258597 0.325906 -0.634776
O8    O     O_3   0.389110 0.548970 0.605210 -0.515453
O9    O     O_3   0.904740 0.378630 0.670330 -0.453087
O10   O     O_2   0.842934 0.440899 0.820928 -0.396395
O11   O     O_3   0.876007 0.262180 0.808332 -0.614011
O12   O     O_3   0.871900 0.612110 0.540440 -0.547321
O13   O     O_3   0.421180 0.451020 0.394720 -0.484306
O14   O     O_2   0.662730 0.548230 0.717350 -0.443800
O15   O     O_3   0.507989 0.698879 0.745935 -0.579411
O16   O     O_2   0.610807 0.174161 0.568073 -0.433398
O17   O     O_3   0.547002 0.169224 0.721306 -0.513734
O18   O     O_3   0.325660 0.668890 0.372600 -0.444732
O19   O     O_2   0.189282 0.823623 0.417807 -0.521711
O20   O     O_3   0.020962 0.729027 0.674596 -0.684952
O21   O     O_3   0.275113 0.812612 0.261101 -0.555283
O22   O     O_2   0.147570 0.451710 0.282630 -0.430515
O23   O     O_3   0.905540 0.621350 0.329600 -0.458409
O24   O     O_2   0.997009 0.598882 0.177287 -0.371601
P1    P     P_3+3 0.947560 0.714050 0.560480 1.085587
P2    P     P_3+3 0.325150 0.423860 0.297970 1.093736
P3    P     P_3+3 0.843905 0.625972 0.216264 1.110857
P4    P     P_3+3 0.862730 0.285940 0.439440 0.904834
P5    P     P_3+3 0.954262 0.369741 0.783939 0.949447
P6    P     P_3+3 0.330818 0.789457 0.372508 1.050230
P7    P     P_3+3 0.480131 0.577891 0.718198 1.071170
P8    P     P_3+3 0.475904 0.208751 0.617254 0.903117
O25   O     O_3   0.924116 0.620807 0.862253 -0.651327
H42   H     H_    0.984854 0.629025 0.924072 0.323791
O26   O     O_3   0.382925 0.120152 0.303011 -0.707646
H43   H     H_    0.383845 0.131058 0.240545 0.336381
S1    S     S_3+6 0.696972 0.793979 0.925175 0.044802
O27   O     O_2   0.799214 0.792362 0.855384 -0.263972
O28   O     O_2   0.758134 0.873743 0.990693 -0.257810
O29   O     O_3   0.719249 0.696249 0.977533 -0.532413
H44   H     H_    0.665049 0.708069 0.028705 0.349609
S2    S     S_3+6 0.365919 0.833203 0.957119 -0.040882
O30   O     O_2   0.338570 0.746444 0.001584 -0.387010
O31   O     O_2   0.453966 0.905571 0.024618 -0.228181
O32   O     O_3   0.182187 0.874344 0.912468 -0.464400
H45   H     H_    0.123312 0.884984 0.962133 0.407346
O33   O     O_3   0.540931 0.920034 0.223255 -0.674886
H46   H     H_    0.555612 0.988191 0.222523 0.303320
O34   O     O_3   0.949820 0.168224 0.698574 -0.646218
H47   H     H_    0.010999 0.214008 0.671233 0.311536
S3    S     S_3+6 0.836092 0.011848 0.787496 0.009236
O35   O     O_2   0.937507 0.927064 0.783949 -0.242750
O36   O     O_2   0.703398 0.993615 0.838695 -0.173241
O37   O     O_3   0.749528 0.031474 0.683377 -0.389535
H48   H     H_    0.737440 0.969868 0.650657 0.342570
S4    S     S_3+6 0.958274 0.127161 0.957685 -0.009994
O38   O     O_2   0.892111 0.042626 0.992047 -0.171241
O39   O     O_2   0.130977 0.145421 0.009135 -0.284506
O40   O     O_3   0.837143 0.215538 0.977014 -0.556749
H49   H     H_    0.897483 0.272705 0.968674 0.409320
S5    S     S_3+6 0.345243 0.040369 0.759743 -0.062268
O41   O     O_2   0.358032 0.010287 0.851448 -0.274655
O42   O     O_2   0.168294 0.030650 0.713599 -0.334542
O43   O     O_3   0.454695 0.969416 0.704409 -0.519466
H50   H     H_    0.384888 0.912043 0.688015 0.337739
O44   O     O_3   0.258624 0.318176 0.952375 -0.688025
H51   H     H_    0.149003 0.289154 0.929912 0.374050
S6    S     S_3+6 0.124085 0.411843 0.084982 -0.102094
O45   O     O_2   0.144264 0.309552 0.089358 -0.225681
O46   O     O_2   0.998052 0.433354 0.140034 -0.285913
O47   O     O_3   0.026249 0.439768 0.985899 -0.522807
H52   H     H_    0.972630 0.498832 0.996968 0.336216

loop_
_geom_bond_atom_site_label_1
_geom_bond_atom_site_label_2
_ccdc_geom_bond_type
C38   H3    S    
O20   P1    S    
C9    C16   A    
Ba1   O5    S    
Ba2   O9    S    
C6    S3    S    
C32   P3    S    
C39   C40   S    
C33   C37   A    
C17   C18   A    
O15   P7    S    
C10   P1    S    
O9    P5    S    
C5    C6    S    
C8    H23   S    
C38   H2    S    
C5    O11   S    
C35   C36   A    
C39   O20   S    
C15   C24   A    
O47   H52   S    
O1    P1    D    
C4    S2    S    
S4    O39   D    
C28   C29   A    
Ba2   P4    S    
C22   H29   S    
O2    P2    S    
C42   O26   S    
O10   P5    D    
C13   C14   A    
O19   P6    D    
C7    S5    S    
C28   C36   S    
Ba1   Ba2   S    
O5    P4    S    
Ba2   O5    S    
C17   C24   A    
O25   H42   S    
C7    H22   S    
C1    H11   S    
C41   H9    S    
C18   C22   A    
Ba2   O12   S    
C7    O17   S    
C14   H28   S    
C24   H32   S    
C21   C22   A    
O6    P8    S    
C6    S4    S    
S6    O46   D    
C7    C8    S    
Ba1   O18   S    
C40   H7    S    
C34   O7    S    
O29   H44   S    
C6    H21   S    
C19   C20   A    
O11   P5    S    
S3    O37   S    
C39   H5    S    
C31   C32   A    
S5    O42   D    
C2    H1    S    
O4    P4    D    
C9    C18   A    
C32   C37   A    
C35   S6    S    
C34   C38   S    
C5    O34   S    
S3    O36   D    
S4    O40   S    
Ba1   O12   S    
O14   P7    D    
C40   O25   S    
C11   H27   S    
C2    O21   S    
O23   P3    S    
O8    P7    S    
Ba2   O4    S    
O18   P6    S    
C41   C42   S    
S2    O31   D    
C27   C28   A    
Ba1   P1    S    
C27   O44   S    
S5    O43   S    
C42   H12   S    
C41   H10   S    
C29   C30   A    
C3    O15   S    
C25   H37   S    
C42   H13   S    
O44   H51   S    
C10   C16   A    
C15   C16   A    
C3    H17   S    
C30   P7    S    
S6    O47   S    
O17   P8    S    
C26   P5    S    
Ba1   O22   S    
C8    H26   S    
C19   P4    S    
Ba2   O14   S    
C8    H24   S    
C11   C13   A    
C23   H38   S    
C12   H25   S    
C13   P6    S    
O24   P3    D    
C4    S1    S    
S1    O28   D    
S2    O30   D    
C39   H6    S    
C33   P2    S    
O26   H43   S    
S5    O41   D    
O7    P4    S    
Ba1   O1    S    
C38   H4    S    
C26   C27   A    
O13   P2    S    
C3    H16   S    
C33   C35   A    
C25   C30   A    
O22   P2    D    
Ba2   O8    S    
O40   H49   S    
Ba1   O13   S    
C21   P8    S    
O37   H48   S    
C29   H35   S    
O34   H47   S    
C1    H19   S    
C34   H41   S    
C31   C36   A    
O21   P6    S    
O16   P8    D    
C37   H36   S    
C4    H18   S    
S1    O29   S    
O32   H45   S    
S6    O45   D    
S2    O32   S    
C41   O2    S    
C9    H31   S    
O43   H50   S    
Ba1   P2    S    
O12   P1    S    
C31   H33   S    
C3    C4    S    
C34   H40   S    
O33   H46   S    
C12   H34   S    
C12   C23   S    
Ba2   O6    S    
C5    H20   S    
Ba1   O23   S    
C12   O3    S    
O3    P3    S    
C10   C11   A    
Ba2   O13   S    
Ba1   O8    S    
C2    H14   S    
C25   C26   A    
C23   H39   S    
C20   H30   S    
C20   C21   A    
S3    O35   D    
S1    O27   D    
S4    O38   D    
C23   O33   S    
C1    C2    S    
C14   C15   A    
C40   H8    S    
C17   C19   A    
C1    H15   S    
