data_mof_unit_53319.cif
_audit_creation_date              2012-12-11T15:30:38-0500
_audit_creation_method            fapswitch 2.2
_symmetry_space_group_name_H-M    P1
_symmetry_Int_Tables_number       1
_space_group_crystal_system       triclinic
_cell_length_a                    7.053954
_cell_length_b                    20.446465
_cell_length_c                    24.286098
_cell_angle_alpha                 89.993998
_cell_angle_beta                  89.907452
_cell_angle_gamma                 88.909774
_cell_volume                      3502.10695751

loop_
_atom_site_label
_atom_site_type_symbol
_atom_type_description
_atom_site_fract_x
_atom_site_fract_y
_atom_site_fract_z
_atom_type_partial_charge
O1    O     O_R   0.507310 0.423620 0.460450 -0.549933
O2    O     O_R   0.170760 0.556060 0.437190 -0.532223
O3    O     O_R   0.004040 0.576380 0.539550 -0.523019
C1    C     C_R   0.338751 0.575996 0.421487 0.746750
O4    O     O_R   0.177350 0.422870 0.454070 -0.539661
O5    O     O_R   0.010680 0.442240 0.556560 -0.543162
C2    C     C_R   0.347905 0.398875 0.443788 0.727353
O6    O     O_R   0.500670 0.557760 0.443440 -0.530706
O7    O     O_3   0.340380 0.506510 0.533610 -0.365626
V1    V     V_3+5 0.064130 0.498790 0.493770 1.501194
O8    O     O_R   0.681170 0.443940 0.562810 -0.537291
C3    C     C_R   0.850643 0.423982 0.578397 0.712534
O9    O     O_R   0.674570 0.577130 0.545930 -0.525217
C4    C     C_R   0.841049 0.601273 0.556276 0.894148
V2    V     V_3+5 0.564560 0.501210 0.506230 1.508315
O10   O     O_3   0.838170 0.493490 0.466390 -0.383863
C5    C     C_R   0.976842 0.837950 0.911156 -0.279751
C6    C     C_R   0.837490 0.663069 0.587997 -0.375843
C7    C     C_R   0.992014 0.719713 0.908282 -0.130934
C8    C     C_R   0.003442 0.777955 0.938137 0.326912
C9    C     C_R   0.945453 0.839373 0.853907 0.642563
C10   C     C_R   0.918296 0.780362 0.823699 -0.065762
C11   C     C_R   0.952169 0.720327 0.851590 -0.245014
C12   C     C_R   0.860259 0.778423 0.766977 -0.187824
C13   C     C_R   0.877931 0.718622 0.736493 -0.193642
C14   C     C_R   0.904387 0.659972 0.766802 0.668525
C15   C     C_R   0.940544 0.661121 0.823096 0.572662
C16   C     C_R   0.762090 0.831334 0.741848 0.629978
C17   C     C_R   0.705230 0.828707 0.686840 0.386528
C18   C     C_R   0.757280 0.774675 0.653409 -0.322463
C19   C     C_R   0.846942 0.718809 0.677948 -0.098861
C20   C     C_R   0.715484 0.774413 0.596198 0.427158
C21   C     C_R   0.744699 0.717507 0.565290 0.447191
C22   C     C_R   0.901053 0.665494 0.642762 0.615401
H1    H     H_    0.011920 0.673832 0.930027 0.208961
C23   C     C_3   0.773598 0.253146 0.798341 0.984195
C24   C     C_3   0.124620 0.242971 0.782874 0.630512
C25   C     C_3   0.109186 0.291774 0.730936 0.041850
H2    H     H_    0.783111 0.351962 0.765138 0.181238
H3    H     H_    0.218551 0.279648 0.699690 0.145985
C26   C     C_1   0.863605 0.377009 0.622955 -0.207180
C27   C     C_3   0.937784 0.202672 0.787805 -0.288083
C28   C     C_3   0.758576 0.301841 0.749111 0.304904
C29   C     C_3   0.908246 0.285909 0.703325 -0.263706
C30   C     C_3   0.879732 0.213123 0.680752 0.690530
C31   C     C_3   0.889398 0.163854 0.732789 0.693174
C32   C     C_1   0.881459 0.336383 0.659209 0.194285
C33   C     C_1   0.950919 0.156956 0.835852 0.298996
C34   C     C_1   0.961941 0.120014 0.874918 -0.149138
C35   C     C_3   0.568180 0.690609 0.256900 -0.484832
C36   C     C_3   0.218321 0.706661 0.251832 0.957903
C37   C     C_3   0.241774 0.758815 0.204920 0.934315
H4    H     H_    0.550680 0.641045 0.238898 0.252144
C38   C     C_1   0.475584 0.879329 0.125028 -0.153129
C39   C     C_3   0.390107 0.708676 0.292327 -0.202355
C40   C     C_3   0.599005 0.741259 0.209707 0.264096
C41   C     C_3   0.436303 0.794186 0.209949 -0.155733
C42   C     C_3   0.439584 0.831082 0.266395 0.113281
C43   C     C_3   0.400393 0.781232 0.314304 0.207538
C44   C     C_1   0.460337 0.841373 0.163354 0.197248
C45   C     C_1   0.364846 0.660745 0.338198 0.177578
C46   C     C_1   0.348823 0.621896 0.375853 -0.142582
H5    H     H_    0.252688 0.793483 0.327390 0.135867
H6    H     H_    0.697990 0.685292 0.281969 0.202280
H7    H     H_    0.734442 0.767044 0.217725 0.209588
H8    H     H_    0.319339 0.867650 0.265250 0.108836
C47   C     C_R   0.450335 0.164103 0.085845 -0.212329
C48   C     C_R   0.364184 0.337847 0.411415 -0.112428
C49   C     C_R   0.269723 0.266454 0.090370 0.491240
C50   C     C_R   0.337534 0.212318 0.060849 -0.342139
C51   C     C_R   0.498736 0.170718 0.141760 0.465242
C52   C     C_R   0.398177 0.217568 0.175477 -0.124761
C53   C     C_R   0.292744 0.268178 0.148195 -0.156451
C54   C     C_R   0.397292 0.216109 0.234903 -0.106388
C55   C     C_R   0.337042 0.273343 0.264560 -0.101933
C56   C     C_R   0.233730 0.321819 0.235768 -0.192313
C57   C     C_R   0.209039 0.318962 0.179257 0.644741
C58   C     C_R   0.436003 0.158221 0.266026 0.449759
C59   C     C_R   0.451298 0.160990 0.323598 0.364310
C60   C     C_R   0.423187 0.220584 0.351870 -0.083990
C61   C     C_R   0.367411 0.278079 0.322816 -0.045587
C62   C     C_R   0.446522 0.222686 0.409412 -0.113891
C63   C     C_R   0.413216 0.280091 0.438739 -0.280021
C64   C     C_R   0.351255 0.338308 0.353380 0.418513
H9    H     H_    0.430364 0.279808 0.483087 0.125759
H10   H     H_    0.298322 0.207225 0.017930 0.157701
H11   H     H_    0.157350 0.360572 0.256749 0.209326
H12   H     H_    0.489255 0.179516 0.432413 0.162995
O11   O     O_R   0.323590 0.942280 0.056590 -0.536396
O12   O     O_R   0.647030 0.077140 0.045940 -0.528066
O13   O     O_R   0.813570 0.057750 0.943430 -0.529388
C65   C     C_R   0.476001 0.101644 0.055723 0.764519
O14   O     O_R   0.653510 0.943950 0.062820 -0.527514
O15   O     O_R   0.820100 0.923600 0.960440 -0.534261
C66   C     C_R   0.485496 0.924284 0.078719 0.703844
O16   O     O_R   0.317060 0.076430 0.039590 -0.549731
O17   O     O_3   0.483830 0.993520 0.966410 -0.367499
V3    V     V_3+5 0.760140 0.001200 0.006230 1.535001
O18   O     O_R   0.149560 0.922820 0.954030 -0.540634
C67   C     C_R   0.982448 0.899203 0.943245 0.846306
O19   O     O_R   0.143080 0.056020 0.937150 -0.534372
C68   C     C_R   0.973658 0.075729 0.921394 0.721026
V4    V     V_3+5 0.259690 0.998730 0.993720 1.501300
O20   O     O_3   0.986120 0.006480 0.033580 -0.377472
F1    F     F_    0.961305 0.603248 0.850169 -0.621176
O21   O     O_3   0.631816 0.828012 0.570652 -0.507781
C69   C     C_3   0.775466 0.864382 0.545202 -0.078934
H13   H     H_    0.846785 0.835845 0.511810 0.138085
H14   H     H_    0.881660 0.881150 0.575755 0.108376
H15   H     H_    0.709615 0.908573 0.526176 0.143468
F2    F     F_    0.796143 0.288204 0.846752 -0.660407
O22   O     O_3   0.279480 0.197212 0.784581 -0.537006
C70   C     C_3   0.350318 0.173685 0.734190 0.071412
H16   H     H_    0.468275 0.203004 0.721979 0.282118
H17   H     H_    0.260339 0.177498 0.698977 0.102860
H18   H     H_    0.390321 0.121310 0.738961 0.218870
O23   O     O_3   0.131295 0.281563 0.832075 -0.520425
C71   C     C_3   0.312864 0.302498 0.847310 0.191118
H19   H     H_    0.295719 0.345843 0.874445 0.100610
H20   H     H_    0.398442 0.317843 0.811578 0.202873
H21   H     H_    0.385744 0.263830 0.871875 0.171846
O24   O     O_3   0.129993 0.357525 0.749630 -0.531798
C72   C     C_3   0.236031 0.397024 0.713382 -0.009372
H22   H     H_    0.248039 0.378337 0.670460 0.093957
H23   H     H_    0.379617 0.404058 0.730559 0.191750
H24   H     H_    0.165845 0.445962 0.711102 0.178777
F3    F     F_    0.714643 0.136329 0.740213 -0.715859
O25   O     O_3   0.024530 0.112185 0.722730 -0.592825
C73   C     C_3   0.962738 0.048511 0.735670 -0.007619
H25   H     H_    0.853759 0.032438 0.705885 0.170553
H26   H     H_    0.907755 0.045172 0.778386 0.185661
H27   H     H_    0.085566 0.014055 0.732250 0.135732
O26   O     O_3   0.698320 0.210684 0.654789 -0.541620
C74   C     C_3   0.669025 0.152044 0.624847 -0.100076
H28   H     H_    0.521961 0.135868 0.632002 0.133851
H29   H     H_    0.766179 0.110862 0.636230 0.170658
H30   H     H_    0.683175 0.161624 0.580096 0.112615
F4    F     F_    0.022962 0.617463 0.659665 -0.629189
F5    F     F_    0.611097 0.219607 0.806581 -0.643466
F6    F     F_    0.578834 0.304434 0.727023 -0.715764
O27   O     O_3   0.024620 0.193546 0.642245 -0.577283
C75   C     C_3   0.032555 0.229679 0.592666 -0.277597
H31   H     H_    0.893074 0.248915 0.578311 0.161929
H32   H     H_    0.088378 0.196861 0.559837 0.159988
H33   H     H_    0.134751 0.269951 0.597010 0.137747
O28   O     O_3   0.601854 0.708606 0.158045 -0.525572
C76   C     C_3   0.789121 0.692360 0.142150 -0.015159
H34   H     H_    0.865179 0.664342 0.174892 0.198376
H35   H     H_    0.866993 0.737282 0.131172 0.195603
H36   H     H_    0.784414 0.661012 0.104930 0.166632
F7    F     F_    0.050888 0.718704 0.280274 -0.739234
F8    F     F_    0.205529 0.644636 0.229025 -0.635723
F9    F     F_    0.229780 0.728495 0.154014 -0.641823
F10   F     F_    0.094958 0.804843 0.207789 -0.713606
O29   O     O_3   0.503809 0.792533 0.363766 -0.538226
C77   C     C_3   0.691570 0.767725 0.363811 0.005680
H37   H     H_    0.769829 0.778764 0.325544 0.202745
H38   H     H_    0.694530 0.714579 0.372947 0.137704
H39   H     H_    0.768998 0.791697 0.397763 0.149394
F11   F     F_    0.683857 0.715832 0.512228 -0.672066
O30   O     O_3   0.616232 0.862400 0.272967 -0.535314
C78   C     C_3   0.591959 0.923865 0.298730 -0.102809
H40   H     H_    0.733684 0.943210 0.308686 0.163705
H41   H     H_    0.510911 0.920111 0.337910 0.142147
H42   H     H_    0.520643 0.959116 0.270394 0.154642
F12   F     F_    0.102393 0.367101 0.155354 -0.631453
O31   O     O_3   0.334803 0.398472 0.327591 -0.573437
C79   C     C_3   0.517383 0.418726 0.312063 -0.219477
H43   H     H_    0.583339 0.384645 0.281537 0.158222
H44   H     H_    0.611620 0.423811 0.348465 0.131199
H45   H     H_    0.504175 0.467509 0.292292 0.187407
O32   O     O_3   0.508871 0.105181 0.351867 -0.541280
C80   C     C_3   0.347739 0.071894 0.370763 -0.259515
H46   H     H_    0.239491 0.105103 0.390007 0.127348
H47   H     H_    0.393743 0.036202 0.402678 0.158202
H48   H     H_    0.283108 0.043691 0.336880 0.154412
O33   O     O_3   0.158406 0.313052 0.063693 -0.513494
C81   C     C_3   0.274326 0.350288 0.028734 -0.033428
H49   H     H_    0.327357 0.320758 0.993276 0.093316
H50   H     H_    0.394960 0.371750 0.051618 0.138467
H51   H     H_    0.187939 0.391451 0.011784 0.178975
O34   O     O_3   0.600077 0.880871 0.666002 -0.520199
C82   C     C_3   0.406055 0.869187 0.675435 -0.071684
H52   H     H_    0.360622 0.823142 0.655309 0.125185
H53   H     H_    0.321375 0.909990 0.657217 0.140850
H54   H     H_    0.372961 0.867714 0.720222 0.157433
O35   O     O_3   0.643328 0.131399 0.162297 -0.524873
C83   C     C_3   0.807143 0.169446 0.166894 -0.160184
H55   H     H_    0.786364 0.210595 0.196424 0.130026
H56   H     H_    0.852788 0.188165 0.125991 0.137356
H57   H     H_    0.923207 0.137984 0.183094 0.137488
O36   O     O_3   0.446481 0.096671 0.242249 -0.513243
C84   C     C_3   0.263407 0.076998 0.226406 -0.204539
H58   H     H_    0.230593 0.094220 0.184180 0.132257
H59   H     H_    0.149596 0.093619 0.255410 0.099927
H60   H     H_    0.261602 0.022792 0.225413 0.152646
O37   O     O_3   0.031589 0.776325 0.994481 -0.554907
C85   C     C_3   0.225751 0.764093 0.004791 -0.142254
H61   H     H_    0.316798 0.800421 0.983810 0.112372
H62   H     H_    0.268342 0.713541 0.992423 0.151448
H63   H     H_    0.251013 0.768707 0.049645 0.219863
F13   F     F_    0.961956 0.897855 0.828032 -0.664635
F14   F     F_    0.866592 0.600699 0.744767 -0.586813
F15   F     F_    0.692080 0.882180 0.772013 -0.631743

loop_
_geom_bond_atom_site_label_1
_geom_bond_atom_site_label_2
_ccdc_geom_bond_type
C13   C19   A    
O18   V4    S    
C55   C56   A    
O19   C68   A    
C39   C43   S    
C35   H6    S    
C4    C6    S    
C23   C27   S    
C7    C8    A    
C1    O6    A    
O25   C73   S    
C57   F12   S    
C74   H30   S    
O17   V3    S    
C72   H22   S    
C38   C44   T    
C80   H46   S    
O32   C80   S    
C14   C15   A    
C17   C18   A    
C83   H57   S    
C31   O25   S    
C16   C17   A    
C76   H35   S    
C73   H25   S    
C82   H53   S    
O5    C3    A    
C18   C19   A    
V3    O20   S    
C72   H23   S    
O21   C69   S    
O15   V3    S    
C37   F10   S    
V2    O10   S    
C1    C46   S    
C65   O16   A    
C5    C8    A    
C40   C41   S    
C83   H56   S    
C27   C31   S    
C24   C27   S    
C71   H19   S    
C24   O22   S    
C25   O24   S    
C49   O33   S    
C2    C48   S    
O34   C82   S    
O8    V2    S    
C42   H8    S    
C79   H45   S    
C76   H34   S    
C84   H59   S    
C69   H13   S    
C49   C53   A    
C85   H61   S    
O1    V2    S    
C11   C15   A    
C18   C20   A    
O7    V1    S    
C36   C39   S    
C45   C46   T    
C84   H58   S    
C21   F11   S    
C52   C53   A    
C70   H18   S    
C79   H44   S    
C36   F7    S    
O14   C66   A    
C20   O21   S    
O9    C4    A    
O11   V4    S    
C30   O27   S    
C69   H14   S    
C75   H33   S    
O37   C85   S    
O27   C75   S    
C23   F2    S    
C10   C11   A    
O22   C70   S    
C13   C14   A    
O30   C78   S    
C78   H41   S    
C80   H47   S    
C85   H62   S    
O29   C77   S    
C35   H4    S    
C54   C55   A    
O28   C76   S    
C36   C37   S    
C16   F15   S    
C81   H49   S    
C31   F3    S    
C76   H36   S    
C58   O36   S    
C12   C13   A    
C60   C62   A    
C17   O34   S    
C82   H54   S    
C34   C68   S    
O4    C2    A    
C43   O29   S    
C58   C59   A    
C55   C61   A    
C72   H24   S    
H2    C28   S    
C37   F9    S    
C30   C31   S    
C22   F4    S    
C5    C9    A    
C70   H17   S    
C83   H55   S    
C71   H21   S    
C48   C64   A    
C59   O32   S    
O11   C66   A    
O2    C1    A    
C28   C29   S    
C82   H52   S    
C25   C29   S    
C24   C25   S    
C78   H42   S    
O12   C65   A    
O18   C67   A    
O15   C67   A    
C84   H60   S    
C85   H63   S    
C26   C32   T    
C19   C22   A    
C23   F5    S    
C28   F6    S    
C27   C33   S    
C56   C57   A    
C6    C22   A    
C56   H11   S    
C38   C66   S    
O17   V4    S    
O3    C4    A    
C71   H20   S    
C52   C54   A    
C33   C34   T    
C63   H9    S    
C36   F8    S    
C62   C63   A    
O6    V2    S    
O9    V2    S    
O26   C74   S    
C69   H15   S    
C10   C12   A    
C6    C21   A    
O13   C68   A    
C50   H10   S    
O31   C79   S    
C61   C64   A    
C29   C30   S    
C7    C11   A    
C3    C26   S    
C70   H16   S    
C80   H48   S    
C79   H43   S    
C53   C57   A    
C77   H37   S    
O1    C2    A    
C48   C63   A    
C30   O26   S    
C9    F13   S    
C77   H39   S    
C12   C16   A    
C51   O35   S    
C60   C61   A    
C41   C44   S    
O5    V1    S    
C81   H50   S    
O8    C3    A    
C29   C32   S    
C74   H28   S    
C78   H40   S    
C43   H5    S    
C35   C39   S    
C47   C50   A    
C20   C21   A    
C73   H27   S    
C77   H38   S    
C14   F14   S    
C42   C43   S    
O35   C83   S    
C64   O31   S    
C7    H1    S    
O23   C71   S    
O36   C84   S    
C25   H3    S    
C41   C42   S    
C62   H12   S    
C39   C45   S    
C47   C65   S    
C74   H29   S    
C47   C51   A    
O13   V3    S    
C40   O28   S    
C49   C50   A    
C5    C67   S    
C35   C40   S    
C8    O37   S    
C81   H51   S    
C37   C41   S    
C59   C60   A    
O4    V1    S    
C24   O23   S    
O19   V4    S    
O33   C81   S    
C54   C58   A    
O16   V4    S    
V4    O20   S    
O3    V1    S    
C15   F1    S    
C75   H31   S    
C23   C28   S    
V1    O10   S    
C51   C52   A    
O24   C72   S    
C9    C10   A    
C42   O30   S    
O14   V3    S    
O12   V3    S    
C75   H32   S    
C40   H7    S    
O7    V2    S    
C73   H26   S    
O2    V1    S    
