data_mof_unit_42214.cif
_audit_creation_date              2012-12-11T14:46:15-0500
_audit_creation_method            fapswitch 2.2
_symmetry_space_group_name_H-M    P1
_symmetry_Int_Tables_number       1
_space_group_crystal_system       triclinic
_cell_length_a                    10.993046
_cell_length_b                    10.875627
_cell_length_c                    18.800872
_cell_angle_alpha                 90.0712
_cell_angle_beta                  89.384127
_cell_angle_gamma                 120.016428
_cell_volume                      1946.16212341

loop_
_atom_site_label
_atom_site_type_symbol
_atom_type_description
_atom_site_fract_x
_atom_site_fract_y
_atom_site_fract_z
_atom_type_partial_charge
C1    C     C_R   0.905041 0.610636 0.611213 0.553777
C2    C     C_R   0.928406 0.118973 0.702001 0.000642
C3    C     C_R   0.940189 0.128381 0.777306 0.002563
C4    C     C_R   0.262261 0.625976 0.606290 0.535617
C5    C     C_R   0.713748 0.129124 0.709535 0.039871
C6    C     C_R   0.741244 0.171420 0.780860 -0.015703
C7    C     C_R   0.582517 0.098235 0.679526 0.199544
C8    C     C_R   0.502301 0.147496 0.714800 -0.121532
C9    C     C_R   0.545714 0.217662 0.779453 -0.159292
C10   C     C_R   0.662894 0.228063 0.812859 -0.084875
C11   C     C_R   0.826088 0.139200 0.668564 -0.038181
C12   C     C_R   0.407984 0.594384 0.779267 -0.148141
C13   C     C_R   0.777833 0.663176 0.703136 -0.133341
C14   C     C_R   0.749947 0.675365 0.773824 -0.149478
C15   C     C_R   0.820145 0.648616 0.827921 0.038852
C16   C     C_R   0.858680 0.221259 0.601291 0.525041
C17   C     C_R   0.926478 0.615767 0.810659 0.134852
C18   C     C_R   0.949186 0.597718 0.738615 -0.101264
C19   C     C_R   0.874055 0.620203 0.685454 0.008229
C20   C     C_R   0.246827 0.567051 0.276004 -0.138295
C21   C     C_R   0.283960 0.589488 0.205358 -0.132911
C22   C     C_R   0.404911 0.714207 0.184045 0.025013
C23   C     C_R   0.360789 0.566609 0.710786 0.118434
C24   C     C_R   0.484444 0.820135 0.233752 -0.156458
C25   C     C_R   0.444826 0.798537 0.305457 -0.150994
C26   C     C_R   0.327967 0.669844 0.326269 0.022794
C27   C     C_R   0.782346 0.250742 0.276234 -0.154173
C28   C     C_R   0.873068 0.636369 0.394515 0.546834
C29   C     C_R   0.777666 0.235028 0.203237 0.107317
C30   C     C_R   0.851903 0.175085 0.171040 0.008908
C31   C     C_R   0.942840 0.148181 0.211483 -0.169794
C32   C     C_R   0.948085 0.165163 0.285106 0.100057
C33   C     C_R   0.860466 0.208862 0.317868 0.015992
C34   C     C_R   0.323926 0.659990 0.676567 0.031821
C35   C     C_R   0.967410 0.722691 0.272672 0.115837
C36   C     C_R   0.945704 0.711503 0.200357 -0.109502
C37   C     C_R   0.810676 0.650183 0.174292 -0.016470
C38   C     C_R   0.693770 0.579040 0.219881 -0.158389
C39   C     C_R   0.714023 0.573899 0.292301 -0.180278
C40   C     C_R   0.277968 0.637783 0.398635 0.522262
C41   C     C_R   0.850199 0.648302 0.319422 0.023939
C42   C     C_R   0.807778 0.102763 0.893815 0.516198
C43   C     C_R   0.456601 0.723720 0.889317 0.563176
C44   C     C_R   0.799568 0.687822 0.899078 0.526363
C45   C     C_R   0.842730 0.151770 0.818110 -0.053319
C46   C     C_R   0.809098 0.109750 0.101402 0.554134
C47   C     C_R   0.454120 0.726526 0.111404 0.557670
C48   C     C_R   0.796043 0.692426 0.103980 0.537947
C49   C     C_R   0.866507 0.238836 0.393300 0.544504
C50   C     C_R   0.330288 0.774613 0.713916 -0.162789
C51   C     C_R   0.378382 0.800818 0.783203 -0.118770
C52   C     C_R   0.415936 0.709326 0.815881 -0.003710
C53   C     C_3   0.573165 0.924732 0.588244 -0.275454
C54   C     C_3   0.033402 0.493125 0.870150 -0.298776
C55   C     C_3   0.550873 0.216984 0.179912 -0.282913
C56   C     C_R   0.050387 0.115772 0.808281 -0.082178
C57   C     C_3   0.975180 0.009875 0.366668 -0.257505
C58   C     C_3   0.209820 0.926576 0.258623 -0.322524
C59   C     C_3   0.448709 0.435523 0.643837 -0.269125
C60   C     C_R   0.130713 0.074187 0.767718 -0.134825
C61   C     C_R   0.109475 0.053211 0.694864 -0.114117
C62   C     C_R   0.012567 0.080089 0.661724 -0.070716
Cr1   Cr    Cr6+3 0.791660 0.390250 0.499930 1.005805
Cr2   Cr    Cr6+3 0.098520 0.708290 0.500540 0.984467
Cr3   Cr    Cr6+3 0.109770 0.401430 0.499480 1.019410
Cr4   Cr    Cr6+3 0.874790 0.925890 0.000070 0.992942
Cr5   Cr    Cr6+3 0.574120 0.948670 0.999300 1.015256
Cr6   Cr    Cr6+3 0.551420 0.625320 0.000920 0.991573
H1    H     H_    0.294289 0.841295 0.690305 0.134682
H2    H     H_    0.505869 0.879272 0.344271 0.114541
H3    H     H_    0.726320 0.298729 0.300350 0.154188
H4    H     H_    0.587675 0.531899 0.199996 0.143678
H5    H     H_    0.623827 0.516471 0.327307 0.128774
H6    H     H_    0.210827 0.059711 0.792848 0.112096
H7    H     H_    0.169660 0.018319 0.663595 0.111134
H8    H     H_    0.079088 0.141011 0.863242 0.140100
H9    H     H_    0.998513 0.063230 0.604912 0.122012
H10   H     H_    0.691793 0.281030 0.863746 0.140109
H11   H     H_    0.437531 0.010085 0.595220 0.236500
H12   H     H_    0.407753 0.134788 0.691091 0.085875
H13   H     H_    0.591621 0.870921 0.633579 0.133345
H14   H     H_    0.668112 0.977096 0.553841 0.146613
H15   H     H_    0.490297 0.844466 0.553953 0.142595
H16   H     H_    0.019128 0.661938 0.911556 0.266153
H17   H     H_    0.935386 0.406046 0.893852 0.130661
H18   H     H_    0.121203 0.515663 0.906349 0.178550
H19   H     H_    0.056233 0.459952 0.818234 0.157119
H20   H     H_    0.381626 0.889000 0.811665 0.154395
H21   H     H_    0.749536 0.386226 0.151898 0.253589
H22   H     H_    0.497988 0.244796 0.138155 0.140487
H23   H     H_    0.485820 0.260159 0.804848 0.108410
H24   H     H_    0.536938 0.258323 0.231519 0.117236
H25   H     H_    0.500192 0.099507 0.182680 0.163481
H26   H     H_    0.002756 0.104844 0.186815 0.135970
H27   H     H_    0.128884 0.153159 0.297204 0.237882
H28   H     H_    0.056743 0.995718 0.393526 0.180181
H29   H     H_    0.912383 0.918748 0.331337 0.158339
H30   H     H_    0.904424 0.013138 0.408158 0.141757
H31   H     H_    0.143483 0.740407 0.315752 0.285615
H32   H     H_    0.296548 0.997507 0.294351 0.147444
H33   H     H_    0.162193 0.986960 0.236317 0.142140
H34   H     H_    0.726770 0.690376 0.662130 0.118851
H35   H     H_    0.254566 0.892417 0.214763 0.142024
H36   H     H_    0.034533 0.761221 0.163953 0.139338
H37   H     H_    0.434885 0.521773 0.804753 0.133292
H38   H     H_    0.284494 0.350447 0.716420 0.250483
H39   H     H_    0.524743 0.437126 0.682583 0.140464
H40   H     H_    0.501136 0.528319 0.607254 0.161473
H41   H     H_    0.408779 0.337350 0.611731 0.141465
H42   H     H_    0.681272 0.716768 0.786450 0.112524
H43   H     H_    0.030199 0.573723 0.723376 0.106649
H44   H     H_    0.153090 0.469462 0.291604 0.145086
H45   H     H_    0.219505 0.507722 0.167634 0.140515
H46   H     H_    0.578376 0.916558 0.217363 0.122351
N1    N     N_2   0.533273 0.026717 0.612639 -0.489386
N2    N     N_2   0.021345 0.618919 0.863078 -0.516250
N3    N     N_2   0.698410 0.278913 0.161737 -0.482535
N4    N     N_2   0.042072 0.139601 0.325400 -0.499074
N5    N     N_2   0.106586 0.804222 0.298718 -0.487449
N6    N     N_2   0.332552 0.434206 0.681152 -0.479991
O1    O     O_R   0.766500 0.250040 0.579790 -0.482932
O2    O     O_R   0.413330 0.603360 0.920440 -0.527998
O3    O     O_R   0.676110 0.626250 0.926750 -0.522680
O4    O     O_R   0.798570 0.516780 0.574780 -0.500515
O5    O     O_R   0.895350 0.809870 0.080950 -0.524052
O6    O     O_R   0.872490 0.049760 0.073800 -0.515820
O7    O     O_R   0.691680 0.088070 0.079070 -0.485685
O8    O     O_R   0.451720 0.825250 0.074050 -0.495997
O9    O     O_R   0.413580 0.606370 0.080960 -0.522623
O10   O     O_R   0.676340 0.629040 0.075550 -0.517838
O11   O     O_3   0.666780 0.833290 0.000090 -0.276835
O12   O     O_R   0.218690 0.701900 0.425960 -0.510892
O13   O     O_R   0.984000 0.732950 0.581090 -0.524726
O14   O     O_R   0.218600 0.700890 0.574760 -0.540535
O15   O     O_R   0.249390 0.515350 0.579940 -0.474952
O16   O     O_R   0.982790 0.280900 0.573700 -0.506744
O17   O     O_R   0.766600 0.251130 0.419260 -0.538320
O18   O     O_R   0.798660 0.517790 0.425980 -0.507377
O19   O     O_R   0.984100 0.734040 0.420570 -0.506526
O20   O     O_R   0.249490 0.516440 0.419420 -0.507753
O21   O     O_R   0.982880 0.281910 0.424890 -0.471631
O22   O     O_3   0.999980 0.499990 0.499980 -0.271121
O23   O     O_R   0.895110 0.806860 0.920430 -0.511730
O24   O     O_R   0.872260 0.046970 0.925000 -0.504913
O25   O     O_R   0.691430 0.085060 0.918550 -0.525486
O26   O     O_R   0.451490 0.822460 0.925250 -0.491647

loop_
_geom_bond_atom_site_label_1
_geom_bond_atom_site_label_2
_ccdc_geom_bond_type
C24   H46   S    
C59   N6    S    
C56   H8    S    
C6    C45   A    
H11   N1    S    
C27   C29   A    
C62   H9    S    
C35   N5    S    
C35   C36   A    
C55   H25   S    
C9    H23   S    
Cr1   O4    S    
C10   H10   S    
C7    C8    A    
C39   C41   A    
C54   H19   S    
C27   C33   A    
C12   C23   A    
C29   C30   A    
Cr2   O22   S    
C47   O9    A    
C4    O14   A    
C36   C37   A    
C50   H1    S    
C15   C44   S    
C5    C11   A    
C55   H22   S    
C49   O17   A    
C12   H37   S    
C43   C52   S    
Cr4   O24   S    
C33   C49   S    
C28   C41   S    
C53   H13   S    
C18   C19   A    
C3    C56   A    
C7    N1    S    
C12   C52   A    
C48   O5    A    
C20   H44   S    
Cr3   O20   S    
Cr2   O12   S    
C8    C9    A    
C57   H28   S    
C49   O21   A    
Cr5   O25   S    
C61   H7    S    
C9    C10   A    
C22   C47   S    
C40   O12   A    
H16   N2    S    
C13   C14   A    
Cr1   O17   S    
C48   O10   A    
C61   C62   A    
C28   O19   A    
C1    O13   A    
C2    C11   A    
Cr6   O3    S    
Cr1   O1    S    
C46   O6    A    
C50   C51   A    
Cr2   O14   S    
H27   N4    S    
C38   C39   A    
C38   H4    S    
C34   C50   A    
C1    C19   S    
C13   C19   A    
C51   C52   A    
C46   O7    A    
C47   O8    A    
C28   O18   A    
C18   H43   S    
C21   H45   S    
Cr6   O2    S    
C23   N6    S    
C54   H18   S    
Cr4   O23   S    
C25   C26   A    
C29   N3    S    
C3    C45   A    
C59   H39   S    
Cr4   O6    S    
C54   N2    S    
C60   C61   A    
C42   C45   S    
Cr6   O11   S    
C16   O1    A    
C37   C38   A    
Cr5   O7    S    
Cr3   O21   S    
C11   C16   S    
C31   C32   A    
C30   C31   A    
C23   C34   A    
C57   H29   S    
Cr5   O26   S    
C17   C18   A    
C58   H32   S    
C58   H33   S    
C24   C25   A    
C37   C48   S    
Cr6   O10   S    
C43   O2    A    
Cr3   O15   S    
C4    O15   A    
C55   H24   S    
H21   N3    S    
C42   O24   A    
Cr1   O18   S    
C22   C24   A    
C16   O16   A    
C27   H3    S    
C5    C7    A    
Cr4   O11   S    
C55   N3    S    
C14   H42   S    
Cr2   O13   S    
H38   N6    S    
C30   C46   S    
Cr5   O11   S    
C32   N4    S    
C51   H20   S    
C6    C10   A    
C54   H17   S    
C53   N1    S    
C15   C17   A    
C25   H2    S    
C31   H26   S    
C44   O3    A    
C59   H40   S    
Cr4   O5    S    
C36   H36   S    
C53   H15   S    
C32   C33   A    
C2    C3    A    
C1    O4    A    
C43   O26   A    
Cr5   O8    S    
Cr3   O22   S    
C26   C40   S    
C5    C6    A    
C20   C26   A    
C44   O23   A    
C57   H30   S    
C40   O20   A    
C60   H6    S    
C58   N5    S    
C59   H41   S    
Cr1   O22   S    
C39   H5    S    
C4    C34   S    
Cr6   O9    S    
C35   C41   A    
Cr3   O16   S    
H31   N5    S    
C56   C60   A    
C20   C21   A    
C8    H12   S    
C14   C15   A    
C53   H14   S    
C58   H35   S    
C13   H34   S    
C21   C22   A    
C42   O25   A    
C2    C62   A    
C17   N2    S    
C57   N4    S    
Cr2   O19   S    
