data_mof_unit_31726.cif
_audit_creation_date              2012-12-10T16:49:23-0500
_audit_creation_method            fapswitch 2.2
_symmetry_space_group_name_H-M    P1
_symmetry_Int_Tables_number       1
_space_group_crystal_system       triclinic
_cell_length_a                    7.80808
_cell_length_b                    8.565275
_cell_length_c                    12.74342
_cell_angle_alpha                 91.095614
_cell_angle_beta                  85.881541
_cell_angle_gamma                 92.929967
_cell_volume                      848.844792868

loop_
_atom_site_label
_atom_site_type_symbol
_atom_type_description
_atom_site_fract_x
_atom_site_fract_y
_atom_site_fract_z
_atom_type_partial_charge
C1    C     C_R   0.456005 0.206328 0.500066 1.041195
C2    C     C_R   0.720054 0.463043 0.130643 -0.058903
C3    C     C_R   0.534747 0.432553 0.874367 -0.116086
C4    C     C_R   0.469423 0.624903 0.133290 -0.111230
C5    C     C_R   0.573780 0.495103 0.972517 0.073181
C6    C     C_R   0.465063 0.606048 0.023042 0.053439
C7    C     C_2   0.438382 0.045912 0.521948 -0.217472
C8    C     C_2   0.562525 0.954520 0.478253 -0.228621
C9    C     C_2   0.349269 0.726208 0.195331 0.565054
C10   C     C_2   0.582479 0.271397 0.839265 0.502083
C11   C     C_2   0.859345 0.394429 0.184919 0.569534
C12   C     C_R   0.544290 0.793900 0.499912 0.842192
C13   C     C_2   0.173510 0.681944 0.803435 0.331985
C14   C     C_2   0.265651 0.827677 0.000719 0.479215
C15   C     C_2   0.879423 0.413071 0.952667 0.460079
C16   C     C_2   0.021973 0.702298 0.473760 0.704812
C17   C     C_2   0.976922 0.297487 0.526483 0.735920
C18   C     C_2   0.323425 0.000220 0.616660 0.402214
C19   C     C_2   0.687039 0.997508 0.387306 0.493846
C20   C     C_R   0.461080 0.502678 0.700490 0.835710
C21   C     C_R   0.539890 0.505435 0.299525 0.935193
C22   C     C_R   0.579391 0.532709 0.186831 -0.142654
C23   C     C_R   0.427990 0.513613 0.814111 -0.173961
C24   C     C_R   0.347652 0.682553 0.962937 -0.065084
C25   C     C_R   0.721612 0.452150 0.020579 -0.055631
C26   C     C_R   0.320688 0.628340 0.860124 -0.024416
H1    H     H_    0.211981 0.712829 0.187043 0.097275
H2    H     H_    0.800099 0.930710 0.371126 0.106758
H3    H     H_    0.572523 0.232810 0.758277 0.086351
H4    H     H_    0.881078 0.270667 0.175530 0.130650
H5    H     H_    0.100907 0.599470 0.756196 0.107145
H6    H     H_    0.126668 0.832645 0.006896 0.106271
H7    H     H_    0.882883 0.429883 0.868372 0.066898
H8    H     H_    0.970535 0.758632 0.545433 0.027763
H9    H     H_    0.031559 0.241306 0.455637 0.043800
H10   H     H_    0.329798 0.886960 0.651668 0.116116
N1    N     N_2   0.054030 0.541640 0.471970 -0.169867
N2    N     N_2   0.945970 0.458360 0.528030 -0.215067
O1    O     O_R   0.609680 0.261530 0.506880 -0.622557
O2    O     O_2   0.622978 0.176129 0.901949 -0.493514
O3    O     O_2   0.956260 0.477465 0.235419 -0.578442
O4    O     O_2   0.129069 0.816524 0.809815 -0.543409
O5    O     O_2   0.353990 0.943578 0.023226 -0.467442
O6    O     O_2   0.007576 0.365528 0.988453 -0.558805
O7    O     O_2   0.065545 0.781285 0.396952 -0.584281
O8    O     O_2   0.926982 0.217909 0.602002 -0.559496
O9    O     O_2   0.225975 0.092250 0.659966 -0.494477
O10   O     O_2   0.659548 0.099776 0.326074 -0.567905
O11   O     O_R   0.390320 0.738470 0.493120 -0.602847
O12   O     O_R   0.323330 0.288220 0.488910 -0.634150
O13   O     O_R   0.676670 0.711780 0.511090 -0.663081
O14   O     O_R   0.619510 0.488830 0.661140 -0.624204
O15   O     O_R   0.380490 0.511170 0.338860 -0.587897
O16   O     O_R   0.333160 0.515520 0.643180 -0.650207
O17   O     O_R   0.666840 0.484480 0.356820 -0.593522
O18   O     O_2   0.403854 0.824773 0.256533 -0.512369
Zn1   Zn    Zn3+2 0.691200 0.482180 0.511990 0.991552
Zn2   Zn    Zn3+2 0.308800 0.517820 0.488010 1.011366

loop_
_geom_bond_atom_site_label_1
_geom_bond_atom_site_label_2
_ccdc_geom_bond_type
C16   O7    D    
C2    C22   A    
O15   Zn2   S    
N1    N2    D    
O13   Zn1   S    
N2    Zn1   S    
C4    C22   A    
C1    O12   A    
C3    C23   A    
N1    Zn2   S    
C20   C23   S    
C16   N1    S    
C8    C12   S    
C7    C18   S    
C6    C24   A    
C18   O9    D    
C12   O11   A    
C21   O17   A    
C7    C8    D    
C20   O14   A    
C9    O18   D    
C21   C22   S    
C21   O15   A    
C19   H2    S    
C10   H3    S    
C5    C25   A    
C2    C11   S    
C10   O2    D    
C13   O4    D    
C24   C26   A    
C15   O6    D    
C11   O3    D    
C2    C25   A    
C17   N2    S    
O17   Zn1   S    
C5    C6    A    
C13   C26   S    
C15   C25   S    
C8    C19   S    
O14   Zn1   S    
C1    O1    A    
O1    Zn1   S    
C12   O13   A    
C14   H6    S    
C17   O8    D    
C9    H1    S    
C20   O16   A    
C4    C6    A    
O16   Zn2   S    
C23   C26   A    
C14   C24   S    
C3    C10   S    
C19   O10   D    
C17   H9    S    
C16   H8    S    
C4    C9    S    
C1    C7    S    
C18   H10   S    
C13   H5    S    
O11   Zn2   S    
C11   H4    S    
C15   H7    S    
C14   O5    D    
C3    C5    A    
O12   Zn2   S    
