data_mof_unit_11824.cif
_audit_creation_date              2013-03-05T16:53:21-0500
_audit_creation_method            fapswitch 2.2
_symmetry_space_group_name_H-M    P1
_symmetry_Int_Tables_number       1
_space_group_crystal_system       triclinic
_cell_length_a                    8.597714
_cell_length_b                    17.585627
_cell_length_c                    16.758964
_cell_angle_alpha                 90.355127
_cell_angle_beta                  98.690369
_cell_angle_gamma                 90.053895
_cell_volume                      2504.74804832

loop_
_atom_site_label
_atom_site_type_symbol
_atom_site_description
_atom_site_fract_x
_atom_site_fract_y
_atom_site_fract_z
_atom_type_partial_charge
O1    O     O_R   0.500000 0.389130 0.566570 -0.586366
O2    O     O_R   0.500000 0.610870 0.433430 -0.584663
O3    O     O_R   0.499990 0.389100 0.433480 -0.630257
O4    O     O_R   0.500010 0.610900 0.566520 -0.630722
C1    C     C_R   0.503306 0.353453 0.500024 0.951652
C2    C     C_R   0.495729 0.646558 0.499912 0.946899
O5    O     O_R   0.271750 0.500010 0.550980 -0.632675
O6    O     O_R   0.728250 0.499990 0.449020 -0.632228
O7    O     O_R   0.271740 0.499980 0.417890 -0.601880
O8    O     O_R   0.728260 0.500020 0.582110 -0.603165
C3    C     C_R   0.200607 0.499933 0.478994 1.000222
C4    C     C_R   0.799393 0.500045 0.521006 1.001787
Zn1   Zn    Zn3+2 0.500010 0.500020 0.588860 1.007355
Zn2   Zn    Zn3+2 0.499990 0.499980 0.411140 1.009337
C5    C     C_2   0.035790 0.500088 0.467518 -0.338477
C6    C     C_2   0.964211 0.499869 0.532481 -0.339852
H1    H     H_    0.973796 0.500456 0.405900 0.189777
H2    H     H_    0.026206 0.499500 0.594098 0.189354
C7    C     C_R   0.558767 0.847028 0.572021 0.339631
C8    C     C_R   0.409820 0.154510 0.430337 0.341739
C9    C     C_R   0.562705 0.767944 0.568115 -0.274975
C10   C     C_R   0.418056 0.233602 0.433231 -0.276110
H3    H     H_    0.626833 0.736582 0.618039 0.211658
H4    H     H_    0.354882 0.266267 0.384064 0.210377
C11   C     C_R   0.485095 0.728794 0.500506 -0.215087
C12   C     C_R   0.505876 0.271146 0.499125 -0.212683
C13   C     C_R   0.399170 0.768715 0.435527 0.303785
C14   C     C_R   0.590020 0.229648 0.563336 0.303068
C15   C     C_R   0.398855 0.847724 0.438408 -0.206140
C16   C     C_R   0.578613 0.150786 0.561470 -0.205515
H5    H     H_    0.335057 0.879353 0.388523 0.226176
H6    H     H_    0.641742 0.117918 0.610557 0.225942
C17   C     C_R   0.477270 0.886299 0.505621 -0.070587
C18   C     C_R   0.489965 0.113767 0.496030 -0.070911
C19   C     C_1   0.478954 0.966404 0.502492 0.127958
C20   C     C_1   0.482374 0.033757 0.499136 0.129413
C21   C     C_R   0.402371 0.453298 0.825126 -0.233810
C22   C     C_R   0.598053 0.546482 0.174901 -0.232938
H7    H     H_    0.321918 0.416157 0.850292 0.207240
H8    H     H_    0.678875 0.583433 0.149759 0.207401
C23   C     C_R   0.401378 0.453647 0.741074 0.044826
C24   C     C_R   0.599071 0.546125 0.258955 0.046666
H9    H     H_    0.321166 0.416689 0.702761 0.154338
H10   H     H_    0.679662 0.582892 0.297291 0.154125
N1    N     N_R   0.500040 0.500030 0.707230 -0.117781
N2    N     N_R   0.499960 0.499970 0.292770 -0.117500
C25   C     C_R   0.601648 0.546902 0.754862 -0.033686
C26   C     C_R   0.397843 0.453353 0.245106 -0.031753
H11   H     H_    0.679247 0.582757 0.726341 0.170764
H12   H     H_    0.319885 0.417685 0.273605 0.170540
C27   C     C_R   0.608885 0.548468 0.840002 0.238229
C28   C     C_R   0.390543 0.451819 0.159962 0.238052
C29   C     C_R   0.506067 0.500645 0.876027 -0.004426
C30   C     C_R   0.493852 0.499391 0.123968 -0.004590
C31   C     C_1   0.501723 0.500215 0.963597 0.143351
C32   C     C_1   0.498184 0.499814 0.036397 0.143655
N3    N     N_R   0.638887 0.885845 0.642583 0.223877
O9    O     O_R   0.587735 0.950683 0.665885 -0.346359
O10   O     O_R   0.754774 0.852946 0.688489 -0.313126
N4    N     N_R   0.319162 0.117343 0.361530 0.225435
O11   O     O_R   0.357490 0.050104 0.338233 -0.348198
O12   O     O_R   0.206094 0.153623 0.317124 -0.315052
N5    N     N_R   0.307100 0.730408 0.368394 0.222131
O13   O     O_R   0.297205 0.758558 0.296178 -0.323485
O14   O     O_R   0.212753 0.675315 0.380948 -0.382319
N6    N     N_R   0.691426 0.266045 0.628627 0.222161
O15   O     O_R   0.706955 0.237527 0.700858 -0.322317
O16   O     O_R   0.786464 0.320091 0.613938 -0.383276
N7    N     N_R   0.719928 0.598542 0.887481 0.221299
O17   O     O_R   0.777315 0.656672 0.853946 -0.323977
O18   O     O_R   0.774417 0.583412 0.962385 -0.350210
N8    N     N_R   0.278929 0.402038 0.112447 0.221183
O19   O     O_R   0.220862 0.344071 0.145941 -0.323912
O20   O     O_R   0.224599 0.417311 0.037559 -0.350399

loop_
_geom_bond_atom_site_label_1
_geom_bond_atom_site_label_2
_geom_bond_distance
_ccdc_geom_bond_type
O5    Zn1   1.969260 S    
N6    O16   1.301472 A    
O7    Zn2   1.982677 S    
N5    O14   1.301365 A    
C22   C24   1.407409 A    
C28   N8    1.442306 S    
C13   C15   1.389994 A    
C4    C6    1.400971 S    
O7    C3    1.269627 A    
C24   N2    1.362494 A    
C12   C14   1.410472 A    
C19   C20   1.186678 T    
C9    C11   1.401459 A    
O6    C4    1.267502 A    
C31   C32   1.225072 T    
C21   C29   1.405626 A    
C14   C16   1.390029 A    
N6    O15   1.301350 A    
O2    Zn2   1.983248 S    
C8    C18   1.407732 A    
C22   C30   1.405625 A    
Zn2   N2    1.983718 S    
C22   H8    1.083364 S    
C25   H11   1.081879 S    
C7    N3    1.442859 S    
N4    O12   1.301676 A    
C15   H5    1.084864 S    
C26   H12   1.081881 S    
C23   H9    1.081873 S    
N3    O9    1.301279 A    
O2    C2    1.280752 A    
O3    Zn2   1.987792 S    
C24   H10   1.081868 S    
N4    O11   1.301187 A    
O1    C1    1.280289 A    
O8    C4    1.269625 A    
C6    H2    1.088234 S    
C17   C19   1.410141 S    
C18   C20   1.410121 S    
C8    C10   1.392784 A    
O5    C3    1.267500 A    
C10   H4    1.084053 S    
C29   C31   1.473755 S    
C9    H3    1.084017 S    
C21   C23   1.407415 A    
N7    O17   1.301646 A    
C21   H7    1.083363 S    
C30   C32   1.473756 S    
N3    O10   1.301655 A    
C2    C11   1.449209 S    
O1    Zn1   1.983248 S    
C16   C18   1.394680 A    
C27   C29   1.421075 A    
C10   C12   1.401280 A    
C1    C12   1.447629 S    
C16   H6    1.084884 S    
N2    C26   1.363661 A    
C15   C17   1.394167 A    
N7    O18   1.301048 A    
C26   C28   1.418877 A    
Zn1   N1    1.983719 S    
N8    O20   1.301050 A    
O4    C2    1.279441 A    
C7    C17   1.407492 A    
N1    C25   1.363666 A    
O4    Zn1   1.987790 S    
C5    H1    1.088235 S    
C23   N1    1.362496 A    
C14   N6    1.438433 S    
C13   N5    1.437593 S    
O6    Zn2   1.969259 S    
C27   N7    1.442297 S    
C7    C9    1.392564 A    
C8    N4    1.443103 S    
N5    O13   1.301314 A    
C3    C5    1.400959 S    
C25   C27   1.418873 A    
C5    C6    1.329115 D    
C28   C30   1.421080 A    
N8    O19   1.301646 A    
O3    C1    1.279280 A    
O8    Zn1   1.982676 S    
C11   C13   1.411327 A    
