data_mof_unit_53768.cif
_audit_creation_date              2012-12-11T16:17:55-0500
_audit_creation_method            fapswitch 2.2
_symmetry_space_group_name_H-M    P1
_symmetry_Int_Tables_number       1
_space_group_crystal_system       triclinic
_cell_length_a                    14.030739
_cell_length_b                    14.053124
_cell_length_c                    30.114148
_cell_angle_alpha                 96.936101
_cell_angle_beta                  96.971934
_cell_angle_gamma                 61.384729
_cell_volume                      5160.58661098

loop_
_atom_site_label
_atom_site_type_symbol
_atom_type_description
_atom_site_fract_x
_atom_site_fract_y
_atom_site_fract_z
_atom_type_partial_charge
C1    C     C_R   0.385056 0.712777 0.442921 0.530789
C2    C     C_R   0.421525 0.283955 0.220056 -0.103056
C3    C     C_R   0.434381 0.285842 0.267062 0.017882
C4    C     C_R   0.341435 0.346075 0.291939 0.044307
C5    C     C_R   0.318437 0.340646 0.198111 0.020100
C6    C     C_1   0.304899 0.325957 0.150232 -0.069026
C7    C     C_1   0.351894 0.355466 0.340183 -0.068054
C8    C     C_1   0.292575 0.305492 0.110695 -0.025485
C9    C     C_R   0.762671 0.371247 0.400045 0.018859
C10   C     C_R   0.773821 0.275008 0.375733 -0.138505
C11   C     C_R   0.796366 0.256384 0.330795 -0.126483
C12   C     C_R   0.399157 0.381422 0.426310 0.546069
C13   C     C_R   0.808056 0.333686 0.310201 0.040152
C14   C     C_R   0.805843 0.425143 0.334955 -0.122402
C15   C     C_R   0.783822 0.443731 0.379847 -0.134631
C16   C     C_R   0.785531 0.386455 0.149288 0.002740
C17   C     C_R   0.819476 0.377732 0.106354 -0.131842
C18   C     C_R   0.961155 0.193726 0.117879 -0.121956
C19   C     C_R   0.932167 0.201633 0.161250 -0.006552
C20   C     C_R   0.845381 0.299507 0.177323 0.051375
C21   C     C_1   0.826587 0.313432 0.223806 -0.044832
C22   C     C_1   0.817207 0.322394 0.263197 -0.048437
C23   C     C_R   0.709711 0.406037 0.442431 0.537265
C24   C     C_R   0.907414 0.281974 0.090902 0.001491
C25   C     C_R   0.365615 0.770702 0.402437 0.012756
C26   C     C_R   0.456529 0.739599 0.377912 -0.131239
C27   C     C_R   0.444315 0.767402 0.333955 0.006092
C28   C     C_R   0.338454 0.826706 0.314135 0.031248
C29   C     C_R   0.247941 0.865931 0.339233 -0.111383
C30   C     C_R   0.260076 0.842142 0.384136 -0.006604
C31   C     C_R   0.263731 0.817642 0.149720 -0.117704
C32   C     C_R   0.259466 0.831112 0.103929 -0.006699
C33   C     C_R   0.350730 0.942729 0.124093 -0.146196
C34   C     C_R   0.389557 0.711712 0.568212 0.543862
C35   C     C_R   0.358571 0.924223 0.168852 -0.131358
C36   C     C_R   0.311430 0.865509 0.181736 0.011529
C37   C     C_1   0.314522 0.853420 0.228146 -0.048120
C38   C     C_1   0.321989 0.843085 0.267420 -0.041384
C39   C     C_R   0.296368 0.901742 0.091462 0.019738
C40   C     C_R   0.363890 0.361548 0.591502 0.006605
C41   C     C_R   0.425552 0.262407 0.611432 -0.134883
C42   C     C_R   0.404797 0.251043 0.653945 -0.132954
C43   C     C_R   0.322163 0.338036 0.676867 0.046126
C44   C     C_R   0.254030 0.435439 0.656072 0.012431
C45   C     C_R   0.402083 0.382913 0.552284 0.541862
C46   C     C_R   0.275151 0.445956 0.613155 -0.119977
C47   C     C_R   0.214099 0.394518 0.830349 -0.113913
C48   C     C_R   0.206280 0.382360 0.874784 -0.130068
C49   C     C_R   0.393482 0.238421 0.878324 -0.132408
C50   C     C_R   0.401051 0.250868 0.833922 -0.122512
C51   C     C_R   0.310108 0.325931 0.809579 0.041463
C52   C     C_1   0.313377 0.328124 0.762649 -0.038365
C53   C     C_1   0.316432 0.330558 0.723277 -0.037718
C54   C     C_R   0.294402 0.300655 0.898479 0.019304
C55   C     C_1   0.762457 0.376569 0.612490 -0.024538
C56   C     C_R   0.712933 0.407802 0.568550 0.546171
C57   C     C_R   0.839121 0.416149 0.728073 0.018875
C58   C     C_R   0.856091 0.400610 0.774380 -0.086639
C59   C     C_R   0.835110 0.237915 0.760572 -0.114823
C60   C     C_R   0.818201 0.251858 0.714654 -0.117846
C61   C     C_R   0.820149 0.340060 0.698214 0.037023
C62   C     C_R   0.853378 0.312564 0.790469 0.022976
C63   C     C_1   0.877614 0.295772 0.837569 -0.063677
C64   C     C_1   0.793112 0.356683 0.651018 -0.072409
C65   C     C_1   0.905826 0.283187 0.876766 -0.018813
C66   C     C_1   0.373346 0.763633 0.612719 -0.027707
C67   C     C_1   0.368236 0.365365 0.380187 -0.022658
C68   C     C_R   0.255260 0.847196 0.716200 -0.132629
C69   C     C_R   0.244457 0.865213 0.762085 -0.127931
C70   C     C_R   0.428535 0.844207 0.775390 0.028951
C71   C     C_R   0.436930 0.832786 0.727865 0.032660
C72   C     C_R   0.350698 0.829468 0.698866 0.032297
C73   C     C_R   0.330556 0.860914 0.791862 0.031101
C74   C     C_1   0.311997 0.882407 0.839115 -0.068313
C75   C     C_1   0.361959 0.797621 0.651505 -0.072530
C76   C     C_1   0.291911 0.907727 0.877942 -0.022627
C77   C     C_R   0.951797 0.272026 0.048226 0.538254
C78   C     C_R   0.238694 0.403713 0.269684 -0.122409
C79   C     C_R   0.275479 0.270217 0.065340 0.539250
C80   C     C_R   0.261365 0.952632 0.048434 0.524364
C81   C     C_R   0.952415 0.269154 0.922054 0.545802
C82   C     C_R   0.276373 0.266075 0.939456 0.538013
C83   C     C_R   0.261170 0.951809 0.922585 0.544259
C84   C     C_R   0.227134 0.400540 0.222922 -0.116282
Cr1   Cr    Cr6+3 0.581000 0.584320 0.508140 1.010575
Cr2   Cr    Cr6+3 0.339110 0.576430 0.496080 1.011220
Cr3   Cr    Cr6+3 0.579910 0.339270 0.495810 1.011311
Cr4   Cr    Cr6+3 0.082090 0.079210 0.982490 1.011836
Cr5   Cr    Cr6+3 0.082460 0.324610 0.994920 1.011386
Cr6   Cr    Cr6+3 0.323630 0.087860 0.996130 1.011084
H1    H     H_    0.167382 0.450937 0.288524 0.108795
H2    H     H_    0.167354 0.913666 0.323441 0.102066
H3    H     H_    0.397451 0.959677 0.193668 0.112981
H4    H     H_    0.380818 0.995808 0.115601 0.140900
H5    H     H_    0.493996 0.195846 0.595411 0.130014
H6    H     H_    0.475985 0.198472 0.817961 0.105545
H7    H     H_    0.462793 0.175288 0.895821 0.128909
H8    H     H_    0.491448 0.235936 0.200467 0.100176
H9    H     H_    0.776110 0.518456 0.397721 0.123949
O1    O     O_R   0.688580 0.499770 0.460490 -0.523667
O2    O     O_R   0.348600 0.476260 0.536540 -0.504002
O3    O     O_R   0.494840 0.313840 0.539010 -0.516007
O4    O     O_R   0.672120 0.351750 0.545910 -0.493309
O5    O     O_3   0.500010 0.500010 0.500010 -0.237079
O6    O     O_R   0.167510 0.972920 0.030390 -0.528235
O7    O     O_R   0.990840 0.178580 0.027590 -0.502967
O8    O     O_R   0.972840 0.345510 0.038590 -0.509175
O9    O     O_R   0.181550 0.320660 0.045200 -0.494320
O10   O     O_R   0.346150 0.177650 0.050510 -0.514995
O11   O     O_R   0.314200 0.996600 0.036060 -0.501929
O12   O     O_R   0.480400 0.672610 0.462660 -0.504915
O13   O     O_R   0.168690 0.969990 0.933130 -0.509576
O14   O     O_R   0.991920 0.175870 0.937430 -0.492121
O15   O     O_R   0.974010 0.342590 0.941330 -0.513866
O16   O     O_R   0.182630 0.317940 0.955040 -0.504643
O17   O     O_R   0.347320 0.174720 0.953250 -0.517429
O18   O     O_R   0.315290 0.993890 0.945900 -0.494454
O19   O     O_3   0.162730 0.163890 0.991180 -0.238801
O20   O     O_R   0.315310 0.685650 0.451800 -0.519092
O21   O     O_R   0.346220 0.474990 0.446280 -0.490725
O22   O     O_R   0.492270 0.312460 0.441630 -0.514090
O23   O     O_R   0.669740 0.350480 0.455640 -0.503237
O24   O     O_R   0.691150 0.501150 0.557860 -0.511144
O25   O     O_R   0.482790 0.673890 0.552920 -0.494238
O26   O     O_R   0.317880 0.687030 0.549170 -0.515691
C85   C     C_3   0.998295 0.106675 0.190315 -0.249375
C86   C     C_3   0.934191 0.046828 0.196471 -0.294446
C87   C     C_3   0.997564 0.956562 0.228356 -0.455668
H10   H     H_    0.076567 0.896366 0.215051 0.159777
H11   H     H_    0.012675 0.991226 0.261956 0.147307
H12   H     H_    0.949633 0.914299 0.231971 0.135886
H13   H     H_    0.854854 0.104149 0.210302 0.164251
H14   H     H_    0.917787 0.010776 0.163391 0.160931
H15   H     H_    0.075148 0.047730 0.174901 0.148806
H16   H     H_    0.022684 0.136258 0.223398 0.153694
H17   H     H_    0.029822 0.119710 0.105785 0.137071
H18   H     H_    0.799842 0.184486 0.311670 0.102649
C88   C     C_3   0.215614 0.769713 0.070049 -0.250986
C89   C     C_3   0.283683 0.646094 0.072966 -0.315408
C90   C     C_3   0.243024 0.584518 0.037233 -0.442482
H19   H     H_    0.156832 0.607798 0.041454 0.154145
H20   H     H_    0.249720 0.602460 0.003158 0.151941
H21   H     H_    0.293087 0.495732 0.040546 0.148931
H22   H     H_    0.370288 0.620571 0.068303 0.164820
H23   H     H_    0.279229 0.623022 0.106343 0.158505
H24   H     H_    0.129759 0.796015 0.076360 0.142691
H25   H     H_    0.216933 0.786749 0.035228 0.171798
H26   H     H_    0.230380 0.769519 0.160490 0.105612
C91   C     C_3   0.159514 0.893547 0.410644 -0.252076
C92   C     C_3   0.106493 0.018326 0.413667 -0.309005
C93   C     C_3   0.007250 0.069504 0.441381 -0.448955
H27   H     H_    0.944867 0.046193 0.425656 0.146636
H28   H     H_    0.031064 0.042739 0.476065 0.153198
H29   H     H_    0.971143 0.159410 0.443075 0.152714
H30   H     H_    0.166644 0.044686 0.429527 0.168112
H31   H     H_    0.079784 0.049144 0.379680 0.162603
H32   H     H_    0.100199 0.866764 0.394123 0.142704
H33   H     H_    0.179107 0.868518 0.445464 0.172141
H34   H     H_    0.537739 0.687261 0.392026 0.131702
H35   H     H_    0.146794 0.443181 0.206096 0.113382
C94   C     C_3   0.544590 0.726245 0.308044 -0.246333
C95   C     C_3   0.568333 0.818715 0.300599 -0.293579
C96   C     C_3   0.665295 0.777462 0.272133 -0.463792
H36   H     H_    0.739451 0.714004 0.289202 0.146814
H37   H     H_    0.648278 0.742931 0.238807 0.152204
H38   H     H_    0.680587 0.845741 0.266977 0.140944
H39   H     H_    0.496572 0.884296 0.283329 0.168936
H40   H     H_    0.586486 0.853915 0.333563 0.158937
H41   H     H_    0.617119 0.663612 0.326347 0.130930
H42   H     H_    0.533130 0.685739 0.275411 0.145502
H43   H     H_    0.128940 0.431580 0.889393 0.127836
H44   H     H_    0.143790 0.453635 0.811604 0.099160
C97   C     C_3   0.163003 0.530337 0.680007 -0.257790
C98   C     C_3   0.206900 0.595074 0.712861 -0.285354
C99   C     C_3   0.119264 0.678080 0.742759 -0.461261
H45   H     H_    0.052165 0.740572 0.722346 0.145575
H46   H     H_    0.086420 0.637258 0.761000 0.152675
H47   H     H_    0.155065 0.718418 0.768005 0.147025
H48   H     H_    0.276721 0.540056 0.734738 0.179538
H49   H     H_    0.236089 0.637764 0.693731 0.166271
H50   H     H_    0.101838 0.585613 0.655350 0.126224
H51   H     H_    0.119920 0.499376 0.698011 0.147963
H52   H     H_    0.226653 0.522739 0.598054 0.126638
H53   H     H_    0.457124 0.176445 0.670050 0.107679
C100  C     C_3   0.839851 0.511862 0.709380 -0.250551
C101  C     C_3   0.860192 0.591060 0.744027 -0.314451
C102  C     C_3   0.858508 0.682978 0.721146 -0.468913
H54   H     H_    0.925244 0.650244 0.698274 0.152935
H55   H     H_    0.780011 0.726240 0.701315 0.153044
H56   H     H_    0.868880 0.741665 0.746817 0.139211
H57   H     H_    0.795610 0.627108 0.768137 0.153070
H58   H     H_    0.941025 0.547407 0.762547 0.154049
H59   H     H_    0.903857 0.479044 0.685051 0.148828
H60   H     H_    0.759807 0.558538 0.690719 0.148743
H61   H     H_    0.872066 0.455890 0.798427 0.102700
H62   H     H_    0.834293 0.168837 0.772722 0.107816
H63   H     H_    0.802459 0.194259 0.691889 0.109565
H64   H     H_    0.188827 0.846051 0.694041 0.112751
H65   H     H_    0.168398 0.881617 0.774556 0.111460
C103  C     C_3   0.522312 0.837032 0.808603 -0.251008
C104  C     C_3   0.524357 0.945951 0.816154 -0.296251
C105  C     C_3   0.620275 0.937325 0.848474 -0.457047
H66   H     H_    0.613451 0.915288 0.881719 0.158173
H67   H     H_    0.698220 0.874893 0.834947 0.148797
H68   H     H_    0.620771 0.016655 0.852874 0.135497
H69   H     H_    0.530994 0.972530 0.783985 0.160443
H70   H     H_    0.447402 0.008945 0.830306 0.179810
H71   H     H_    0.515822 0.813072 0.841469 0.148039
H72   H     H_    0.600995 0.770297 0.797591 0.123207
C106  C     C_3   0.534997 0.824486 0.707222 -0.256508
C107  C     C_3   0.504217 0.926637 0.682862 -0.294248
C108  C     C_3   0.602938 0.920211 0.663527 -0.464573
H73   H     H_    0.662992 0.921042 0.691023 0.144599
H74   H     H_    0.641821 0.845067 0.641105 0.156833
H75   H     H_    0.577099 0.991153 0.643595 0.138244
H76   H     H_    0.441599 0.936627 0.654915 0.174802
H77   H     H_    0.469568 0.000062 0.706522 0.157072
H78   H     H_    0.602949 0.813754 0.732306 0.140363
H79   H     H_    0.567649 0.751247 0.683342 0.145078
C109  C     C_3   0.547029 0.222068 0.289637 -0.252648
C110  C     C_3   0.562329 0.114344 0.304112 -0.292627
C111  C     C_3   0.675467 0.049571 0.327050 -0.459510
H80   H     H_    0.739129 0.030887 0.303921 0.142338
H81   H     H_    0.687185 0.096215 0.357747 0.154771
H82   H     H_    0.684424 0.971956 0.336912 0.140800
H83   H     H_    0.500599 0.130017 0.327757 0.173308
H84   H     H_    0.551362 0.064858 0.274189 0.156302
H85   H     H_    0.610050 0.204425 0.266251 0.127630
H86   H     H_    0.560382 0.271415 0.319042 0.160264
H87   H     H_    0.777295 0.444681 0.084875 0.110301
C112  C     C_3   0.685191 0.487783 0.164222 -0.253824
C113  C     C_3   0.589286 0.463570 0.163523 -0.295685
C114  C     C_3   0.485213 0.565971 0.175344 -0.451508
H88   H     H_    0.495356 0.599664 0.209740 0.156523
H89   H     H_    0.464835 0.627795 0.151164 0.164038
H90   H     H_    0.417069 0.546266 0.173834 0.143541
H91   H     H_    0.575386 0.429812 0.129472 0.162830
H92   H     H_    0.607641 0.402489 0.187873 0.169725
H93   H     H_    0.702041 0.518817 0.198391 0.143545
H94   H     H_    0.662562 0.553392 0.141511 0.134777
H95   H     H_    0.816213 0.484488 0.319064 0.100686
H96   H     H_    0.758811 0.217567 0.390640 0.117993

loop_
_geom_bond_atom_site_label_1
_geom_bond_atom_site_label_2
_ccdc_geom_bond_type
C80   O11   A    
C58   C62   A    
C113  H92   S    
C55   C56   S    
Cr5   O16   S    
C85   C86   S    
C41   C42   A    
C35   C36   A    
C10   H96   S    
C90   H21   S    
C100  H60   S    
Cr2   O5    S    
C33   H4    S    
C34   C66   S    
C63   C65   T    
C94   C95   S    
C84   H35   S    
C88   C89   S    
C99   H46   S    
C97   C98   S    
C40   C46   A    
C26   C27   A    
C33   C39   A    
C105  H67   S    
C109  H86   S    
C18   C24   A    
Cr6   O19   S    
C68   H64   S    
C77   O7    A    
C96   H37   S    
C90   H20   S    
C82   O16   A    
C4    C7    S    
C5    C6    S    
C98   C99   S    
C32   C39   A    
C49   C54   A    
Cr3   O3    S    
C58   H61   S    
C101  H57   S    
C109  H85   S    
Cr1   O25   S    
C112  H93   S    
C18   C19   A    
C1    O20   A    
C93   H29   S    
Cr4   O14   S    
C110  C111  S    
C86   H13   S    
C102  H56   S    
C12   O21   A    
C43   C53   S    
C89   H23   S    
C12   O22   A    
C107  C108  S    
C91   H33   S    
C16   C17   A    
C105  H68   S    
C81   O15   A    
C103  C104  S    
C8    C79   S    
C34   O25   A    
C93   H27   S    
C18   H17   S    
C70   C71   A    
Cr6   O17   S    
C23   O23   A    
C29   C30   A    
C9    C10   A    
C31   C36   A    
C57   C100  S    
C68   C72   A    
C94   H41   S    
C23   O1    A    
C14   H95   S    
C97   H50   S    
C59   C60   A    
C103  H71   S    
C92   H31   S    
C21   C22   T    
C87   H10   S    
Cr2   O26   S    
C1    C25   S    
Cr1   O24   S    
C70   C73   A    
C72   C75   S    
C76   C83   S    
C109  C110  S    
C44   C46   A    
C47   H44   S    
C99   H47   S    
C35   H3    S    
C73   C74   S    
C40   C45   S    
C107  H77   S    
C12   C67   S    
C17   C24   A    
C105  H66   S    
C79   O10   A    
C51   C52   S    
Cr6   O18   S    
C77   O8    A    
C96   H38   S    
C90   H19   S    
C45   O3    A    
C100  H59   S    
Cr3   O22   S    
C5    C84   A    
C3    C109  S    
C30   C91   S    
C47   C51   A    
C111  H82   S    
C42   H53   S    
C25   C26   A    
C49   H7    S    
C110  H83   S    
C106  H79   S    
Cr3   O5    S    
C79   O9    A    
C112  H94   S    
C46   H52   S    
C61   C64   S    
C48   C54   A    
C43   C44   A    
C56   O24   A    
C32   C88   S    
C37   C38   T    
C78   C84   A    
C48   H43   S    
Cr4   O7    S    
C89   H22   S    
C65   C81   S    
C31   C32   A    
C108  H75   S    
C28   C38   S    
C88   H25   S    
C16   C20   A    
C71   C106  S    
C55   C64   T    
Cr5   O8    S    
C62   C63   S    
C50   C51   A    
C104  H70   S    
C26   H34   S    
C44   C97   S    
C111  H81   S    
C114  H89   S    
C85   H15   S    
Cr2   O20   S    
Cr1   O5    S    
C74   C76   T    
C60   H63   S    
C95   H40   S    
C94   H42   S    
C40   C41   A    
C108  H74   S    
C97   H51   S    
C106  C107  S    
C92   H30   S    
C45   O2    A    
C113  H91   S    
C59   H62   S    
Cr3   O4    S    
C2    C5    A    
C42   C43   A    
Cr6   O11   S    
Cr4   O19   S    
C3    C4    A    
C87   H12   S    
C98   H49   S    
C54   C82   S    
C52   C53   T    
C89   C90   S    
C69   H65   S    
C95   C96   S    
C114  H88   S    
C25   C30   A    
Cr5   O15   S    
C28   C29   A    
C59   C62   A    
C70   C103  S    
C19   C85   S    
C20   C21   S    
C14   C15   A    
C68   C69   A    
C9    C23   S    
C86   H14   S    
C56   O4    A    
C15   H9    S    
C47   C48   A    
C69   C73   A    
C87   H11   S    
C85   H16   S    
Cr3   O23   S    
C6    C8    T    
C17   H87   S    
C57   C61   A    
C78   H1    S    
C4    C78   A    
C110  H84   S    
C16   C112  S    
C100  C101  S    
C103  H72   S    
C106  H78   S    
C104  C105  S    
C39   C80   S    
C83   O18   A    
C19   C20   A    
C2    C3    A    
C11   H18   S    
C82   O17   A    
C71   C72   A    
C99   H45   S    
C91   C92   S    
C27   C94   S    
Cr4   O6    S    
C11   C13   A    
C50   H6    S    
C57   C58   A    
C41   H5    S    
C88   H24   S    
C34   O26   A    
C66   C75   T    
C80   O6    A    
Cr5   O9    S    
C113  C114  S    
C33   C35   A    
C13   C22   S    
C107  H76   S    
C104  H69   S    
C93   H28   S    
C101  H58   S    
C111  H80   S    
C114  H90   S    
Cr5   O19   S    
C102  H55   S    
C96   H36   S    
C10   C11   A    
C7    C67   T    
C95   H39   S    
Cr4   O13   S    
Cr1   O12   S    
C24   C77   S    
C102  H54   S    
C108  H73   S    
C2    H8    S    
C36   C37   S    
C49   C50   A    
C81   O14   A    
C112  C113  S    
Cr1   O1    S    
C83   O13   A    
C60   C61   A    
Cr2   O21   S    
C31   H26   S    
Cr6   O10   S    
C101  C102  S    
C13   C14   A    
Cr2   O2    S    
C91   H32   S    
C98   H48   S    
C29   H2    S    
C1    O12   A    
C86   C87   S    
C9    C15   A    
C92   C93   S    
C27   C28   A    
