data_mof_unit_10412.cif
_audit_creation_date              2012-10-26T21:13:55-0400
_audit_creation_method            fapswitch 2.2
_symmetry_space_group_name_H-M    P1
_symmetry_Int_Tables_number       1
_space_group_crystal_system       triclinic
_cell_length_a                    15.743999
_cell_length_b                    15.780776
_cell_length_c                    17.110498
_cell_angle_alpha                 84.231027
_cell_angle_beta                  90.779836
_cell_angle_gamma                 113.053604
_cell_volume                      3890.29376678

loop_
_atom_site_label
_atom_site_type_symbol
_atom_type_description
_atom_site_fract_x
_atom_site_fract_y
_atom_site_fract_z
_atom_type_partial_charge
C1    C     C_R   0.501851 0.510592 0.348640 0.556914
C2    C     C_R   0.504496 0.560308 0.779349 0.209787
C3    C     C_R   0.525101 0.462962 0.140335 -0.032030
C4    C     C_R   0.494614 0.548406 0.860711 -0.038497
C5    C     C_R   0.475711 0.510905 0.100291 0.183764
C6    C     C_R   0.484013 0.463759 0.903704 0.185519
C7    C     C_R   0.439588 0.562038 0.142093 0.256176
C8    C     C_R   0.481335 0.389516 0.863509 0.256086
C9    C     C_R   0.451114 0.562983 0.223061 -0.128340
C10   C     C_R   0.487993 0.400099 0.781487 -0.154002
C11   C     C_R   0.536413 0.261073 0.455458 0.059527
C12   C     C_R   0.500464 0.490304 0.651758 0.568382
C13   C     C_R   0.465252 0.739245 0.545740 0.062061
C14   C     C_R   0.534152 0.170875 0.458747 -0.095113
C15   C     C_R   0.467643 0.829480 0.542867 -0.127579
C16   C     C_R   0.676144 0.556312 0.499689 0.558210
C17   C     C_R   0.324030 0.443749 0.498957 0.592493
C18   C     C_R   0.482044 0.102494 0.518670 0.226736
C19   C     C_R   0.518372 0.897613 0.482266 0.226471
C20   C     C_R   0.432990 0.128357 0.573757 0.249290
C21   C     C_R   0.566133 0.871588 0.426219 0.258286
C22   C     C_R   0.437786 0.219939 0.567994 0.094190
C23   C     C_R   0.098874 0.606788 0.454698 0.171661
C24   C     C_R   0.560507 0.779764 0.431133 0.092061
C25   C     C_R   0.778365 0.591574 0.499554 -0.045866
C26   C     C_R   0.222073 0.408223 0.495253 -0.031854
C27   C     C_R   0.931940 0.715679 0.490893 0.236717
C28   C     C_R   0.069294 0.283090 0.500897 0.232319
C29   C     C_R   0.836688 0.683957 0.511422 0.177430
C30   C     C_R   0.165290 0.315431 0.483325 0.244966
C31   C     C_R   0.818570 0.529116 0.487836 -0.105025
C32   C     C_R   0.180588 0.470544 0.502841 -0.108688
C33   C     C_R   0.913197 0.553250 0.495296 0.011624
C34   C     C_R   0.899448 0.390259 0.531263 0.219760
C35   C     C_R   0.086000 0.445059 0.493323 -0.002993
C36   C     C_R   0.970936 0.648631 0.485745 -0.023929
C37   C     C_R   0.029008 0.349549 0.503115 -0.044131
C38   C     C_R   0.951649 0.484981 0.503547 0.010518
C39   C     C_R   0.046777 0.512540 0.483401 0.008315
C40   C     C_R   0.064424 0.673577 0.466509 -0.060521
C41   C     C_R   0.934833 0.323980 0.519793 -0.045039
C42   C     C_R   0.499261 0.514341 0.262940 -0.037829
C43   C     C_R   0.499035 0.484661 0.738388 -0.037993
C44   C     C_R   0.539031 0.465864 0.220588 0.211053
Cu1   Cu    Cu3+1 0.504410 0.586150 0.496120 1.064108
Cu2   Cu    Cu3+1 0.495590 0.413850 0.503880 1.043154
H1    H     H_    0.110757 0.745043 0.454043 0.213850
H2    H     H_    0.775551 0.460375 0.474104 0.189251
H3    H     H_    0.499460 0.607583 0.890355 0.212117
H4    H     H_    0.556555 0.425967 0.108838 0.210500
H5    H     H_    0.420924 0.600285 0.255552 0.208188
H6    H     H_    0.484378 0.341829 0.751169 0.190168
H7    H     H_    0.386724 0.948025 0.736180 0.387532
H8    H     H_    0.743010 0.090121 0.345091 0.387459
H9    H     H_    0.322129 0.277876 0.348722 0.377071
H10   H     H_    0.754548 0.795354 0.451949 0.345233
H11   H     H_    0.977055 0.961974 0.432720 0.413512
H12   H     H_    0.888686 0.252290 0.531187 0.229897
H13   H     H_    0.026906 0.038673 0.564516 0.411445
H14   H     H_    0.288195 0.745197 0.458736 0.341449
H15   H     H_    0.732117 0.416757 0.662852 0.380382
H16   H     H_    0.573972 0.664612 0.706614 0.385416
H17   H     H_    0.623216 0.454022 0.300779 0.328589
H18   H     H_    0.269524 0.594082 0.009797 0.387079
H19   H     H_    0.380497 0.191852 0.010322 0.392533
H20   H     H_    0.425608 0.687675 0.592203 0.168765
H21   H     H_    0.577267 0.312860 0.409670 0.162665
H22   H     H_    0.429813 0.845242 0.587690 0.176863
H23   H     H_    0.573209 0.155351 0.414782 0.182992
H24   H     H_    0.400110 0.239836 0.609960 0.174364
H25   H     H_    0.596549 0.759583 0.387999 0.153005
H26   H     H_    0.222506 0.540153 0.515355 0.192818
N1    N     N_2   0.468142 0.515332 0.017461 -0.168954
N2    N     N_2   0.483587 0.454044 0.987069 -0.165812
N3    N     N_R   0.488960 0.284450 0.509710 -0.256309
N4    N     N_R   0.511040 0.715550 0.490290 -0.238609
N5    N     N_2   0.476913 0.008760 0.525601 -0.155926
N6    N     N_2   0.523394 0.991290 0.475480 -0.151411
O1    O     O_R   0.504130 0.580750 0.382440 -0.509347
O2    O     O_2   0.286523 0.972588 0.613811 -0.211345
O3    O     O_3   0.430338 0.998248 0.699391 -0.463245
O4    O     O_2   0.683897 0.912126 0.302073 -0.244544
O5    O     O_2   0.571859 0.985313 0.298361 -0.217384
O6    O     O_3   0.710921 0.044906 0.390343 -0.450905
O7    O     O_2   0.251414 0.197652 0.490247 -0.231314
O8    O     O_2   0.134693 0.178663 0.389597 -0.172061
O9    O     O_3   0.291634 0.317266 0.366196 -0.501359
O10   O     O_2   0.724116 0.689269 0.625795 -0.267448
O11   O     O_2   0.873187 0.818941 0.607713 -0.137593
O12   O     O_R   0.495870 0.419250 0.617560 -0.521555
O13   O     O_3   0.747563 0.810865 0.505502 -0.429453
O14   O     O_2   0.068801 0.871726 0.527457 -0.203018
O15   O     O_2   0.049037 0.849028 0.387782 -0.243419
O16   O     O_3   0.934391 0.899647 0.455291 -0.438572
O17   O     O_2   0.949226 0.150653 0.602960 -0.228787
O18   O     O_2   0.936939 0.124374 0.463790 -0.216105
O19   O     O_3   0.069668 0.101542 0.543234 -0.404279
O20   O     O_2   0.198523 0.564217 0.348343 -0.199312
O21   O     O_2   0.188676 0.715057 0.325853 -0.179766
O22   O     O_3   0.294162 0.692517 0.435841 -0.526223
O23   O     O_R   0.496670 0.435250 0.388990 -0.488576
O24   O     O_2   0.715076 0.308583 0.551887 -0.316391
O25   O     O_2   0.808015 0.278997 0.657888 -0.172996
O26   O     O_3   0.796753 0.438895 0.642880 -0.489001
O27   O     O_3   0.519687 0.646822 0.742556 -0.648190
O28   O     O_3   0.593665 0.422681 0.254386 -0.661515
O29   O     O_2   0.335890 0.662306 0.151508 -0.189734
O30   O     O_2   0.445277 0.703053 0.039558 -0.223603
O31   O     O_3   0.295977 0.553626 0.039804 -0.457498
O32   O     O_2   0.454971 0.210361 0.860360 -0.204924
O33   O     O_2   0.555861 0.296515 0.960702 -0.221880
O34   O     O_R   0.503330 0.564750 0.611010 -0.479572
O35   O     O_3   0.378987 0.247656 0.979215 -0.453489
O36   O     O_R   0.635650 0.613550 0.494890 -0.469942
O37   O     O_R   0.364350 0.386450 0.505110 -0.444889
O38   O     O_R   0.628200 0.468050 0.501440 -0.501306
O39   O     O_R   0.371800 0.531950 0.498560 -0.484636
O40   O     O_2   0.326910 0.092024 0.705138 -0.216613
S1    S     S_3+6 0.364934 0.046619 0.649679 0.094915
S2    S     S_3+6 0.469630 0.282817 0.915657 0.098911
S3    S     S_3+6 0.633770 0.953563 0.350254 0.085523
S4    S     S_3+6 0.209914 0.247828 0.432574 0.116957
S5    S     S_3+6 0.795427 0.751712 0.565490 0.133743
S6    S     S_3+6 0.999143 0.836340 0.465161 0.080723
S7    S     S_3+6 0.003068 0.162522 0.527861 0.100955
S8    S     S_3+6 0.195640 0.643833 0.388058 0.053114
S9    S     S_3+6 0.801579 0.351505 0.596771 0.039076
S10   S     S_3+6 0.378987 0.624457 0.093402 0.103595

loop_
_geom_bond_atom_site_label_1
_geom_bond_atom_site_label_2
_ccdc_geom_bond_type
C25   C31   A    
C40   H1    S    
C26   C32   A    
C27   C29   A    
N1    N2    D    
C14   C18   A    
C2    C4    A    
C9    H5    S    
O15   S6    D    
C10   H6    S    
H8    O6    S    
Cu1   O34   S    
C32   H26   S    
H16   O27   S    
Cu1   Cu2   S    
C15   C19   A    
C17   O37   A    
C9    C42   A    
Cu2   O37   S    
Cu1   N4    S    
O22   S8    S    
C17   C26   S    
C12   O12   A    
C35   C37   A    
O29   S10   D    
C12   C43   S    
O14   S6    D    
C38   C39   A    
C11   C14   A    
C23   C40   A    
C33   C36   A    
H7    O3    S    
O40   S1    D    
Cu1   O36   S    
H10   O13   S    
C30   S4    S    
C34   S9    S    
H9    O9    S    
O8    S4    D    
C31   C33   A    
C7    S10   S    
O25   S9    D    
O4    S3    D    
C17   O39   A    
O2    S1    D    
O13   S5    S    
C37   C41   A    
C34   C41   A    
C42   C44   A    
C22   N3    A    
O10   S5    D    
C16   O38   A    
Cu2   N3    S    
C3    H4    S    
C11   H21   S    
C6    N2    S    
O21   S8    D    
C13   H20   S    
C25   C29   A    
Cu2   O23   S    
C3    C44   A    
H13   O19   S    
C32   C35   A    
C36   C40   A    
H15   O26   S    
C4    C6    A    
O24   S9    D    
O32   S2    D    
C5    C7    A    
C24   N4    A    
C6    C8    A    
O11   S5    D    
C3    C5    A    
O6    S3    S    
N5    N6    D    
O30   S10   D    
O33   S2    D    
C19   N6    S    
C35   C39   A    
O35   S2    S    
O17   S7    D    
O31   S10   S    
C13   N4    A    
C2    C43   A    
O7    S4    D    
Cu1   O1    S    
O5    S3    D    
H17   O28   S    
C23   S8    S    
O19   S7    S    
C20   C22   A    
C26   C30   A    
C31   H2    S    
C13   C15   A    
C1    O1    A    
C14   H23   S    
C1    O23   A    
C12   O34   A    
C28   S7    S    
C8    S2    S    
Cu1   O39   S    
C16   C25   S    
C7    C9    A    
C19   C21   A    
C10   C43   A    
C34   C38   A    
H19   O35   S    
H14   O22   S    
C16   O36   A    
C41   H12   S    
O9    S4    S    
C27   S6    S    
Cu2   O12   S    
C44   O28   S    
C27   C36   A    
O3    S1    S    
C2    O27   S    
C33   C38   A    
Cu2   O38   S    
C4    H3    S    
H11   O16   S    
C28   C30   A    
C11   N3    A    
H18   O31   S    
O26   S9    S    
C28   C37   A    
C18   N5    S    
C23   C39   A    
C15   H22   S    
C29   S5    S    
O18   S7    D    
C18   C20   A    
C5    N1    S    
C1    C42   S    
O20   S8    D    
C8    C10   A    
C21   C24   A    
C21   S3    S    
C22   H24   S    
C20   S1    S    
C24   H25   S    
O16   S6    S    
