data_mof_unit_60218.cif
_audit_creation_date              2012-12-10T19:51:40-0500
_audit_creation_method            fapswitch 2.2
_symmetry_space_group_name_H-M    P1
_symmetry_Int_Tables_number       1
_space_group_crystal_system       triclinic
_cell_length_a                    14.280095
_cell_length_b                    13.58378
_cell_length_c                    15.01181
_cell_angle_alpha                 91.288098
_cell_angle_beta                  90.197642
_cell_angle_gamma                 82.58874
_cell_volume                      2886.89879352

loop_
_atom_site_label
_atom_site_type_symbol
_atom_type_description
_atom_site_fract_x
_atom_site_fract_y
_atom_site_fract_z
_atom_type_partial_charge
C1    C     C_R   0.499216 0.503494 0.327337 0.904830
C2    C     C_R   0.499944 0.500715 0.671544 0.984749
C3    C     C_R   0.414759 0.507456 0.089492 -0.190647
C4    C     C_R   0.531081 0.580092 0.906123 -0.194640
C5    C     C_R   0.500569 0.501684 0.045296 0.016775
C6    C     C_R   0.501300 0.500203 0.949807 0.025162
C7    C     C_R   0.115277 0.410442 0.491135 0.330504
C8    C     C_R   0.887986 0.552069 0.567123 0.312915
C9    C     C_R   0.213675 0.413762 0.482217 0.432036
C10   C     C_R   0.788033 0.559760 0.559091 0.413480
C11   C     C_R   0.191756 0.584780 0.520937 0.198332
C12   C     C_R   0.803285 0.440633 0.440895 0.216967
C13   C     C_R   0.092839 0.587758 0.512413 0.396721
C14   C     C_R   0.901319 0.445042 0.435765 0.367957
C15   C     C_R   0.052471 0.498918 0.501417 -0.123180
C16   C     C_R   0.946180 0.498596 0.501598 -0.125113
C17   C     C_R   0.517189 0.314221 0.499989 0.908874
C18   C     C_R   0.482835 0.685777 0.500132 0.910751
C19   C     C_1   0.469401 0.789864 0.500799 -0.122029
C20   C     C_1   0.530664 0.210157 0.500804 -0.113817
C21   C     C_2   0.459092 0.981963 0.501928 -0.142779
C22   C     C_2   0.540987 0.018108 0.502539 -0.170047
C23   C     C_1   0.539003 0.122114 0.501658 0.038850
C24   C     C_1   0.461075 0.877933 0.501417 0.037032
C25   C     C_R   0.584568 0.504960 0.091365 -0.255978
C26   C     C_R   0.468919 0.421442 0.902876 -0.250844
C27   C     C_R   0.584011 0.511257 0.183516 0.517596
C28   C     C_R   0.466371 0.422212 0.810318 0.469116
C29   C     C_R   0.497871 0.509682 0.230163 -0.245976
C30   C     C_R   0.499580 0.501223 0.766649 -0.210542
C31   C     C_R   0.411861 0.513569 0.181496 0.220118
C32   C     C_R   0.529653 0.581464 0.814261 0.219171
H1    H     H_    0.608312 0.970461 0.503161 0.153242
H2    H     H_    0.391767 0.029596 0.501123 0.176237
H3    H     H_    0.650681 0.503212 0.055688 0.170608
H4    H     H_    0.446772 0.359596 0.938066 0.166789
H5    H     H_    0.349587 0.509759 0.051855 0.182987
H6    H     H_    0.553409 0.642082 0.943681 0.179082
N1    N     N_R   0.252470 0.500000 0.499980 -0.193183
N2    N     N_R   0.747530 0.500000 0.500020 -0.204928
O1    O     O_R   0.579480 0.500010 0.369070 -0.546512
O2    O     O_R   0.420520 0.499990 0.630930 -0.595764
O3    O     O_R   0.420520 0.500010 0.369060 -0.589710
O4    O     O_R   0.579480 0.499990 0.630940 -0.565997
O5    O     O_R   0.590920 0.359650 0.500030 -0.590403
O6    O     O_R   0.409080 0.640350 0.499970 -0.563037
O7    O     O_R   0.431960 0.359650 0.500020 -0.553961
O8    O     O_R   0.568040 0.640350 0.499980 -0.602037
Zn1   Zn    Zn3+2 0.606140 0.500000 0.500010 1.041603
Zn2   Zn    Zn3+2 0.393860 0.500000 0.499990 1.042418
O9    O     O_3   0.668960 0.515022 0.227029 -0.555553
C33   C     C_3   0.685797 0.615003 0.233380 -0.282663
H7    H     H_    0.697332 0.644776 0.166404 0.153845
H8    H     H_    0.750898 0.618960 0.273097 0.169817
H9    H     H_    0.627185 0.662378 0.268484 0.150165
O10   O     O_3   0.439678 0.342431 0.761870 -0.604964
C34   C     C_3   0.341066 0.343628 0.769053 -0.259022
H10   H     H_    0.318991 0.286093 0.722752 0.194650
H11   H     H_    0.302220 0.416364 0.749405 0.168420
H12   H     H_    0.320656 0.325173 0.837499 0.152917
Br1   Br    Br    0.286473 0.534503 0.231541 -0.573922
Br2   Br    Br    0.561719 0.697658 0.757584 -0.483958
O11   O     O_3   0.081514 0.319530 0.486637 -0.521561
C35   C     C_3   0.082726 0.281056 0.573081 -0.209160
H13   H     H_    0.034110 0.329270 0.618181 0.125361
H14   H     H_    0.155411 0.270611 0.601404 0.156789
H15   H     H_    0.057586 0.207154 0.569266 0.196841
O12   O     O_3   0.928124 0.600325 0.636764 -0.532260
C36   C     C_3   0.923681 0.544888 0.714525 -0.215715
H16   H     H_    0.961372 0.468416 0.705610 0.118988
H17   H     H_    0.849434 0.542279 0.735526 0.189814
H18   H     H_    0.959376 0.581734 0.769270 0.192285
O13   O     O_3   0.270718 0.325396 0.466462 -0.571731
C37   C     C_3   0.271776 0.303480 0.374251 -0.176555
H19   H     H_    0.311743 0.228682 0.362864 0.164948
H20   H     H_    0.309009 0.356985 0.337839 0.195586
H21   H     H_    0.199525 0.301769 0.346619 0.187921
O14   O     O_3   0.730529 0.625118 0.613148 -0.535036
C38   C     C_3   0.737065 0.722923 0.585768 -0.140664
H22   H     H_    0.804576 0.747902 0.608015 0.196881
H23   H     H_    0.679075 0.773923 0.617194 0.200973
H24   H     H_    0.728921 0.730663 0.512255 0.104891
Br3   Br    Br    0.233309 0.700333 0.575876 -0.389876
Br4   Br    Br    0.751008 0.347004 0.364261 -0.361335
O15   O     O_3   0.036174 0.677875 0.522353 -0.510029
C39   C     C_3   0.014881 0.716124 0.437115 -0.241295
H25   H     H_    0.968531 0.670112 0.399532 0.117072
H26   H     H_    0.080055 0.722812 0.398334 0.178246
H27   H     H_    0.975581 0.791705 0.445275 0.191719
O16   O     O_3   0.953128 0.391275 0.369191 -0.509193
C40   C     C_3   0.963290 0.454655 0.297779 -0.221693
H28   H     H_    0.893541 0.488275 0.271949 0.170024
H29   H     H_    0.000243 0.410086 0.242562 0.201266
H30   H     H_    0.007321 0.513441 0.317123 0.132990

loop_
_geom_bond_atom_site_label_1
_geom_bond_atom_site_label_2
_ccdc_geom_bond_type
O4    Zn1   S    
C27   C29   A    
O13   C37   S    
C31   Br1   S    
C10   O14   S    
O15   C39   S    
C37   H20   S    
C17   O5    A    
C5    C6    S    
C39   H26   S    
C34   H11   S    
C15   C16   S    
C9    N1    A    
C17   C20   S    
O10   C34   S    
C12   Br4   S    
C10   N2    A    
C18   C19   S    
C36   H17   S    
C14   O16   S    
C1    O3    A    
C2    O4    A    
O12   C36   S    
C37   H21   S    
C33   H9    S    
C7    C15   A    
C8    C16   A    
C21   C22   D    
C9    O13   S    
C18   O6    A    
O1    Zn1   S    
C33   H8    S    
O7    Zn2   S    
C34   H10   S    
C28   O10   S    
C25   H3    S    
C37   H19   S    
O9    C33   S    
C35   H15   S    
C4    C6    A    
C40   H28   S    
C38   H23   S    
O14   C38   S    
C34   H12   S    
C21   H2    S    
C11   Br3   S    
C38   H22   S    
C35   H14   S    
C12   N2    A    
C36   H18   S    
C11   N1    A    
C40   H29   S    
C20   C23   T    
O5    Zn1   S    
C1    C29   S    
C3    C31   A    
C7    O11   S    
C4    C32   A    
O2    Zn2   S    
C5    C25   A    
C1    O1    A    
O8    Zn1   S    
C4    H6    S    
C8    O12   S    
C13   C15   A    
C14   C16   A    
C33   H7    S    
C26   H4    S    
C7    C9    A    
C22   H1    S    
C39   H25   S    
C17   O7    A    
C12   C14   A    
C3    C5    A    
C39   H27   S    
C18   O8    A    
C38   H24   S    
O3    Zn2   S    
C25   C27   A    
O6    Zn2   S    
C26   C28   A    
C2    C30   S    
C35   H13   S    
C28   C30   A    
C19   C24   T    
C32   Br2   S    
C29   C31   A    
C40   H30   S    
C30   C32   A    
C11   C13   A    
O16   C40   S    
C6    C26   A    
C2    O2    A    
C27   O9    S    
C36   H16   S    
O11   C35   S    
N1    Zn2   S    
C3    H5    S    
C8    C10   A    
C21   C24   S    
C13   O15   S    
C22   C23   S    
N2    Zn1   S    
