data_mof_unit_5581.cif
_audit_creation_date              2012-12-10T17:38:15-0500
_audit_creation_method            fapswitch 2.2
_symmetry_space_group_name_H-M    P1
_symmetry_Int_Tables_number       1
_space_group_crystal_system       triclinic
_cell_length_a                    12.299418
_cell_length_b                    13.253478
_cell_length_c                    19.324701
_cell_angle_alpha                 77.456834
_cell_angle_beta                  101.368044
_cell_angle_gamma                 116.177307
_cell_volume                      2741.03554744

loop_
_atom_site_label
_atom_site_type_symbol
_atom_type_description
_atom_site_fract_x
_atom_site_fract_y
_atom_site_fract_z
_atom_type_partial_charge
C1    C     C_R   0.854871 0.287320 0.504360 0.785999
C2    C     C_R   0.999217 0.499067 0.708540 -0.032804
C3    C     C_R   0.004864 0.513111 0.068787 0.382148
C4    C     C_R   0.001151 0.502181 0.929898 0.407629
C5    C     C_R   0.077057 0.471150 0.195600 -0.134622
C6    C     C_R   0.075954 0.466196 0.268148 -0.169554
C7    C     C_R   0.003487 0.506730 0.290988 -0.075353
C8    C     C_R   0.934628 0.555121 0.240239 -0.149906
C9    C     C_R   0.936800 0.563060 0.166940 0.007183
C10   C     C_R   0.006647 0.517519 0.144450 -0.026464
C11   C     C_R   0.269162 0.038375 0.449808 -0.169440
C12   C     C_R   0.999606 0.499568 0.632488 0.790211
C13   C     C_R   0.227708 0.837046 0.474866 -0.193729
C14   C     C_R   0.816319 0.084909 0.538867 -0.150563
C15   C     C_R   0.736864 0.971527 0.553715 -0.112252
C16   C     C_R   0.612312 0.937447 0.534142 -0.179675
C17   C     C_R   0.564998 0.014746 0.493633 0.096542
C18   C     C_R   0.646024 0.130337 0.477234 0.083141
C19   C     C_R   0.437549 0.982034 0.474063 0.057963
C20   C     C_R   0.393131 0.066776 0.452687 0.103932
C21   C     C_R   0.472857 0.177967 0.430603 -0.208965
C22   C     C_R   0.596768 0.206353 0.436558 -0.174837
C23   C     C_R   0.145174 0.714004 0.487748 0.796810
C24   C     C_R   0.353419 0.868447 0.472480 -0.058237
C25   C     C_R   0.186222 0.924988 0.464929 -0.011621
C26   C     C_R   0.772019 0.166219 0.503973 -0.119820
C27   C     C_R   0.351669 0.335133 0.616921 -0.287631
C28   C     C_R   0.756322 0.641382 0.401880 0.061370
C29   C     C_R   0.656891 0.668960 0.378954 -0.205989
C30   C     C_R   0.553616 0.613763 0.414997 -0.186443
C31   C     C_R   0.548727 0.530234 0.475060 -0.024207
C32   C     C_R   0.652958 0.504645 0.496504 0.290949
C33   C     C_R   0.445306 0.471953 0.514927 -0.035709
C34   C     C_R   0.000977 0.501463 0.367437 0.798194
C35   C     C_R   0.449092 0.390637 0.575473 0.176038
C36   C     C_R   0.550018 0.365061 0.594444 -0.283445
C37   C     C_R   0.649191 0.420283 0.555704 -0.192483
C38   C     C_R   0.337855 0.491072 0.498056 -0.001308
C39   C     C_R   0.251030 0.361148 0.598991 0.081425
C40   C     C_R   0.098960 0.497242 0.757924 -0.182913
C41   C     C_R   0.099485 0.498017 0.829943 -0.150982
C42   C     C_R   0.999779 0.499557 0.853967 0.056597
C43   C     C_R   0.899430 0.500162 0.804635 -0.150713
C44   C     C_R   0.899391 0.500448 0.732483 -0.189013
Cu1   Cu    Cu3+1 0.098280 0.475420 0.516260 0.947246
Cu2   Cu    Cu3+1 0.901720 0.524580 0.483740 0.928655
H1    H     H_    0.177223 0.496233 0.740894 0.153099
H2    H     H_    0.439049 0.242038 0.406326 0.150426
H3    H     H_    0.236876 0.105169 0.435886 0.166070
H4    H     H_    0.911917 0.109832 0.558733 0.175462
H5    H     H_    0.553799 0.851294 0.554118 0.115732
H6    H     H_    0.771371 0.910616 0.583909 0.157700
H7    H     H_    0.651669 0.289014 0.409846 0.185562
H8    H     H_    0.176104 0.319576 0.631230 0.125358
H9    H     H_    0.552781 0.301741 0.640126 0.156857
H10   H     H_    0.353931 0.272869 0.663321 0.143657
H11   H     H_    0.177902 0.497113 0.866763 0.157021
H12   H     H_    0.324729 0.547318 0.451231 0.129880
H13   H     H_    0.835274 0.683330 0.372875 0.122281
H14   H     H_    0.479061 0.637829 0.394625 0.178270
H15   H     H_    0.659552 0.732812 0.332802 0.171729
H16   H     H_    0.721136 0.393761 0.574552 0.206644
H17   H     H_    0.821405 0.501721 0.821563 0.154278
H18   H     H_    0.821060 0.501414 0.695579 0.153964
H19   H     H_    0.131328 0.436332 0.179375 0.158738
H20   H     H_    0.130411 0.429065 0.306321 0.156197
H21   H     H_    0.881588 0.589845 0.257886 0.183011
N1    N     N_R   0.897839 0.483063 0.955786 -0.237202
N2    N     N_R   0.899530 0.487745 0.024032 -0.238761
N3    N     N_R   0.107788 0.530222 0.043317 -0.217490
N4    N     N_R   0.105995 0.525099 0.975092 -0.231847
N5    N     N_R   0.246290 0.438200 0.540910 -0.182331
N6    N     N_R   0.754310 0.561190 0.459520 -0.209283
O1    O     O_R   0.972510 0.318130 0.520450 -0.574465
O2    O     O_R   0.806530 0.359650 0.492990 -0.610726
O3    O     O_R   0.083010 0.479220 0.613590 -0.585011
O4    O     O_R   0.917030 0.520740 0.586130 -0.595633
O5    O     O_R   0.193470 0.640350 0.507010 -0.588935
O6    O     O_R   0.027490 0.681870 0.479550 -0.599055
O7    O     O_R   0.082970 0.479260 0.413870 -0.579952
O8    O     O_R   0.916990 0.520780 0.386410 -0.596459
C45   C     C_2   0.393094 0.792450 0.448444 0.373819
H22   H     H_    0.406959 0.724197 0.485642 0.065997
O9    O     O_2   0.413875 0.808794 0.386823 -0.544183
C46   C     C_2   0.871613 0.624780 0.115548 0.378069
H23   H     H_    0.892685 0.654856 0.060930 0.095068
O10   O     O_2   0.794544 0.644752 0.134024 -0.536149
C47   C     C_2   0.057508 0.904646 0.464719 0.378946
H24   H     H_    0.983141 0.838450 0.438487 0.094645
O11   O     O_2   0.033449 0.966335 0.491858 -0.554356

loop_
_geom_bond_atom_site_label_1
_geom_bond_atom_site_label_2
_ccdc_geom_bond_type
C8    C9    A    
C40   H1    S    
C41   C42   A    
C35   C36   A    
C18   C26   A    
C16   H5    S    
C2    C12   S    
C37   H16   S    
C43   H17   S    
C7    C8    A    
C14   H4    S    
C46   H23   S    
C44   H18   S    
Cu1   O3    S    
C1    O1    A    
C36   C37   A    
C3    N2    A    
C30   C31   A    
C39   H8    S    
C11   C25   A    
C15   C16   A    
C13   C23   S    
C24   C45   S    
C9    C46   S    
C38   H12   S    
Cu2   O6    S    
C19   C20   A    
C2    C44   A    
N1    N2    A    
C30   H14   S    
C39   N5    A    
C31   C33   A    
Cu1   O5    S    
C34   O8    A    
C9    C10   A    
C21   H2    S    
C34   O7    A    
C21   C22   A    
Cu1   N5    S    
C13   C25   A    
C28   N6    A    
Cu2   O2    S    
C22   H7    S    
C38   N5    A    
C46   O10   D    
C29   H15   S    
C11   C20   A    
C32   C37   A    
C1    O2    A    
C3    N3    A    
C5    H19   S    
C27   C39   A    
C32   N6    A    
C4    N1    A    
C27   H10   S    
C16   C17   A    
C27   C35   A    
Cu1   Cu2   S    
C25   C47   S    
C13   C24   A    
Cu1   O1    S    
C43   C44   A    
C29   C30   A    
C11   H3    S    
Cu2   O8    S    
C31   C32   A    
C12   O4    A    
C20   C21   A    
C17   C18   A    
C15   H6    S    
C14   C26   A    
N3    N4    A    
C40   C41   A    
C47   O11   D    
C45   O9    D    
C12   O3    A    
C1    C26   S    
C7    C34   S    
C42   C43   A    
C17   C19   A    
C28   H13   S    
C28   C29   A    
C18   C22   A    
Cu2   O4    S    
C6    C7    A    
C33   C38   A    
C19   C24   A    
C41   H11   S    
C5    C10   A    
C36   H9    S    
C5    C6    A    
C4    C42   S    
C33   C35   A    
Cu1   O7    S    
Cu2   N6    S    
C23   O5    A    
C2    C40   A    
C6    H20   S    
C47   H24   S    
C8    H21   S    
C45   H22   S    
C3    C10   S    
C14   C15   A    
C23   O6    A    
C4    N4    A    
