data_mof_unit_9772.cif
_audit_creation_date              2012-10-26T21:21:06-0400
_audit_creation_method            fapswitch 2.2
_symmetry_space_group_name_H-M    P1
_symmetry_Int_Tables_number       1
_space_group_crystal_system       triclinic
_cell_length_a                    10.855957
_cell_length_b                    10.943707
_cell_length_c                    9.668695
_cell_angle_alpha                 88.847413
_cell_angle_beta                  90.971984
_cell_angle_gamma                 90.999273
_cell_volume                      1148.11798292

loop_
_atom_site_label
_atom_site_type_symbol
_atom_type_description
_atom_site_fract_x
_atom_site_fract_y
_atom_site_fract_z
_atom_type_partial_charge
C1    C     C_R   0.503578 0.264374 0.501945 0.576028
C2    C     C_2   0.521220 0.130881 0.509917 0.244737
C3    C     C_2   0.421692 0.435826 0.922538 0.519278
C4    C     C_R   0.262709 0.510344 0.499567 0.537720
C5    C     C_2   0.410604 0.452830 0.076861 0.066624
C6    C     C_R   0.498177 0.734242 0.498269 0.525427
C7    C     C_R   0.737916 0.492234 0.501766 0.535582
C8    C     C_R   0.121018 0.575741 0.750732 -0.061276
C9    C     C_R   0.065781 0.555269 0.880428 0.298768
C10   C     C_R   0.956231 0.487130 0.884535 -0.095925
C11   C     C_R   0.893536 0.456970 0.762342 -0.164661
C12   C     C_R   0.065117 0.531031 0.627800 -0.003333
C13   C     C_R   0.941559 0.491501 0.632172 0.011392
C14   C     C_3   0.450942 0.086957 0.732443 -0.008617
C15   C     C_3   0.458040 0.985518 0.842250 -0.382416
C16   C     C_3   0.655547 0.629550 0.885840 0.037304
C17   C     C_3   0.699595 0.727442 0.985824 -0.411304
C18   C     C_3   0.185309 0.700593 0.997760 -0.031255
C19   C     C_3   0.206071 0.748970 0.142833 -0.367607
C20   C     C_3   0.640086 0.103334 0.188951 -0.007175
C21   C     C_3   0.656981 0.205124 0.081062 -0.358895
C22   C     C_R   0.128560 0.521236 0.501280 -0.015586
C23   C     C_R   0.061940 0.503245 0.378069 -0.158667
C24   C     C_R   0.934928 0.492072 0.379798 -0.152400
C25   C     C_R   0.872870 0.486520 0.505906 0.000771
C26   C     C_2   0.551441 0.932559 0.402062 -0.106046
C27   C     C_2   0.486492 0.864755 0.492210 -0.102338
C28   C     C_2   0.537819 0.066619 0.393096 0.248729
Cu1   Cu    Cu3+1 0.500020 0.500020 0.638630 1.018867
Cu2   Cu    Cu3+1 0.499980 0.499980 0.361370 0.934966
F1    F     F_    0.345200 0.352932 0.861436 -0.661099
H1    H     H_    0.107876 0.497684 0.279910 0.178399
H2    H     H_    0.358306 0.082697 0.680901 0.124925
H3    H     H_    0.461786 0.173467 0.788729 0.226578
H4    H     H_    0.547870 0.992109 0.898008 0.153083
H5    H     H_    0.383117 0.995619 0.917779 0.122286
H6    H     H_    0.448791 0.894120 0.795322 0.169645
H7    H     H_    0.676855 0.663384 0.780208 0.199313
H8    H     H_    0.707454 0.545286 0.911030 0.098690
H9    H     H_    0.682271 0.698310 0.094457 0.156868
H10   H     H_    0.800103 0.744199 0.973856 0.107481
H11   H     H_    0.650747 0.813810 0.963608 0.148856
H12   H     H_    0.326473 0.421220 0.125843 0.167350
H13   H     H_    0.132747 0.770258 0.936439 0.116677
H14   H     H_    0.277319 0.687965 0.951893 0.169330
H15   H     H_    0.262801 0.684225 0.205264 0.190131
H16   H     H_    0.255293 0.838723 0.137368 0.113012
H17   H     H_    0.116303 0.760548 0.194008 0.150713
H18   H     H_    0.631119 0.015004 0.134681 0.121203
H19   H     H_    0.724389 0.102499 0.256721 0.120141
H20   H     H_    0.573449 0.211826 0.013761 0.164752
H21   H     H_    0.673327 0.293652 0.132982 0.153286
H22   H     H_    0.737424 0.185998 0.015948 0.095879
H23   H     H_    0.583795 0.506438 0.109297 0.220537
H24   H     H_    0.206435 0.627155 0.745769 0.121487
H25   H     H_    0.916935 0.461065 0.983279 0.110799
H26   H     H_    0.809938 0.402725 0.771611 0.142762
H27   H     H_    0.885576 0.485571 0.281801 0.136967
H28   H     H_    0.611588 0.888227 0.330524 0.107487
H29   H     H_    0.418937 0.904161 0.557901 0.110086
N1    N     N_2   0.498640 0.498660 0.846910 -0.062945
N2    N     N_2   0.498610 0.498630 0.153040 -0.372131
O1    O     O_R   0.500020 0.321960 0.617040 -0.485191
O2    O     O_3   0.527854 0.609174 0.900010 -0.524859
O3    O     O_3   0.120558 0.587514 0.006123 -0.578626
O4    O     O_3   0.531910 0.124261 0.263656 -0.551758
O5    O     O_R   0.499980 0.321920 0.382900 -0.457184
O6    O     O_R   0.319670 0.500020 0.617100 -0.455192
O7    O     O_R   0.319630 0.499980 0.382950 -0.522930
O8    O     O_R   0.500020 0.678080 0.617100 -0.490349
O9    O     O_R   0.499980 0.678040 0.382960 -0.500334
O10   O     O_R   0.680370 0.500020 0.617050 -0.540630
O11   O     O_R   0.680330 0.499980 0.382900 -0.519378
O12   O     O_3   0.548323 0.074985 0.638058 -0.604809

loop_
_geom_bond_atom_site_label_1
_geom_bond_atom_site_label_2
_ccdc_geom_bond_type
C14   H3    S    
N1    O2    S    
C28   O4    S    
C23   C24   A    
Cu1   O1    S    
C24   C25   A    
Cu1   Cu2   S    
C18   H13   S    
C8    C9    A    
Cu1   O6    S    
C10   H25   S    
C9    C10   A    
C26   C28   S    
C6    C27   S    
C7    C25   S    
C8    C12   A    
Cu1   O10   S    
C23   H1    S    
C14   H2    S    
Cu2   N2    S    
Cu2   O9    S    
C5    H12   S    
C19   H15   S    
C7    O11   A    
C11   H26   S    
C12   C13   A    
C18   O3    S    
C21   H22   S    
C11   C13   A    
C13   C25   A    
C26   C27   D    
C20   H18   S    
Cu2   O5    S    
C3    F1    S    
C14   O12   S    
C8    H24   S    
C15   H4    S    
C4    O7    A    
C1    O5    A    
C5    N2    D    
C1    C2    S    
Cu1   N1    S    
C27   H29   S    
C3    N1    D    
C6    O9    A    
C9    O3    S    
C17   H10   S    
C2    C28   D    
C10   C11   A    
C16   H8    S    
C18   H14   S    
C12   C22   A    
C15   H5    S    
C21   H20   S    
Cu2   O7    S    
C4    C22   S    
C20   C21   S    
C15   H6    S    
C24   H27   S    
Cu1   O8    S    
C26   H28   S    
C19   H16   S    
C20   O4    S    
C7    O10   A    
C6    O8    A    
Cu2   O11   S    
C22   C23   A    
C18   C19   S    
C20   H19   S    
C16   O2    S    
C2    O12   S    
C17   H11   S    
C4    O6    A    
C1    O1    A    
C21   H21   S    
H23   N2    S    
C14   C15   S    
C16   H7    S    
C16   C17   S    
C3    C5    S    
C17   H9    S    
C19   H17   S    
