data_mof_unit_52333.cif
_audit_creation_date              2013-03-05T16:42:23-0500
_audit_creation_method            fapswitch 2.2
_symmetry_space_group_name_H-M    P1
_symmetry_Int_Tables_number       1
_space_group_crystal_system       triclinic
_cell_length_a                    9.87584
_cell_length_b                    10.654347
_cell_length_c                    15.50379
_cell_angle_alpha                 89.896387
_cell_angle_beta                  67.721777
_cell_angle_gamma                 89.925595
_cell_volume                      1509.54409033

loop_
_atom_site_label
_atom_site_type_symbol
_atom_site_description
_atom_site_fract_x
_atom_site_fract_y
_atom_site_fract_z
_atom_type_partial_charge
O1    O     O_R   0.385310 0.683210 0.499990 -0.618318
O2    O     O_R   0.614650 0.683240 0.500000 -0.611257
C1    C     C_R   0.500052 0.739681 0.499660 0.926197
O3    O     O_R   0.319830 0.499970 0.632240 -0.610344
O4    O     O_R   0.549170 0.500000 0.632250 -0.616039
C2    C     C_R   0.408526 0.498918 0.675971 0.920523
Zn1   Zn    Zn3+2 0.346870 0.499980 0.499990 0.955511
Zn2   Zn    Zn3+2 0.653130 0.500020 0.500010 0.956018
O5    O     O_R   0.385350 0.316760 0.500000 -0.609213
O6    O     O_R   0.614690 0.316790 0.500010 -0.621576
O7    O     O_R   0.450830 0.500000 0.367750 -0.619057
O8    O     O_R   0.680170 0.500030 0.367760 -0.631464
C3    C     C_R   0.502427 0.260466 0.495921 0.854321
C4    C     C_R   0.591594 0.497915 0.324029 0.850870
C5    C     C_R   0.353432 0.480186 0.776473 -0.017936
C6    C     C_R   0.649548 0.488267 0.222700 -0.058956
C7    C     C_R   0.184740 0.383138 0.916963 -0.208444
C8    C     C_R   0.218371 0.422974 0.825371 -0.203506
C9    C     C_R   0.451309 0.500730 0.820011 -0.204890
C10   C     C_R   0.426719 0.450280 0.907585 0.087375
C11   C     C_R   0.288369 0.395894 0.958321 0.172326
C12   C     C_R   0.535821 0.454409 0.946008 0.076690
C13   C     C_R   0.496613 0.423956 0.041178 0.069809
C14   C     C_R   0.357763 0.369058 0.090450 -0.218062
C15   C     C_R   0.256386 0.353794 0.048936 -0.216258
C16   C     C_R   0.683350 0.485561 0.891917 -0.215551
C17   C     C_R   0.785341 0.500192 0.932824 -0.230797
C18   C     C_R   0.742441 0.488479 0.028897 0.171697
C19   C     C_R   0.597360 0.450978 0.083836 0.098843
C20   C     C_R   0.841337 0.517864 0.071265 -0.200932
C21   C     C_R   0.795147 0.517326 0.168047 -0.195004
C22   C     C_R   0.553694 0.452106 0.180575 -0.252682
H1    H     H_    0.151782 0.310503 0.088430 0.160793
H2    H     H_    0.442028 0.432296 0.224920 0.150513
H3    H     H_    0.871163 0.544193 0.199967 0.163211
H4    H     H_    0.896655 0.525932 0.889516 0.157634
H5    H     H_    0.080032 0.338791 0.954323 0.151380
H6    H     H_    0.141784 0.405206 0.792000 0.153317
H7    H     H_    0.548727 0.554340 0.782913 0.151138
H8    H     H_    0.326229 0.332753 0.160324 0.147460
H9    H     H_    0.724044 0.496198 0.817151 0.144483
H10   H     H_    0.952436 0.546137 0.029800 0.160792
C23   C     C_R   0.374114 0.937320 0.537047 0.000970
C24   C     C_R   0.502629 0.871281 0.492195 -0.092394
C25   C     C_R   0.629043 0.932238 0.432682 -0.175020
H11   H     H_    0.724686 0.877969 0.391597 0.189407
C26   C     C_R   0.631566 0.063037 0.427481 -0.025831
C27   C     C_R   0.505589 0.128606 0.485959 -0.147510
C28   C     C_R   0.375995 0.065021 0.534169 0.088850
C29   C     C_3   0.272699 0.078313 0.633425 -0.510980
C30   C     C_3   0.270473 0.935685 0.637206 0.139830
H12   H     H_    0.323719 0.124442 0.677965 0.226902
H13   H     H_    0.166328 0.119480 0.638787 0.185102
H14   H     H_    0.162001 0.894826 0.647573 0.109802
C31   C     C_R   0.884840 0.547850 0.573947 0.207203
N1    N     N_R   0.856900 0.500860 0.500610 -0.106731
C32   C     C_R   0.968998 0.442166 0.431217 -0.119370
H15   H     H_    0.948367 0.397544 0.374774 0.143907
C33   C     C_R   0.112822 0.441932 0.431307 -0.100182
H16   H     H_    0.200235 0.396673 0.374985 0.143314
N2    N     N_R   0.142540 0.500820 0.500610 -0.105329
C34   C     C_R   0.027272 0.547840 0.573927 0.201408
C35   C     C_3   0.011924 0.679378 0.608712 -0.517836
C36   C     C_3   0.857949 0.679308 0.609062 -0.462345
H17   H     H_    0.014466 0.685075 0.679675 0.216341
H18   H     H_    0.086802 0.745014 0.556550 0.220381
H19   H     H_    0.771685 0.684731 0.680272 0.209111
H20   H     H_    0.843615 0.745483 0.557618 0.235299
C37   C     C_2   0.763449 0.127967 0.361505 0.408123
H21   H     H_    0.759662 0.226679 0.345502 0.067114
O9    O     O_2   0.878037 0.071173 0.322791 -0.575153
N3    N     N_R   0.335372 0.883757 0.700343 0.226601
O10   O     O_R   0.266406 0.796503 0.759353 -0.414299
O11   O     O_R   0.462171 0.922122 0.697474 -0.387306

loop_
_geom_bond_atom_site_label_1
_geom_bond_atom_site_label_2
_geom_bond_distance
_ccdc_geom_bond_type
C5    C8    1.399694 A    
C31   N1    1.363774 A    
C35   H17   1.111724 S    
C9    C10   1.392482 A    
Zn2   N1    2.015977 S    
C25   H11   1.084418 S    
C6    C21   1.399221 A    
C5    C9    1.390583 A    
C16   C17   1.387870 A    
C36   H20   1.112009 S    
C18   C19   1.418797 A    
C19   C22   1.394714 A    
C20   C21   1.393054 A    
O7    C4    1.295384 A    
C32   C33   1.420911 A    
C31   C34   1.406507 A    
N1    C32   1.368089 A    
C37   O9    1.221299 D    
O5    C3    1.281991 A    
C26   C37   1.486904 S    
C2    C5    1.456047 S    
Zn1   N2    2.014314 S    
C29   H12   1.112640 S    
C13   C14   1.418538 A    
C35   H18   1.111643 S    
C33   H16   1.081274 S    
N2    C34   1.363227 A    
O3    Zn1   1.964742 S    
C29   C30   1.520498 S    
C25   C26   1.395473 A    
C1    C24   1.406146 S    
C33   N2    1.369769 A    
C29   H13   1.111557 S    
C36   H19   1.111294 S    
C14   C15   1.390121 A    
O3    C2    1.295116 A    
C23   C28   1.361138 A    
C7    C11   1.405441 A    
O1    C1    1.281984 A    
C22   H2    1.076379 S    
Zn1   O7    1.913508 S    
C23   C24   1.385545 A    
C34   C35   1.489327 S    
O4    Zn2   1.913508 S    
C26   C27   1.415155 A    
Zn2   O8    1.964739 S    
C31   C36   1.490215 S    
C7    C8    1.395532 A    
C7    H5    1.083603 S    
C9    H7    1.078582 S    
N3    O11   1.302386 A    
C27   C28   1.389506 A    
O8    C4    1.294295 A    
C4    C6    1.457678 S    
C30   N3    1.465563 S    
C13   C19   1.417957 A    
C24   C25   1.399391 A    
Zn1   O5    1.988262 S    
C11   C15   1.391504 A    
O1    Zn1   1.989249 S    
O2    Zn2   1.988262 S    
C10   C12   1.415852 A    
N3    O10   1.300482 A    
O6    C3    1.283937 A    
C3    C27   1.412637 S    
C17   H4    1.083977 S    
C6    C22   1.393455 A    
C30   H14   1.110551 S    
C18   C20   1.404046 A    
O2    C1    1.282667 A    
C8    H6    1.083055 S    
C23   C30   1.501370 S    
C32   H15   1.081788 S    
O4    C2    1.294227 A    
C14   H8    1.078505 S    
C21   H3    1.083134 S    
C37   H21   1.083992 S    
C35   C36   1.518593 S    
C10   C11   1.416634 A    
Zn2   O6    1.989249 S    
C28   C29   1.496312 S    
C12   C16   1.417760 A    
C17   C18   1.390917 A    
C12   C13   1.413399 A    
C20   H10   1.083151 S    
C16   H9    1.079087 S    
C15   H1    1.084197 S    
