data_mof_unit_46736.cif
_audit_creation_date              2012-12-11T16:45:20-0500
_audit_creation_method            fapswitch 2.2
_symmetry_space_group_name_H-M    P1
_symmetry_Int_Tables_number       1
_space_group_crystal_system       triclinic
_cell_length_a                    8.427226
_cell_length_b                    17.286651
_cell_length_c                    18.795453
_cell_angle_alpha                 99.112796
_cell_angle_beta                  92.072002
_cell_angle_gamma                 96.158056
_cell_volume                      2683.99292041

loop_
_atom_site_label
_atom_site_type_symbol
_atom_type_description
_atom_site_fract_x
_atom_site_fract_y
_atom_site_fract_z
_atom_type_partial_charge
Ba1   Ba    Ba6+2 0.849550 0.533890 0.465080 1.632656
Ba2   Ba    Ba6+2 0.340280 0.466170 0.534930 1.640199
C1    C     C_3   0.542675 0.746759 0.191420 -0.166990
C2    C     C_R   0.898889 0.428808 0.096224 0.029183
C3    C     C_R   0.739878 0.400062 0.073540 -0.085105
C4    C     C_3   0.143390 0.751631 0.276616 0.394236
C5    C     C_R   0.680592 0.405317 0.004150 -0.098647
C6    C     C_R   0.780327 0.437581 0.955417 0.031183
C7    C     C_R   0.940138 0.466025 0.977219 0.012416
C8    C     C_R   0.723786 0.439367 0.884688 -0.127120
C9    C     C_R   0.827921 0.462364 0.832591 -0.043906
C10   C     C_R   0.986311 0.495060 0.855186 0.003991
C11   C     C_R   0.041524 0.496854 0.927884 -0.005437
C12   C     C_3   0.610445 0.727560 0.263481 0.610695
C13   C     C_R   0.779327 0.452975 0.758575 -0.026602
C14   C     C_R   0.886137 0.477667 0.709017 -0.261200
C15   C     C_R   0.034299 0.521015 0.731775 0.079672
C16   C     C_3   0.138767 0.820457 0.234869 -0.349643
C17   C     C_R   0.087722 0.528207 0.806059 -0.048864
C18   C     C_R   0.157322 0.492918 0.070959 -0.007254
C19   C     C_R   0.213649 0.493820 0.143231 0.007038
C20   C     C_R   0.111316 0.462019 0.192666 -0.052607
C21   C     C_R   0.958317 0.424804 0.166295 -0.048734
C22   C     C_R   0.239213 0.566297 0.833173 -0.046644
C23   C     C_3   0.475697 0.342406 0.315444 0.312007
C24   C     C_R   0.299780 0.560759 0.902753 0.034500
C25   C     C_R   0.199856 0.527004 0.950693 -0.000352
C26   C     C_R   0.258352 0.524126 0.021788 0.012513
C27   C     C_R   0.460078 0.587100 0.924930 -0.083028
C28   C     C_3   0.155129 0.721575 0.632516 0.456194
C29   C     C_R   0.519001 0.582568 0.994307 -0.098034
C30   C     C_R   0.418497 0.552211 0.043445 0.036906
C31   C     C_R   0.372268 0.526854 0.165784 -0.042367
C32   C     C_R   0.475514 0.550965 0.114074 -0.120937
C33   C     C_R   0.421622 0.536416 0.239595 -0.024710
C34   C     C_3   0.458618 0.316918 0.234029 -0.399171
C35   C     C_R   0.316430 0.509919 0.288886 -0.287727
C36   C     C_R   0.164799 0.470247 0.266753 0.047366
C37   C     C_R   0.414342 0.714841 0.464597 -0.233837
C38   C     C_R   0.562155 0.742063 0.501166 0.111724
C39   C     C_R   0.621913 0.821975 0.507281 -0.130572
C40   C     C_3   0.054570 0.789880 0.653207 -0.317881
C41   C     C_R   0.529691 0.875128 0.480595 -0.002015
C42   C     C_R   0.376421 0.848146 0.448668 -0.128437
C43   C     C_R   0.318976 0.767992 0.440758 0.000711
C44   C     C_R   0.589641 0.162057 0.480137 -0.117072
C45   C     C_3   0.021902 0.217467 0.713986 0.512972
C46   C     C_R   0.639522 0.243050 0.490093 0.049582
C47   C     C_R   0.886423 0.223027 0.551318 -0.004472
C48   C     C_R   0.842236 0.140991 0.535622 -0.103440
C49   C     C_R   0.689735 0.110772 0.504337 0.001725
C50   C     C_1   0.636579 0.027338 0.495677 -0.012665
C51   C     C_1   0.588817 0.957897 0.488975 -0.019098
C52   C     C_3   0.964094 0.292183 0.376906 0.314061
C53   C     C_R   0.782763 0.273624 0.529383 -0.275111
C54   C     C_3   0.931335 0.203142 0.355014 -0.395523
C55   C     C_3   0.639578 0.668820 0.697035 0.324614
C56   C     C_3   0.086551 0.219577 0.793876 0.247717
C57   C     C_3   0.552432 0.710986 0.759058 -0.364452
C58   C     C_3   0.653504 0.872118 0.312246 -0.295920
C59   C     C_3   0.796487 0.651329 0.727952 -0.337779
C60   C     C_3   0.670468 0.761158 0.137711 -0.376794
C61   C     C_3   0.791962 0.110611 0.704138 -0.273985
C62   C     C_3   0.053964 0.283100 0.918518 -0.263602
C63   C     C_3   0.240157 0.103202 0.788590 -0.294511
C64   C     C_3   0.094750 0.673436 0.226286 -0.284258
C65   C     C_3   0.388380 0.827567 0.655407 -0.250001
C66   C     C_3   0.551123 0.278424 0.748754 0.317933
C67   C     C_3   0.570926 0.249423 0.821133 -0.419839
C68   C     C_R   0.998635 0.463008 0.048313 -0.003074
H1    H     H_    0.097707 0.826042 0.705875 0.085029
H2    H     H_    0.607274 0.773017 0.775124 0.114096
H3    H     H_    0.558167 0.681860 0.806854 0.065793
H4    H     H_    0.425806 0.710800 0.743558 0.147628
H5    H     H_    0.507961 0.711362 0.295940 -0.146248
H6    H     H_    0.475086 0.798555 0.200992 0.062958
H7    H     H_    0.358932 0.358775 0.334671 0.016805
H8    H     H_    0.567747 0.394445 0.327491 0.065987
H9    H     H_    0.364292 0.266140 0.220016 0.124503
H10   H     H_    0.425169 0.366208 0.207506 0.060844
H11   H     H_    0.573771 0.299403 0.213587 0.115379
H12   H     H_    0.055049 0.827816 0.610734 0.099642
H13   H     H_    0.454750 0.697301 0.165954 0.061449
H14   H     H_    0.206324 0.810929 0.185240 0.063719
H15   H     H_    0.930950 0.259896 0.712412 -0.069821
H16   H     H_    0.207261 0.253699 0.801047 0.112845
H17   H     H_    0.671563 0.288844 0.726972 -0.067542
H18   H     H_    0.480635 0.230951 0.710001 0.067338
H19   H     H_    0.670809 0.285082 0.854981 0.122792
H20   H     H_    0.598415 0.187375 0.812114 0.081950
H21   H     H_    0.460568 0.253140 0.851679 0.122315
H22   H     H_    0.660554 0.374404 0.109797 0.069060
H23   H     H_    0.931815 0.767431 0.659226 0.144136
H24   H     H_    0.557226 0.382927 0.988167 0.072072
H25   H     H_    0.845181 0.471729 0.652964 0.066334
H26   H     H_    0.599177 0.419517 0.870491 0.115904
H27   H     H_    0.881445 0.394343 0.200110 0.108076
H28   H     H_    0.313586 0.598681 0.800257 0.113327
H29   H     H_    0.542356 0.608962 0.888378 0.074574
H30   H     H_    0.643416 0.603189 0.009588 0.069403
H31   H     H_    0.599439 0.572302 0.128775 0.103509
H32   H     H_    0.268503 0.753087 0.297358 -0.058350
H33   H     H_    0.356735 0.516615 0.345079 0.067204
H34   H     H_    0.851478 0.316098 0.392721 0.007732
H35   H     H_    0.476681 0.138872 0.451165 0.074163
H36   H     H_    0.301349 0.889320 0.430943 0.065809
H37   H     H_    0.925799 0.100734 0.547311 0.083240
H38   H     H_    0.735613 0.843409 0.536266 0.085643
H39   H     H_    0.366109 0.653731 0.461535 0.062341
H40   H     H_    0.820047 0.336443 0.537385 0.058951
H41   H     H_    0.013515 0.827242 0.219081 0.135744
H42   H     H_    0.192313 0.875946 0.269438 0.092361
H43   H     H_    0.099557 0.684975 0.582438 0.090336
H44   H     H_    0.746242 0.782413 0.355314 0.231279
H45   H     H_    0.054104 0.305688 0.423135 0.065008
H46   H     H_    0.726996 0.913604 0.355099 0.128244
H47   H     H_    0.526075 0.869252 0.325543 0.093966
H48   H     H_    0.668812 0.896094 0.261284 0.117265
H49   H     H_    0.869622 0.705808 0.755538 0.114129
H50   H     H_    0.775657 0.611081 0.767869 0.055102
H51   H     H_    0.858214 0.623982 0.681821 0.071612
H52   H     H_    0.756598 0.813147 0.159836 0.124536
H53   H     H_    0.735944 0.708815 0.124333 0.134781
H54   H     H_    0.612351 0.772626 0.087040 0.106136
H55   H     H_    0.027309 0.095241 0.672279 0.201577
H56   H     H_    0.837754 0.188374 0.310181 0.126727
H57   H     H_    0.702249 0.149151 0.688132 0.093936
H58   H     H_    0.793385 0.109628 0.763618 0.132076
H59   H     H_    0.754815 0.049351 0.675458 0.109267
H60   H     H_    0.938777 0.307660 0.828194 0.176842
H61   H     H_    0.958874 0.300545 0.955000 0.125537
H62   H     H_    0.148618 0.333671 0.921336 0.110147
H63   H     H_    0.106720 0.233805 0.938162 0.112588
H64   H     H_    0.047972 0.124446 0.855328 0.211259
H65   H     H_    0.210084 0.037998 0.780017 0.113525
H66   H     H_    0.335736 0.120141 0.832978 0.107693
H67   H     H_    0.889488 0.175312 0.401000 0.064170
H68   H     H_    0.284461 0.120539 0.737107 0.125354
H69   H     H_    0.185929 0.662392 0.186026 0.031021
H70   H     H_    0.083534 0.624393 0.257917 0.114318
H71   H     H_    0.978916 0.674283 0.196726 0.147332
H72   H     H_    0.386475 0.707497 0.614532 0.180886
H73   H     H_    0.516917 0.836250 0.644995 0.129090
H74   H     H_    0.376932 0.831778 0.714457 0.109975
H75   H     H_    0.332657 0.876181 0.635864 0.101241
H76   H     H_    0.042644 0.178660 0.336982 0.123298
H77   H     H_    0.570227 0.612793 0.672067 0.108442
N1    N     N_2   0.708487 0.794820 0.305961 -0.384233
N2    N     N_2   0.949793 0.138149 0.681798 -0.435347
N3    N     N_2   0.985478 0.260459 0.845376 -0.446267
N4    N     N_2   0.097686 0.139755 0.809049 -0.425791
N5    N     N_2   0.314716 0.751617 0.617014 -0.452676
O1    O     O_2   0.878040 0.448040 0.325130 -0.458786
O2    O     O_2   0.209410 0.230603 0.539716 -0.474156
O3    O     O_3   0.152665 0.241292 0.673864 -0.605949
O4    O     O_3   0.126800 0.453980 0.414370 -0.488797
O5    O     O_3   0.569440 0.593820 0.536390 -0.497225
O6    O     O_2   0.359400 0.311980 0.465480 -0.445971
O7    O     O_3   0.521514 0.279557 0.347373 -0.644988
O8    O     O_2   0.479968 0.493701 0.755313 -0.490163
O9    O     O_3   0.463937 0.344433 0.757560 -0.572712
O10   O     O_3   0.651020 0.589120 0.368830 -0.463809
O11   O     O_2   0.740733 0.519935 0.244253 -0.482153
O12   O     O_3   0.670562 0.720885 0.647996 -0.662820
O13   O     O_3   0.022040 0.323196 0.317383 -0.642416
O14   O     O_3   0.707529 0.666046 0.247782 -0.594851
O15   O     O_2   0.830300 0.688050 0.534560 -0.464900
O16   O     O_3   0.068750 0.630380 0.404830 -0.470013
O17   O     O_2   0.004101 0.770779 0.468611 -0.487563
O18   O     O_3   0.035169 0.761142 0.331811 -0.562624
O19   O     O_2   0.311660 0.551990 0.674910 -0.470831
O20   O     O_3   0.062910 0.546080 0.585630 -0.498279
O21   O     O_3   0.538690 0.410940 0.631180 -0.453260
O22   O     O_3   0.163746 0.678016 0.689992 -0.668445
O23   O     O_3   0.620260 0.406250 0.463620 -0.481103
O24   O     O_3   0.120960 0.369680 0.595180 -0.458787
P1    P     P_3+3 0.048060 0.426210 0.336320 0.977811
P2    P     P_3+3 0.655920 0.678120 0.556130 0.955473
P3    P     P_3+3 0.110002 0.732788 0.410783 0.959809
P4    P     P_3+3 0.141640 0.573850 0.663690 0.948388
P5    P     P_3+3 0.087308 0.266055 0.590970 0.972470
P6    P     P_3+3 0.625792 0.578564 0.275054 0.948857
P7    P     P_3+3 0.535604 0.308016 0.441205 0.953710
P8    P     P_3+3 0.569258 0.423636 0.725031 0.968637

loop_
_geom_bond_atom_site_label_1
_geom_bond_atom_site_label_2
_ccdc_geom_bond_type
C46   C53   A    
O2    P5    D    
C39   H38   S    
C59   H49   S    
C40   H23   S    
O13   P1    S    
C40   H12   S    
C65   H73   S    
C2    C68   A    
C5    C6    A    
C64   H71   S    
C66   O9    S    
C50   C51   T    
C33   P6    S    
C10   C11   A    
C24   C25   A    
C4    C64   S    
C22   H28   S    
C45   H15   S    
C52   H34   S    
C33   C35   A    
C16   H42   S    
O10   P6    S    
Ba2   O21   S    
C55   C57   S    
C19   C31   A    
Ba1   O15   S    
C13   C14   A    
C20   C36   A    
C44   H35   S    
C12   N1    S    
O17   P3    D    
C59   H51   S    
Ba1   Ba2   S    
O4    P1    S    
H72   N5    S    
O1    P1    D    
C7    C11   A    
C61   N2    S    
Ba2   O24   S    
C9    C13   A    
C41   C51   S    
C64   H69   S    
C45   N2    S    
O21   P8    S    
C66   C67   S    
O14   P6    S    
H60   N3    S    
C16   H14   S    
C58   H48   S    
C54   H56   S    
C12   O14   S    
O6    P7    D    
C57   H3    S    
C61   H58   S    
Ba2   O19   S    
C37   C43   A    
O20   P4    S    
C4    H32   S    
C36   P1    S    
C19   C20   A    
C52   H45   S    
C59   H50   S    
C39   C41   A    
C18   C68   A    
Ba2   P4    S    
C67   H19   S    
C65   H74   S    
C56   H16   S    
C60   H54   S    
C60   H53   S    
C48   C49   A    
C44   C46   A    
O24   P5    S    
C4    C16   S    
C52   C54   S    
C32   H31   S    
C27   H29   S    
C23   H8    S    
C63   H66   S    
C62   H62   S    
C26   C30   A    
C7    C68   A    
C34   H10   S    
C37   C38   A    
C35   H33   S    
C2    C21   A    
C23   O7    S    
C6    C7    A    
C18   C26   A    
Ba1   O16   S    
C47   C53   A    
C44   C49   A    
C49   C50   S    
C62   N3    S    
C30   C32   A    
C63   N4    S    
Ba1   O4    S    
C41   C42   A    
C65   H75   S    
C35   C36   A    
Ba2   O23   S    
Ba1   P2    S    
C28   N5    S    
C29   C30   A    
C62   H61   S    
C8    H26   S    
C34   H11   S    
Ba2   O6    S    
C13   P8    S    
C31   C32   A    
C58   H47   S    
C29   H30   S    
C16   H41   S    
Ba1   O1    S    
C1    H6    S    
C57   H4    S    
C63   H65   S    
C1    C12   S    
H55   N2    S    
C38   P2    S    
C63   H68   S    
C15   P4    S    
C38   C39   A    
C21   H27   S    
Ba1   O10   S    
C55   H77   S    
C53   H40   S    
C1    H13   S    
C48   H37   S    
C66   H18   S    
C23   H7    S    
O19   P4    D    
C58   H46   S    
C52   O13   S    
C15   C17   A    
C67   H20   S    
O22   P4    S    
C60   H52   S    
O12   P2    S    
C56   N4    S    
C3    C5    A    
C4    O18   S    
C1    C60   S    
C5    H24   S    
C62   H63   S    
Ba1   O23   S    
C14   H25   S    
Ba2   O4    S    
C65   N5    S    
O23   P7    S    
C28   C40   S    
C42   C43   A    
C22   C24   A    
C2    C3    A    
C34   H9    S    
C46   P7    S    
C9    C10   A    
O3    P5    S    
C55   C59   S    
C42   H36   S    
O16   P3    S    
C57   H2    S    
Ba1   O20   S    
O18   P3    S    
C12   H5    S    
O9    P8    S    
Ba1   O5    S    
C17   C22   A    
H44   N1    S    
C27   C29   A    
C45   C56   S    
C54   H67   S    
C14   C15   A    
C55   O12   S    
C45   O3    S    
Ba2   O5    S    
H64   N4    S    
C10   C17   A    
C40   H1    S    
C31   C33   A    
C28   O22   S    
O5    P2    S    
C61   H59   S    
C54   H76   S    
C3    H22   S    
C8    C9    A    
C43   P3    S    
C23   C34   S    
C37   H39   S    
O15   P2    D    
C64   H70   S    
C18   C19   A    
C24   C27   A    
C6    C8    A    
C47   C48   A    
C25   C26   A    
C66   H17   S    
C20   C21   A    
C11   C25   A    
C58   N1    S    
O7    P7    S    
C67   H21   S    
Ba1   P1    S    
O8    P8    D    
C47   P5    S    
C61   H57   S    
C56   N3    S    
Ba2   O20   S    
O11   P6    D    
C28   H43   S    
