data_mof_unit_20559.cif
_audit_creation_date              2012-12-11T15:34:09-0500
_audit_creation_method            fapswitch 2.2
_symmetry_space_group_name_H-M    P1
_symmetry_Int_Tables_number       1
_space_group_crystal_system       triclinic
_cell_length_a                    15.060991
_cell_length_b                    15.074207
_cell_length_c                    34.918222
_cell_angle_alpha                 90.526327
_cell_angle_beta                  89.908994
_cell_angle_gamma                 60.04466
_cell_volume                      6868.10123737

loop_
_atom_site_label
_atom_site_type_symbol
_atom_type_description
_atom_site_fract_x
_atom_site_fract_y
_atom_site_fract_z
_atom_type_partial_charge
C1    C     C_R   0.302259 0.608330 0.555697 0.543128
C2    C     C_R   0.663648 0.670301 0.665900 0.035823
C3    C     C_R   0.278324 0.641190 0.264138 -0.118945
C4    C     C_R   0.210654 0.625600 0.287055 0.022106
C5    C     C_R   0.137793 0.606711 0.269699 -0.110426
C6    C     C_R   0.129681 0.607924 0.229946 -0.062669
C7    C     C_R   0.195525 0.626196 0.207065 0.076723
C8    C     C_R   0.219467 0.552279 0.351577 -0.119333
C9    C     C_R   0.238310 0.550138 0.390744 -0.125828
C10   C     C_R   0.240429 0.709408 0.385668 -0.118774
C11   C     C_R   0.222508 0.710964 0.346523 -0.119641
C12   C     C_R   0.215732 0.630507 0.329014 0.027125
C13   C     C_R   0.572892 0.736837 0.646803 -0.124357
C14   C     C_R   0.253173 0.626541 0.407828 0.019254
C15   C     C_R   0.736188 0.025097 0.943222 0.538342
C16   C     C_R   0.747280 0.723353 0.944604 0.579149
C17   C     C_R   0.037866 0.734213 0.948195 0.543511
C18   C     C_R   0.722900 0.038878 0.052814 0.539393
C19   C     C_R   0.733209 0.734580 0.054697 0.548431
C20   C     C_R   0.027676 0.744681 0.057845 0.550160
C21   C     C_R   0.557925 0.714526 0.609290 -0.132323
C22   C     C_R   0.689730 0.690964 0.784040 0.383124
C23   C     C_R   0.672560 0.679424 0.707315 0.343588
C24   C     C_R   0.800233 0.632087 0.842726 -0.002789
C25   C     C_R   0.808030 0.634246 0.882422 -0.212479
C26   C     C_R   0.630855 0.769674 0.887783 0.366458
C27   C     C_R   0.620349 0.764137 0.848255 -0.111039
C28   C     C_R   0.704361 0.696377 0.825380 -0.014937
C29   C     C_R   0.611018 0.588912 0.554936 0.543853
C30   C     C_R   0.725427 0.705235 0.905132 0.023848
C31   C     C_R   0.724293 0.070425 0.905017 0.019004
C32   C     C_R   0.634771 0.098455 0.884012 -0.112796
C33   C     C_R   0.632091 0.116843 0.844927 -0.115348
C34   C     C_R   0.718395 0.108520 0.826199 0.029532
C35   C     C_R   0.805064 0.088569 0.847587 -0.118253
C36   C     C_R   0.808133 0.069407 0.886753 -0.124686
C37   C     C_R   0.751003 0.177932 0.766469 -0.113392
C38   C     C_R   0.744268 0.189626 0.726805 -0.110804
C39   C     C_R   0.706465 0.138117 0.704235 0.024806
C40   C     C_R   0.590429 0.300185 0.553471 0.545040
C41   C     C_R   0.679532 0.071526 0.721919 -0.111075
C42   C     C_R   0.685501 0.060535 0.761553 -0.107669
C43   C     C_R   0.719128 0.115381 0.784169 0.022431
C44   C     C_R   0.593277 0.177777 0.647298 -0.116975
C45   C     C_R   0.565243 0.216418 0.610466 -0.123649
C46   C     C_R   0.724594 0.217930 0.603638 -0.124352
C47   C     C_R   0.752788 0.178895 0.640457 -0.118729
C48   C     C_R   0.685766 0.161883 0.663120 0.032269
C49   C     C_R   0.628915 0.240454 0.588838 0.021472
C50   C     C_R   0.089199 0.698655 0.910640 0.023464
C51   C     C_R   0.301255 0.609780 0.445750 0.543147
C52   C     C_R   0.115275 0.761671 0.889718 -0.117831
C53   C     C_R   0.135880 0.744962 0.850629 -0.121853
C54   C     C_R   0.132038 0.664325 0.831864 0.034797
C55   C     C_R   0.115834 0.595389 0.853302 -0.106266
C56   C     C_R   0.094170 0.612603 0.892447 -0.130397
C57   C     C_R   0.201304 0.563796 0.771067 -0.094336
C58   C     C_R   0.210008 0.559535 0.731211 -0.098906
C59   C     C_R   0.154201 0.648577 0.709438 0.034276
C60   C     C_R   0.086703 0.741025 0.728173 -0.101306
C61   C     C_R   0.078643 0.745370 0.767969 -0.089202
C62   C     C_R   0.608292 0.590022 0.445370 0.520670
C63   C     C_R   0.137484 0.657288 0.789740 0.046505
C64   C     C_R   0.185275 0.725251 0.651476 -0.117938
C65   C     C_R   0.220265 0.716159 0.613887 -0.123408
C66   C     C_R   0.226702 0.552859 0.607503 -0.126988
C67   C     C_R   0.191435 0.562121 0.645101 -0.117393
C68   C     C_R   0.173932 0.646657 0.667864 0.032436
C69   C     C_R   0.245055 0.628047 0.592031 0.021003
C70   C     C_R   0.689706 0.719305 0.090245 -0.035799
C71   C     C_R   0.603539 0.802272 0.107596 -0.086610
C72   C     C_R   0.573955 0.794234 0.144697 0.376694
C73   C     C_R   0.587574 0.303543 0.443557 0.543755
C74   C     C_R   0.629742 0.702561 0.164878 0.032795
C75   C     C_R   0.710723 0.617274 0.146461 -0.183012
C76   C     C_R   0.740709 0.625613 0.109483 -0.146776
C77   C     C_R   0.606491 0.615823 0.221446 -0.123539
C78   C     C_R   0.604537 0.604991 0.261014 -0.118342
C79   C     C_R   0.609874 0.675920 0.285994 0.023563
C80   C     C_R   0.612146 0.760516 0.270696 -0.119013
C81   C     C_R   0.613567 0.771583 0.231136 -0.059206
C82   C     C_R   0.612655 0.698338 0.206240 0.063974
C83   C     C_R   0.562479 0.739909 0.353727 -0.083976
C84   C     C_R   0.634027 0.625952 0.590545 0.022177
C85   C     C_R   0.565457 0.722288 0.393361 0.007560
C86   C     C_R   0.684379 0.541394 0.380715 -0.129617
C87   C     C_R   0.681352 0.560245 0.341770 -0.127674
C88   C     C_R   0.617734 0.658764 0.327763 0.000221
C89   C     C_R   0.623568 0.620494 0.406833 -0.015047
C90   C     C_R   0.698427 0.103018 0.087596 0.017833
C91   C     C_R   0.771551 0.124587 0.103258 -0.126442
C92   C     C_R   0.757940 0.166046 0.140065 -0.122562
C93   C     C_R   0.671161 0.186385 0.161774 0.026322
C94   C     C_R   0.593866 0.173389 0.144817 -0.104481
C95   C     C_R   0.728401 0.565341 0.608585 -0.129688
C96   C     C_R   0.607301 0.132196 0.107978 -0.116846
C97   C     C_R   0.574842 0.275803 0.221492 -0.111890
C98   C     C_R   0.568877 0.282932 0.261330 -0.111922
C99   C     C_R   0.655533 0.221317 0.283544 0.024755
C100  C     C_R   0.749199 0.155743 0.265382 -0.113603
C101  C     C_R   0.755119 0.148313 0.225582 -0.110468
C102  C     C_R   0.667551 0.206816 0.203302 0.023702
C103  C     C_R   0.720581 0.233269 0.347908 -0.123922
C104  C     C_R   0.706047 0.249384 0.387337 -0.128114
C105  C     C_R   0.549769 0.240937 0.382980 -0.117805
C106  C     C_R   0.742838 0.587082 0.646016 -0.118838
C107  C     C_R   0.564161 0.225267 0.343573 -0.116461
C108  C     C_R   0.647570 0.225142 0.325603 0.028416
C109  C     C_R   0.618183 0.257674 0.404983 0.022326
C110  C     C_R   0.088176 0.705861 0.093035 0.012458
C111  C     C_R   0.119438 0.606322 0.105620 -0.155749
C112  C     C_R   0.164690 0.573433 0.141603 0.019711
C113  C     C_R   0.175531 0.643466 0.165761 0.040018
C114  C     C_R   0.151166 0.739962 0.151801 -0.145094
C115  C     C_R   0.108411 0.770725 0.115742 -0.125941
C116  C     C_R   0.270748 0.641556 0.224374 -0.108863
Cr1   Cr    Cr6+3 0.421670 0.426920 0.499620 1.018272
Cr2   Cr    Cr6+3 0.427030 0.651190 0.500980 1.025177
Cr3   Cr    Cr6+3 0.651280 0.421870 0.499380 1.014342
Cr4   Cr    Cr6+3 0.910810 0.908010 0.001130 1.017726
Cr5   Cr    Cr6+3 0.682800 0.909890 0.998370 1.076898
Cr6   Cr    Cr6+3 0.908370 0.682300 0.002180 1.013483
H1    H     H_    0.789055 0.497471 0.594678 0.132368
H2    H     H_    0.878327 0.047732 0.902134 0.129246
H3    H     H_    0.825375 0.165487 0.651719 0.104613
H4    H     H_    0.764178 0.242633 0.714042 0.114920
H5    H     H_    0.777121 0.220873 0.783448 0.114618
H6    H     H_    0.563649 0.134341 0.829018 0.114167
H7    H     H_    0.651883 0.029553 0.705170 0.120666
H8    H     H_    0.662763 0.009968 0.774645 0.132343
H9    H     H_    0.539542 0.166336 0.664192 0.106275
H10   H     H_    0.491055 0.232911 0.599862 0.129571
H11   H     H_    0.872345 0.082147 0.833632 0.105824
H12   H     H_    0.484657 0.763039 0.595905 0.128419
H13   H     H_    0.775732 0.234822 0.587495 0.126285
H14   H     H_    0.112823 0.828193 0.902891 0.135391
H15   H     H_    0.074556 0.562565 0.907793 0.120398
H16   H     H_    0.181437 0.501389 0.656828 0.110034
H17   H     H_    0.263755 0.487485 0.717589 0.105024
H18   H     H_    0.247167 0.495008 0.787368 0.104775
H19   H     H_    0.150636 0.797644 0.834692 0.109418
H20   H     H_    0.041476 0.810347 0.712080 0.107753
H21   H     H_    0.026885 0.817845 0.781825 0.112052
H22   H     H_    0.173232 0.790942 0.668405 0.104990
H23   H     H_    0.882466 0.586394 0.895201 0.129091
H24   H     H_    0.233520 0.775436 0.602780 0.129157
H25   H     H_    0.113458 0.532153 0.839364 0.117580
H26   H     H_    0.244336 0.484395 0.591246 0.125801
H27   H     H_    0.562199 0.875253 0.093329 0.154681
H28   H     H_    0.806984 0.560232 0.096769 0.145435
H29   H     H_    0.727217 0.496878 0.322426 0.112285
H30   H     H_    0.600644 0.540139 0.272114 0.112657
H31   H     H_    0.605417 0.558716 0.202696 0.111489
H32   H     H_    0.617345 0.815657 0.289263 0.109391
H33   H     H_    0.814376 0.535905 0.660025 0.135648
H34   H     H_    0.620398 0.834754 0.219991 0.151557
H35   H     H_    0.515292 0.816671 0.342940 0.157517
H36   H     H_    0.754938 0.545977 0.161568 0.120265
H37   H     H_    0.729920 0.462878 0.390012 0.136109
H38   H     H_    0.841947 0.104205 0.087980 0.128066
H39   H     H_    0.549302 0.117045 0.096554 0.143497
H40   H     H_    0.508206 0.216733 0.326916 0.117831
H41   H     H_    0.496337 0.335908 0.274833 0.121634
H42   H     H_    0.506607 0.322534 0.204927 0.144452
H43   H     H_    0.511056 0.801794 0.661642 0.127736
H44   H     H_    0.817652 0.177346 0.152299 0.107023
H45   H     H_    0.816824 0.107427 0.281996 0.108400
H46   H     H_    0.827127 0.093098 0.212337 0.107951
H47   H     H_    0.785684 0.233073 0.334594 0.104447
H48   H     H_    0.760107 0.262036 0.403516 0.124502
H49   H     H_    0.526404 0.187911 0.160985 0.139481
H50   H     H_    0.481502 0.246570 0.395723 0.137397
H51   H     H_    0.107020 0.554592 0.087618 0.111297
H52   H     H_    0.085714 0.847636 0.106648 0.139614
H53   H     H_    0.217669 0.773131 0.329626 0.116744
H54   H     H_    0.336264 0.654200 0.277057 0.117795
H55   H     H_    0.321613 0.656493 0.207122 0.119899
H56   H     H_    0.084783 0.594899 0.286923 0.106684
H57   H     H_    0.069601 0.598316 0.217047 0.112818
H58   H     H_    0.213942 0.489732 0.338553 0.113097
H59   H     H_    0.247675 0.485328 0.407091 0.127737
H60   H     H_    0.158975 0.794453 0.169884 0.119930
H61   H     H_    0.251232 0.769553 0.397958 0.148730
H62   H     H_    0.546497 0.813559 0.835403 0.151687
H63   H     H_    0.568715 0.100428 0.897248 0.151540
N1    N     N_R   0.738123 0.599348 0.765516 -0.178023
N2    N     N_R   0.730132 0.593749 0.727870 -0.221994
N3    N     N_R   0.620873 0.771041 0.725928 -0.239089
N4    N     N_R   0.629697 0.776765 0.763709 -0.239953
O1    O     O_R   0.502070 0.323090 0.541280 -0.517991
O2    O     O_R   0.520720 0.641670 0.461580 -0.505180
O3    O     O_R   0.674120 0.502090 0.457500 -0.516269
O4    O     O_R   0.640110 0.338380 0.459630 -0.504064
O5    O     O_3   0.499990 0.499990 0.499990 -0.237139
O6    O     O_R   0.017640 0.822070 0.960410 -0.517021
O7    O     O_R   0.822000 0.989470 0.960340 -0.506475
O8    O     O_R   0.666920 0.007430 0.955290 -0.499155
O9    O     O_R   0.694410 0.812480 0.959650 -0.430671
O10   O     O_R   0.831550 0.656950 0.958960 -0.537589
O11   O     O_R   0.998590 0.685540 0.963930 -0.505717
O12   O     O_R   0.338340 0.520690 0.539540 -0.502726
O13   O     O_R   0.008220 0.831200 0.045060 -0.515478
O14   O     O_R   0.813270 0.997930 0.038810 -0.503599
O15   O     O_R   0.657500 0.016560 0.039940 -0.518597
O16   O     O_R   0.685680 0.820940 0.038120 -0.500581
O17   O     O_R   0.822130 0.666070 0.043610 -0.514309
O18   O     O_R   0.989860 0.694000 0.042400 -0.500847
O19   O     O_3   0.833990 0.833400 0.000560 -0.251817
O20   O     O_R   0.324760 0.674070 0.543580 -0.518187
O21   O     O_R   0.522400 0.640310 0.540110 -0.504581
O22   O     O_R   0.675940 0.500630 0.542210 -0.518998
O23   O     O_R   0.641790 0.337020 0.538150 -0.501362
O24   O     O_R   0.500260 0.324550 0.456580 -0.516506
O25   O     O_R   0.336660 0.522040 0.461020 -0.503414
O26   O     O_R   0.322940 0.675540 0.458880 -0.510673
F1    F     F_    0.493331 0.877036 0.161396 -0.641199
C117  C     C_2   0.509086 0.810588 0.420029 0.231547
H64   H     H_    0.523954 0.801908 0.450528 0.118454
O27   O     O_2   0.446307 0.894912 0.408178 -0.519684
C118  C     C_2   0.896738 0.568102 0.820958 0.246695
H65   H     H_    0.957301 0.498689 0.833605 0.082711
O28   O     O_2   0.912494 0.595188 0.790062 -0.477000
C119  C     C_2   0.198981 0.466192 0.152545 0.207628
H66   H     H_    0.173668 0.421518 0.136100 0.102179
O29   O     O_2   0.258278 0.425215 0.178938 -0.511777
F2    F     F_    0.549375 0.839207 0.908818 -0.622007

loop_
_geom_bond_atom_site_label_1
_geom_bond_atom_site_label_2
_ccdc_geom_bond_type
C58   H17   S    
C41   H7    S    
C55   C56   A    
C37   C43   A    
C93   C94   A    
C105  H50   S    
C73   O4    A    
C6    H57   S    
Cr4   O13   S    
C41   C42   A    
Cr6   O17   S    
C119  H66   S    
Cr5   O16   S    
C87   C88   A    
C1    O12   A    
C35   H11   S    
C118  O28   D    
C97   C98   A    
C57   C58   A    
C78   H30   S    
C29   O21   A    
C39   C41   A    
C98   H41   S    
C77   C78   A    
C52   C53   A    
C44   H9    S    
C99   C108  S    
C105  C107  A    
C46   C49   A    
Cr3   O23   S    
C101  C102  A    
C81   H34   S    
C32   H63   S    
C100  H45   S    
C64   C68   A    
C92   C93   A    
C36   H2    S    
C115  H52   S    
C3    C116  A    
C31   C36   A    
C5    C6    A    
C15   O8    A    
C66   C69   A    
C54   C63   S    
C95   H1    S    
C40   C49   S    
C62   C89   S    
C96   H39   S    
C17   O11   A    
C34   C35   A    
C46   C47   A    
C61   C63   A    
C2    C13   A    
C85   C117  S    
C27   H62   S    
C112  C113  A    
Cr1   O5    S    
C60   H20   S    
C46   H13   S    
C71   H27   S    
C13   H43   S    
C61   H21   S    
C37   H5    S    
C35   C36   A    
C8    C9    A    
C67   H16   S    
C19   O17   A    
C50   C52   A    
C107  C108  A    
C107  H40   S    
C47   H3    S    
C18   O14   A    
C45   C49   A    
Cr6   O10   S    
C4    C12   S    
C86   H37   S    
C62   O2    A    
C66   H26   S    
C97   C102  A    
C94   C96   A    
C77   H31   S    
C66   C67   A    
C59   C60   A    
C87   H29   S    
C116  H55   S    
C10   H61   S    
C73   O24   A    
C74   C82   S    
Cr1   O1    S    
Cr1   O12   S    
C118  H65   S    
C38   H4    S    
C57   C63   A    
C38   C39   A    
C5    H56   S    
Cr4   O6    S    
C74   C75   A    
C1    O20   A    
C67   C68   A    
C18   C90   S    
C47   C48   A    
Cr6   O19   S    
Cr3   O3    S    
C29   C84   S    
C72   C74   A    
C10   C14   A    
C91   C92   A    
C9    C14   A    
C85   C89   A    
C78   C79   A    
C4    C5    A    
C62   O3    A    
C64   H22   S    
C117  H64   S    
C53   C54   A    
C15   C31   S    
C2    C106  A    
C33   H6    S    
C1    C69   S    
C110  C111  A    
C57   H18   S    
N3    N4    A    
Cr3   O4    S    
C84   C95   A    
Cr4   O19   S    
C7    C116  A    
C22   N1    A    
C101  H46   S    
Cr1   O24   S    
C75   C76   A    
C37   C38   A    
C95   C106  A    
C59   C68   S    
Cr2   O2    S    
C8    H58   S    
C55   H25   S    
C14   C51   S    
C83   H35   S    
C21   C84   A    
C76   H28   S    
C8    C12   A    
C97   H42   S    
Cr2   O26   S    
C33   C34   A    
C26   C27   A    
C13   C21   A    
C42   H8    S    
Cr4   O7    S    
C24   C25   A    
C22   N4    A    
C90   C96   A    
Cr5   O8    S    
C91   H38   S    
C103  C108  A    
C16   O10   A    
C79   C88   S    
N1    N2    A    
C20   C110  S    
C15   O7    A    
C24   C118  S    
C75   H36   S    
C83   C85   A    
C111  H51   S    
C106  H33   S    
Cr2   O20   S    
C70   C76   A    
C52   H14   S    
C112  C119  S    
C17   O6    A    
C25   H23   S    
C42   C43   A    
C3    C4    A    
C21   H12   S    
C103  C104  A    
C70   C71   A    
C16   O9    A    
C44   C45   A    
C51   O25   A    
C104  H48   S    
C113  C114  A    
C51   O26   A    
C25   C30   A    
C105  C109  A    
C54   C55   A    
C111  C112  A    
C72   F1    S    
C86   C87   A    
C11   H53   S    
Cr6   O18   S    
C31   C32   A    
C34   C43   S    
C24   C28   A    
Cr5   O15   S    
C80   C81   A    
C86   C89   A    
C93   C102  S    
C18   O15   A    
C11   C12   A    
C119  O29   D    
C114  C115  A    
C6    C7    A    
C17   C50   S    
C117  O27   D    
C40   O23   A    
Cr3   O22   S    
C20   O18   A    
C99   C100  A    
Cr2   O21   S    
Cr3   O5    S    
C19   O16   A    
C64   C65   A    
C7    C113  S    
C58   C59   A    
C20   O13   A    
C71   C72   A    
C114  H60   S    
C32   C33   A    
C23   N2    A    
C56   H15   S    
C90   C91   A    
C23   N3    A    
C77   C82   A    
C26   F2    S    
C65   C69   A    
C80   H32   S    
C100  C101  A    
C83   C88   A    
C53   H19   S    
C73   C109  S    
Cr1   O25   S    
Cr2   O5    S    
C29   O22   A    
C50   C56   A    
Cr5   O9    S    
C9    H59   S    
C10   C11   A    
C94   H49   S    
C79   C80   A    
C92   H44   S    
C3    H54   S    
C40   O1    A    
C45   H10   S    
C81   C82   A    
C98   C99   A    
C2    C23   S    
C103  H47   S    
Cr4   O14   S    
C104  C109  A    
C60   C61   A    
C19   C70   S    
C22   C28   S    
Cr5   O19   S    
Cr6   O11   S    
C65   H24   S    
C16   C30   S    
C110  C115  A    
C44   C48   A    
C39   C48   S    
C27   C28   A    
C26   C30   A    
