data_mof_unit_58813.cif
_audit_creation_date              2012-12-11T14:17:35-0500
_audit_creation_method            fapswitch 2.2
_symmetry_space_group_name_H-M    P1
_symmetry_Int_Tables_number       1
_space_group_crystal_system       triclinic
_cell_length_a                    6.941149
_cell_length_b                    13.625955
_cell_length_c                    20.441536
_cell_angle_alpha                 102.041292
_cell_angle_beta                  90.351055
_cell_angle_gamma                 90.789848
_cell_volume                      1890.55762491

loop_
_atom_site_label
_atom_site_type_symbol
_atom_type_description
_atom_site_fract_x
_atom_site_fract_y
_atom_site_fract_z
_atom_type_partial_charge
O1    O     O_R   0.506860 0.599390 0.449240 -0.543027
O2    O     O_R   0.180220 0.594600 0.586780 -0.533379
O3    O     O_R   0.004500 0.400610 0.550760 -0.519130
C1    C     C_R   0.349654 0.613344 0.614097 0.783246
O4    O     O_R   0.177490 0.611290 0.451970 -0.545776
O5    O     O_R   0.001750 0.417420 0.414990 -0.544470
C2    C     C_R   0.346740 0.637853 0.435115 0.681827
O6    O     O_R   0.509610 0.582580 0.585010 -0.539602
O7    O     O_3   0.337420 0.436370 0.488020 -0.375881
V1    V     V_3+5 0.064680 0.511800 0.502220 1.473194
O8    O     O_R   0.671710 0.405400 0.413220 -0.552537
C3    C     C_R   0.839086 0.383914 0.386611 0.739960
O9    O     O_R   0.674440 0.388710 0.548030 -0.542991
C4    C     C_R   0.842441 0.362835 0.565546 0.778822
V2    V     V_3+5 0.564010 0.488200 0.497780 1.450193
O10   O     O_3   0.841140 0.563630 0.511980 -0.375212
C5    C     C_R   0.783479 0.114347 0.614747 -0.152473
H1    H     H_    0.755480 0.167439 0.523668 0.122101
H2    H     H_    0.800477 0.987117 0.696794 0.134024
H3    H     H_    0.751854 0.037289 0.590203 0.124294
C6    C     C_R   0.845608 0.285984 0.606060 -0.113707
C7    C     C_R   0.844765 0.315172 0.928967 -0.211424
C8    C     C_R   0.805687 0.389565 0.893761 -0.159212
C9    C     C_R   0.792695 0.366900 0.823770 0.255794
C10   C     C_R   0.836999 0.268763 0.787651 0.102098
C11   C     C_R   0.851535 0.190912 0.824433 0.013371
C12   C     C_R   0.844808 0.242531 0.716212 0.021417
C13   C     C_R   0.813905 0.140520 0.684071 0.085365
C14   C     C_R   0.816560 0.065465 0.721241 -0.181073
C15   C     C_R   0.845686 0.089948 0.790008 -0.188718
C16   C     C_R   0.887702 0.312041 0.675042 0.363211
C17   C     C_R   0.788573 0.187854 0.576690 -0.236348
C18   C     C_R   0.860604 0.215505 0.895184 -0.075395
H4    H     H_    0.849348 0.334323 0.983151 0.116802
H5    H     H_    0.775521 0.464638 0.921238 0.140148
H6    H     H_    0.853101 0.028872 0.816326 0.127414
C19   C     C_2   0.005138 0.288177 0.286817 -0.195720
C20   C     C_2   0.840799 0.314738 0.320264 -0.338199
H7    H     H_    0.140874 0.318061 0.309955 0.142824
H8    H     H_    0.702645 0.285033 0.299766 0.125578
C21   C     C_2   0.019665 0.217723 0.220164 0.229354
C22   C     C_2   0.864172 0.184118 0.180622 -0.288096
H9    H     H_    0.720875 0.207629 0.196987 0.091861
C23   C     C_2   0.217713 0.761596 0.790475 0.382135
C24   C     C_2   0.357904 0.830073 0.815474 -0.033188
C25   C     C_2   0.208139 0.707986 0.719112 -0.089124
C26   C     C_2   0.363994 0.673036 0.683113 -0.289712
H10   H     H_    0.065362 0.690114 0.697482 0.165685
H11   H     H_    0.506403 0.682854 0.705909 0.177908
C27   C     C_R   0.394355 0.888096 0.386970 -0.158043
H12   H     H_    0.390592 0.837942 0.479718 0.105188
H13   H     H_    0.416155 0.013033 0.303754 0.117693
H14   H     H_    0.412922 0.966105 0.411851 0.112977
C28   C     C_R   0.357529 0.714631 0.394891 -0.027475
C29   C     C_R   0.332328 0.684951 0.071537 -0.151259
C30   C     C_R   0.318837 0.609024 0.107325 -0.119814
C31   C     C_R   0.327710 0.631549 0.176991 -0.159523
C32   C     C_R   0.350809 0.731902 0.213002 0.079673
C33   C     C_R   0.365230 0.809429 0.175857 0.064170
C34   C     C_R   0.360030 0.757920 0.284461 0.071751
C35   C     C_R   0.383992 0.860454 0.316886 0.143134
C36   C     C_R   0.397853 0.934796 0.279316 -0.203761
C37   C     C_R   0.388632 0.909899 0.209994 -0.196277
C38   C     C_R   0.346643 0.685887 0.325145 -0.214641
C39   C     C_R   0.381543 0.815517 0.425712 -0.175474
C40   C     C_R   0.355525 0.784810 0.105031 -0.081893
H15   H     H_    0.328478 0.606814 0.304511 0.092446
H16   H     H_    0.324381 0.665822 0.017386 0.128337
H17   H     H_    0.315949 0.568488 0.200933 0.106282
H18   H     H_    0.300950 0.531842 0.080845 0.122687
H19   H     H_    0.400370 0.970461 0.183303 0.128007
O11   O     O_R   0.203230 0.917310 0.915020 -0.519072
O12   O     O_R   0.535500 0.888690 0.048040 -0.542248
O13   O     O_R   0.711080 0.082610 0.085000 -0.553848
C41   C     C_R   0.366302 0.862182 0.064946 0.699458
O14   O     O_R   0.532630 0.905370 0.913230 -0.540086
O15   O     O_R   0.708190 0.099410 0.949230 -0.545377
C42   C     C_R   0.363271 0.885108 0.886295 0.759406
O16   O     O_R   0.206120 0.900510 0.050790 -0.533376
O17   O     O_3   0.375360 0.063570 0.011990 -0.378117
V3    V     V_3+5 0.648170 0.988200 0.997780 1.476705
O18   O     O_R   0.038240 0.111390 0.951940 -0.546202
C43   C     C_R   0.869834 0.137820 0.935028 0.686976
O19   O     O_R   0.041120 0.094710 0.086750 -0.516421
C44   C     C_R   0.873769 0.115503 0.113777 0.755120
V4    V     V_3+5 0.148810 0.011930 0.002180 1.500954
O20   O     O_3   0.871750 0.936430 0.988010 -0.351592
N1    N     N_3   0.209406 0.186404 0.198180 -0.642944
H20   H     H_    0.271579 0.152175 0.234261 0.210176
H21   H     H_    0.291805 0.250505 0.196170 0.210942
Cl1   Cl    Cl    0.029681 0.731743 0.841183 -0.680299
N2    N     N_3   0.502214 0.856399 0.771763 -0.705447
H22   H     H_    0.494849 0.933570 0.773829 0.227422
H23   H     H_    0.637716 0.841679 0.789834 0.266717
Cl2   Cl    Cl    0.033155 0.420456 0.704602 -0.648068
N3    N     N_3   0.705249 0.438803 0.791158 -0.615930
H24   H     H_    0.777529 0.507695 0.806695 0.294249
H25   H     H_    0.563311 0.448641 0.807834 0.242487

loop_
_geom_bond_atom_site_label_1
_geom_bond_atom_site_label_2
_ccdc_geom_bond_type
C29   C30   A    
C21   C22   D    
N1    H21   S    
C1    O6    A    
C29   H16   S    
C26   H11   S    
C28   C39   A    
C6    C16   A    
C36   C37   A    
C4    C6    S    
C13   C14   A    
C19   C20   D    
O14   C42   A    
C9    N3    S    
C33   C40   A    
O5    C3    A    
O15   C43   A    
C32   C34   A    
V2    O10   S    
C5    H3    S    
C30   C31   A    
H12   C39   S    
C7    C18   A    
C24   N2    S    
O11   C42   A    
O8    V2    S    
N3    H25   S    
O17   V4    S    
C8    C9    A    
C24   C42   S    
O1    V2    S    
O7    V1    S    
O9    C4    A    
C3    C20   S    
O12   C41   A    
O12   V3    S    
C23   C25   S    
C7    H4    S    
C6    C17   A    
C25   H10   S    
C27   H14   S    
C12   C16   A    
C38   H15   S    
C9    C10   A    
O4    C2    A    
V4    O20   S    
C32   C33   A    
O18   V4    S    
C34   C35   A    
O2    C1    A    
C14   C15   A    
C18   C43   S    
C11   C18   A    
O15   V3    S    
N3    H24   S    
N2    H23   S    
C22   C44   S    
O19   C44   A    
C23   Cl1   S    
V3    O20   S    
O3    C4    A    
C37   H19   S    
C11   C15   A    
O6    V2    S    
C30   H18   S    
O9    V2    S    
H1    C17   S    
C22   H9    S    
O13   V3    S    
O2    V1    S    
C29   C40   A    
C23   C24   D    
C5    C17   A    
C21   N1    S    
C25   C26   D    
O1    C2    A    
C5    C13   A    
C33   C37   A    
O19   V4    S    
O17   V3    S    
O14   V3    S    
O5    V1    S    
O11   V4    S    
O8    C3    A    
C10   C12   A    
C8    H5    S    
C15   H6    S    
C34   C38   A    
C10   C11   A    
O4    V1    S    
C19   H7    S    
O3    V1    S    
V1    O10   S    
C20   H8    S    
C31   C32   A    
C28   C38   A    
C16   Cl2   S    
C40   C41   S    
N2    H22   S    
O13   C44   A    
C19   C21   S    
C35   C36   A    
C27   C39   A    
N1    H20   S    
O18   C43   A    
C12   C13   A    
C27   C35   A    
C7    C8    A    
H13   C36   S    
C2    C28   S    
C31   H17   S    
C41   O16   A    
O16   V4    S    
O7    V2    S    
C1    C26   S    
H2    C14   S    
