data_mof_unit_36661.cif
_audit_creation_date              2013-03-05T15:50:12-0500
_audit_creation_method            fapswitch 2.2
_symmetry_space_group_name_H-M    P1
_symmetry_Int_Tables_number       1
_space_group_crystal_system       triclinic
_cell_length_a                    15.063043
_cell_length_b                    15.007696
_cell_length_c                    34.826884
_cell_angle_alpha                 90.40587
_cell_angle_beta                  89.609812
_cell_angle_gamma                 60.006633
_cell_volume                      6818.03296041

loop_
_atom_site_label
_atom_site_type_symbol
_atom_site_description
_atom_site_fract_x
_atom_site_fract_y
_atom_site_fract_z
_atom_type_partial_charge
O1    O     O_R   0.502070 0.323090 0.541280 -0.502663
O2    O     O_R   0.338340 0.520690 0.539540 -0.474456
C1    C     C_R   0.299066 0.609658 0.555189 0.532342
O3    O     O_R   0.324760 0.674070 0.543580 -0.470558
O4    O     O_R   0.522400 0.640310 0.540110 -0.512721
C2    C     C_R   0.609699 0.588167 0.555798 0.531098
O5    O     O_R   0.675940 0.500630 0.542210 -0.461887
O6    O     O_R   0.641790 0.337020 0.538150 -0.452855
C3    C     C_R   0.589713 0.300713 0.553592 0.599207
O7    O     O_R   0.500260 0.324550 0.456580 -0.515467
O8    O     O_R   0.336660 0.522040 0.461020 -0.530208
C4    C     C_R   0.298394 0.611267 0.446245 0.522911
O9    O     O_R   0.322940 0.675540 0.458880 -0.454168
O10   O     O_R   0.520720 0.641670 0.461580 -0.495530
C5    C     C_R   0.609186 0.591499 0.445909 0.517352
O11   O     O_R   0.674120 0.502090 0.457500 -0.520504
O12   O     O_R   0.640110 0.338380 0.459630 -0.451718
C6    C     C_R   0.590015 0.299397 0.444561 0.589189
Cr1   Cr    Cr6+3 0.421670 0.426920 0.499620 1.043638
Cr2   Cr    Cr6+3 0.427030 0.651190 0.500980 1.061571
Cr3   Cr    Cr6+3 0.651280 0.421870 0.499380 1.106105
O13   O     O_3   0.499990 0.499990 0.499990 -0.274520
N1    N     N_R   0.778555 0.611660 0.761993 -0.244820
N2    N     N_R   0.771788 0.609720 0.723947 -0.217894
C7    C     C_R   0.630274 0.626253 0.592360 -0.099050
C8    C     C_R   0.730659 0.604783 0.601111 0.272676
C9    C     C_R   0.751715 0.632727 0.637175 0.246040
C10   C     C_R   0.673074 0.679118 0.665290 -0.036768
C11   C     C_R   0.572618 0.703086 0.656365 0.228839
C12   C     C_R   0.550519 0.680420 0.619735 -0.067887
N3    N     N_R   0.628321 0.774851 0.726244 -0.194438
N4    N     N_R   0.634838 0.776630 0.764239 -0.253645
C13   C     C_R   0.708596 0.694119 0.782927 0.318761
C14   C     C_R   0.695586 0.690821 0.705444 0.344545
C15   C     C_R   0.798653 0.620628 0.844101 -0.133118
C16   C     C_R   0.804404 0.624762 0.883750 -0.119884
C17   C     C_R   0.628879 0.767792 0.887212 -0.005250
C18   C     C_R   0.625081 0.764072 0.846899 -0.089487
C19   C     C_R   0.710938 0.693223 0.825184 0.004566
C20   C     C_R   0.722644 0.701773 0.905664 -0.017117
H1    H     H_    0.876406 0.571220 0.896882 0.189309
H2    H     H_    0.865069 0.563397 0.828167 0.135760
H3    H     H_    0.554878 0.816342 0.832356 0.174597
C21   C     C_R   0.722131 0.081607 0.907174 0.033979
C22   C     C_R   0.624615 0.140347 0.890457 0.274775
C23   C     C_R   0.617726 0.179065 0.853257 -0.096138
C24   C     C_R   0.706638 0.155629 0.832406 -0.038795
C25   C     C_R   0.802487 0.100438 0.849440 -0.130971
C26   C     C_R   0.810140 0.064940 0.886693 -0.166483
C27   C     C_R   0.671315 0.272767 0.775944 0.010370
C28   C     C_R   0.665661 0.284439 0.735615 0.280483
C29   C     C_R   0.682544 0.200960 0.711578 0.051448
C30   C     C_R   0.709861 0.104571 0.726900 0.212439
C31   C     C_R   0.721806 0.091868 0.766725 -0.146829
C32   C     C_R   0.700581 0.174937 0.791057 -0.094567
C33   C     C_R   0.558503 0.277342 0.658694 0.293207
C34   C     C_R   0.537849 0.297469 0.619859 -0.137480
C35   C     C_R   0.719642 0.190986 0.603792 -0.014986
C36   C     C_R   0.739870 0.172538 0.643101 -0.166352
C37   C     C_R   0.660301 0.217766 0.670427 0.089508
C38   C     C_R   0.617238 0.257017 0.592199 -0.010631
H4    H     H_    0.885936 0.019028 0.898580 0.148211
H5    H     H_    0.817896 0.123790 0.652647 0.117514
H6    H     H_    0.543664 0.223753 0.839936 0.139507
H7    H     H_    0.745679 0.017511 0.779250 0.128845
H8    H     H_    0.459440 0.350001 0.611663 0.184302
H9    H     H_    0.871624 0.081213 0.833271 0.143784
C39   C     C_R   0.105854 0.688601 0.913179 -0.006323
C40   C     C_R   0.154045 0.738750 0.895091 -0.028873
C41   C     C_R   0.183790 0.717811 0.856005 0.267097
C42   C     C_R   0.169789 0.644536 0.835714 0.085932
C43   C     C_R   0.136504 0.585355 0.854990 -0.097572
C44   C     C_R   0.106485 0.605023 0.893570 0.224772
C45   C     C_R   0.267372 0.567112 0.773439 -0.047326
C46   C     C_R   0.270352 0.571943 0.733361 -0.182409
C47   C     C_R   0.185744 0.645036 0.712902 -0.012801
C48   C     C_R   0.094900 0.714891 0.732415 0.259198
C49   C     C_R   0.089275 0.708445 0.772793 0.282676
C50   C     C_R   0.176947 0.638874 0.793398 0.039889
C51   C     C_R   0.188846 0.731058 0.651219 -0.005181
C52   C     C_R   0.202095 0.726178 0.610942 0.225229
C53   C     C_R   0.228071 0.552519 0.609667 0.226761
C54   C     C_R   0.206324 0.559930 0.649160 0.279230
C55   C     C_R   0.193087 0.646199 0.670454 -0.062830
C56   C     C_R   0.237567 0.631348 0.591342 -0.082904
H10   H     H_    0.339441 0.518394 0.717708 0.186340
H11   H     H_    0.127717 0.527543 0.839383 0.124881
C57   C     C_R   0.685919 0.713099 0.088973 0.056944
C58   C     C_R   0.597469 0.794011 0.107608 -0.012592
C59   C     C_R   0.583441 0.788732 0.147188 -0.141396
C60   C     C_R   0.655418 0.705385 0.168507 0.001612
C61   C     C_R   0.732385 0.619209 0.148891 -0.146848
C62   C     C_R   0.743714 0.619598 0.109102 -0.002804
C63   C     C_R   0.662381 0.613836 0.228329 -0.087878
C64   C     C_R   0.666852 0.603365 0.268259 0.312454
C65   C     C_R   0.647973 0.687840 0.291452 0.051834
C66   C     C_R   0.630158 0.779742 0.274843 -0.068874
C67   C     C_R   0.632424 0.788741 0.234777 0.024786
C68   C     C_R   0.648418 0.704306 0.211054 -0.039670
C69   C     C_R   0.549010 0.734506 0.352764 0.283022
C70   C     C_R   0.541558 0.707916 0.390550 -0.124348
C71   C     C_R   0.725709 0.588242 0.391782 -0.004335
C72   C     C_R   0.731512 0.611405 0.353171 -0.098688
C73   C     C_R   0.643289 0.680381 0.333357 0.043331
C74   C     C_R   0.627937 0.631850 0.409888 -0.067498
H12   H     H_    0.804554 0.574154 0.338004 0.161493
H13   H     H_    0.669717 0.550776 0.210670 0.127372
H14   H     H_    0.517122 0.850866 0.161627 0.120837
H15   H     H_    0.617289 0.843440 0.293446 0.184635
H16   H     H_    0.466052 0.742008 0.403685 0.175297
H17   H     H_    0.783984 0.550767 0.164627 0.087342
C75   C     C_R   0.702204 0.093679 0.089847 0.018174
C76   C     C_R   0.776648 0.112393 0.105836 -0.123991
C77   C     C_R   0.771716 0.137153 0.144562 -0.161873
C78   C     C_R   0.692467 0.143584 0.167718 0.016684
C79   C     C_R   0.610993 0.135531 0.151212 0.017735
C80   C     C_R   0.617073 0.110689 0.112155 -0.154523
C81   C     C_R   0.655566 0.244592 0.226676 -0.045545
C82   C     C_R   0.649568 0.255377 0.266425 0.035948
C83   C     C_R   0.693778 0.166281 0.289323 0.074546
C84   C     C_R   0.747462 0.066738 0.272155 0.102753
C85   C     C_R   0.752040 0.057095 0.231465 0.029965
C86   C     C_R   0.702551 0.147752 0.209385 -0.010754
C87   C     C_R   0.756188 0.172204 0.356062 -0.044263
C88   C     C_R   0.731970 0.198985 0.395389 -0.030367
C89   C     C_R   0.557975 0.233258 0.384432 -0.140825
C90   C     C_R   0.581045 0.205771 0.345736 0.273650
C91   C     C_R   0.678616 0.179124 0.331353 0.054981
C92   C     C_R   0.629374 0.238281 0.408569 -0.017080
H18   H     H_    0.842643 0.100662 0.089135 0.141765
H19   H     H_    0.558460 0.097906 0.099778 0.117155
H20   H     H_    0.619915 0.312127 0.208701 0.176184
H21   H     H_    0.833482 0.144452 0.157086 0.115062
H22   H     H_    0.481699 0.256628 0.395107 0.158222
C93   C     C_R   0.087902 0.707064 0.093665 -0.020597
C94   C     C_R   0.129675 0.604286 0.106095 0.216452
C95   C     C_R   0.184076 0.573406 0.141001 -0.009725
C96   C     C_R   0.184280 0.649338 0.165367 0.056932
C97   C     C_R   0.143412 0.750950 0.152675 0.281941
C98   C     C_R   0.099615 0.777746 0.116484 -0.143661
C99   C     C_R   0.292841 0.631451 0.223643 0.100454
C100  C     C_R   0.296355 0.634911 0.264461 -0.006344
C101  C     C_R   0.220166 0.628905 0.286814 -0.023821
C102  C     C_R   0.142331 0.620147 0.268815 -0.114878
C103  C     C_R   0.135487 0.622563 0.229245 -0.118068
C104  C     C_R   0.208118 0.630393 0.206511 0.092940
C105  C     C_R   0.216066 0.558154 0.351040 -0.113472
C106  C     C_R   0.225579 0.557381 0.391134 -0.039195
C107  C     C_R   0.227683 0.718808 0.387377 0.264027
C108  C     C_R   0.216125 0.718680 0.347720 -0.095947
C109  C     C_R   0.217931 0.635059 0.329176 -0.070132
C110  C     C_R   0.243722 0.632208 0.409024 -0.026079
H23   H     H_    0.069907 0.856269 0.107201 0.157384
H24   H     H_    0.210431 0.782196 0.331174 0.158345
H25   H     H_    0.083512 0.616338 0.285611 0.136738
H26   H     H_    0.070821 0.621696 0.216153 0.116671
H27   H     H_    0.209308 0.497648 0.336602 0.162273
O14   O     O_R   0.017640 0.822070 0.960410 -0.480258
O15   O     O_R   0.822000 0.989470 0.960340 -0.516628
C111  C     C_R   0.735779 0.026777 0.943607 0.565003
O16   O     O_R   0.666920 0.007430 0.955290 -0.463283
O17   O     O_R   0.694410 0.812480 0.959650 -0.511579
C112  C     C_R   0.746402 0.722417 0.944845 0.534258
O18   O     O_R   0.831550 0.656950 0.958960 -0.480342
O19   O     O_R   0.998590 0.685540 0.963930 -0.450248
C113  C     C_R   0.041196 0.732248 0.948704 0.590300
O20   O     O_R   0.008220 0.831200 0.045060 -0.512403
O21   O     O_R   0.813270 0.997930 0.038810 -0.508012
C114  C     C_R   0.723087 0.038203 0.053037 0.542863
O22   O     O_R   0.657500 0.016560 0.039940 -0.504459
O23   O     O_R   0.685680 0.820940 0.038120 -0.466256
C115  C     C_R   0.731037 0.732500 0.053830 0.574797
O24   O     O_R   0.822130 0.666070 0.043610 -0.495022
O25   O     O_R   0.989860 0.694000 0.042400 -0.468411
C116  C     C_R   0.027600 0.744582 0.058063 0.572175
Cr4   Cr    Cr6+3 0.910810 0.908010 0.001130 1.053938
Cr5   Cr    Cr6+3 0.682800 0.909890 0.998370 1.083249
Cr6   Cr    Cr6+3 0.908370 0.682300 0.002180 1.089688
O26   O     O_3   0.833990 0.833400 0.000560 -0.277896
O27   O     O_3   0.810629 0.550960 0.575300 -0.507127
C117  C     C_3   0.814465 0.621417 0.549724 -0.092290
H28   H     H_    0.830505 0.676976 0.565082 0.113644
H29   H     H_    0.742533 0.663249 0.533056 0.105497
H30   H     H_    0.878115 0.577997 0.528868 0.134453
O28   O     O_3   0.636432 0.379166 0.719533 -0.527578
C118  C     C_3   0.725576 0.382080 0.709050 -0.084123
H31   H     H_    0.773511 0.320411 0.687858 0.101517
H32   H     H_    0.771632 0.376536 0.734708 0.157686
H33   H     H_    0.702374 0.456782 0.695199 0.144936
C119  C     C_2   0.647428 0.360914 0.802309 0.250626
H34   H     H_    0.660744 0.348614 0.832873 0.125312
O29   O     O_2   0.611713 0.448549 0.790532 -0.482791
O30   O     O_3   0.728481 0.024300 0.701740 -0.591918
C120  C     C_3   0.687026 0.964400 0.715572 -0.102475
H35   H     H_    0.610090 0.012096 0.729274 0.129423
H36   H     H_    0.740831 0.905145 0.735658 0.126642
H37   H     H_    0.677369 0.923106 0.690856 0.157612
O31   O     O_3   0.480022 0.324055 0.685560 -0.562006
C121  C     C_3   0.429210 0.266902 0.687909 -0.088511
H38   H     H_    0.482721 0.185802 0.696101 0.115245
H39   H     H_    0.390650 0.269340 0.660474 0.171154
H40   H     H_    0.369106 0.301845 0.710635 0.162083
C122  C     C_2   0.444162 0.706108 0.612463 0.317860
H41   H     H_    0.428912 0.647249 0.601905 0.098245
O32   O     O_2   0.373328 0.792770 0.619124 -0.377445
C123  C     C_2   0.807095 0.138875 0.576371 0.241681
H42   H     H_    0.885039 0.103167 0.586875 0.100558
O33   O     O_2   0.793895 0.131612 0.542215 -0.450811
C124  C     C_2   0.174572 0.813290 0.915788 0.264713
H43   H     H_    0.170989 0.878024 0.900706 0.149397
O34   O     O_2   0.201639 0.799716 0.949230 -0.465406
O35   O     O_3   0.065732 0.549954 0.910262 -0.566900
C125  C     C_3   0.147065 0.458308 0.924885 -0.086016
H44   H     H_    0.190505 0.474670 0.946894 0.144852
H45   H     H_    0.199563 0.408510 0.901486 0.128795
H46   H     H_    0.114588 0.414822 0.939090 0.146394
O36   O     O_3   0.213490 0.475286 0.667676 -0.549894
C126  C     C_3   0.114131 0.491456 0.674522 -0.085195
H47   H     H_    0.075955 0.493069 0.647202 0.162492
H48   H     H_    0.065643 0.562805 0.691575 0.137848
H49   H     H_    0.120752 0.426076 0.691415 0.147084
C127  C     C_2   0.360013 0.484991 0.792544 0.218312
H50   H     H_    0.426992 0.433740 0.775312 0.161713
O37   O     O_2   0.363284 0.472297 0.827190 -0.527447
O38   O     O_3   0.215427 0.777430 0.836514 -0.587011
C128  C     C_3   0.323076 0.730031 0.838569 -0.094174
H51   H     H_    0.360968 0.657436 0.821518 0.169073
H52   H     H_    0.350446 0.715287 0.868718 0.145200
H53   H     H_    0.347052 0.782517 0.825970 0.160598
O39   O     O_3   0.010679 0.782349 0.710988 -0.603361
C129  C     C_3   0.973472 0.885356 0.722941 -0.062850
H54   H     H_    0.033024 0.899537 0.735703 0.120204
H55   H     H_    0.909385 0.909156 0.743697 0.181264
H56   H     H_    0.942829 0.935506 0.697530 0.168486
O40   O     O_3   0.999401 0.772884 0.792702 -0.579084
C130  C     C_3   0.932731 0.732621 0.789786 -0.122230
H57   H     H_    0.968255 0.653178 0.801201 0.112329
H58   H     H_    0.908021 0.733725 0.759692 0.157418
H59   H     H_    0.862911 0.781693 0.807291 0.141478
C131  C     C_2   0.180652 0.820085 0.673462 0.323063
H60   H     H_    0.200917 0.811820 0.703561 0.088073
O41   O     O_2   0.151305 0.903638 0.658697 -0.437283
O42   O     O_3   0.192433 0.810702 0.591590 -0.453556
C132  C     C_3   0.097869 0.857460 0.572396 -0.048304
H61   H     H_    0.088163 0.927243 0.557847 0.163565
H62   H     H_    0.032467 0.882337 0.592951 0.117861
H63   H     H_    0.095795 0.805429 0.549931 0.085807
O43   O     O_3   0.249191 0.462936 0.590425 -0.522138
C133  C     C_3   0.165753 0.484047 0.566473 -0.084996
H64   H     H_    0.179127 0.410650 0.553429 0.155449
H65   H     H_    0.158802 0.535962 0.542643 0.098593
H66   H     H_    0.092087 0.518088 0.582821 0.108355
C134  C     C_2   0.516583 0.884298 0.087328 0.262656
H67   H     H_    0.472127 0.957016 0.102612 0.082683
O44   O     O_2   0.494356 0.876936 0.054264 -0.460511
C135  C     C_2   0.814189 0.519837 0.089969 0.235369
H68   H     H_    0.874402 0.458065 0.106284 0.075174
O45   O     O_2   0.802117 0.503317 0.056573 -0.462853
O46   O     O_3   0.680225 0.514363 0.285273 -0.540051
C136  C     C_3   0.777030 0.430641 0.274806 -0.103284
H69   H     H_    0.839385 0.449723 0.277436 0.106632
H70   H     H_    0.775738 0.402765 0.245296 0.122187
H71   H     H_    0.795162 0.366434 0.294657 0.189671
O47   O     O_3   0.851505 0.608174 0.644915 -0.546337
C137  C     C_3   0.856923 0.699336 0.648344 -0.116105
H72   H     H_    0.802200 0.762592 0.629467 0.098875
H73   H     H_    0.935154 0.681809 0.639743 0.136249
H74   H     H_    0.844510 0.726444 0.678708 0.152603
C138  C     C_2   0.622350 0.884892 0.218923 0.274769
H75   H     H_    0.647866 0.886926 0.189953 0.098237
O48   O     O_2   0.586525 0.963454 0.238458 -0.439103
O49   O     O_3   0.461952 0.801115 0.332713 -0.519384
C139  C     C_3   0.419224 0.900947 0.348727 -0.083546
H76   H     H_    0.477489 0.925569 0.351638 0.128073
H77   H     H_    0.381512 0.906437 0.376872 0.129968
H78   H     H_    0.359278 0.955668 0.329134 0.176525
C140  C     C_2   0.821914 0.519821 0.412369 0.247894
H79   H     H_    0.823233 0.518481 0.443479 0.128348
O50   O     O_2   0.901878 0.465515 0.394776 -0.492809
O51   O     O_3   0.510766 0.201738 0.321100 -0.517010
C141  C     C_3   0.415914 0.294711 0.322348 -0.083923
H80   H     H_    0.424571 0.363957 0.325422 0.095614
H81   H     H_    0.366722 0.292719 0.345780 0.166846
H82   H     H_    0.375820 0.302272 0.294927 0.191051
C142  C     C_2   0.594898 0.360629 0.283555 0.245862
H83   H     H_    0.597676 0.372966 0.314136 0.110195
O52   O     O_2   0.545615 0.435582 0.263479 -0.520083
O53   O     O_3   0.495046 0.747247 0.683945 -0.501299
C143  C     C_3   0.488691 0.668520 0.703616 -0.059135
H84   H     H_    0.557917 0.622433 0.721206 0.166098
H85   H     H_    0.476809 0.617093 0.683749 0.106801
H86   H     H_    0.421709 0.704669 0.723521 0.148608
C144  C     C_2   0.799908 0.974300 0.296745 0.305869
H87   H     H_    0.877374 0.914090 0.289731 0.133070
O54   O     O_2   0.756928 0.964184 0.324830 -0.488358
C145  C     C_2   0.803728 0.954867 0.211094 0.177838
H88   H     H_    0.818041 0.950413 0.180405 0.102041
O55   O     O_2   0.829425 0.874362 0.227675 -0.549266
C146  C     C_2   0.862309 0.136278 0.341367 0.193167
H89   H     H_    0.927465 0.095810 0.360090 0.107905
O56   O     O_2   0.878475 0.152533 0.308482 -0.549497
C147  C     C_2   0.813538 0.187164 0.422187 0.239563
H90   H     H_    0.871819 0.204979 0.412994 0.101306
O57   O     O_2   0.817823 0.154554 0.454544 -0.445477
C148  C     C_2   0.521224 0.146812 0.173456 0.282589
H91   H     H_    0.468336 0.127226 0.159969 0.089749
O58   O     O_2   0.503538 0.179478 0.206450 -0.418447
O59   O     O_3   0.121753 0.533046 0.083114 -0.557723
C149  C     C_3   0.040114 0.521162 0.097157 -0.101250
H92   H     H_    0.967590 0.596206 0.100250 0.131024
H93   H     H_    0.058854 0.480997 0.125124 0.075842
H94   H     H_    0.026511 0.473233 0.076290 0.165560
C150  C     C_2   0.377523 0.646126 0.284264 0.268446
H95   H     H_    0.408967 0.606503 0.311016 0.149732
O60   O     O_2   0.406287 0.703543 0.271957 -0.461889
C151  C     C_2   0.380226 0.621826 0.199666 0.330353
H96   H     H_    0.452233 0.603825 0.212743 0.171939
O61   O     O_2   0.374866 0.630774 0.164833 -0.468367
C152  C     C_2   0.241651 0.461858 0.150712 0.250309
H97   H     H_    0.238458 0.405521 0.131992 0.146565
O62   O     O_2   0.296400 0.430445 0.178834 -0.482305
C153  C     C_2   0.214154 0.479822 0.413605 0.251175
H98   H     H_    0.199367 0.490069 0.444292 0.119478
O63   O     O_2   0.218022 0.404867 0.397962 -0.514724
O64   O     O_3   0.150778 0.823224 0.175267 -0.529301
C154  C     C_3   0.054182 0.889808 0.192129 -0.118806
H99   H     H_    0.026905 0.846558 0.209807 0.138640
H100  H     H_    0.996610 0.936017 0.170093 0.095768
H101  H     H_    0.061727 0.944395 0.211600 0.165401
O65   O     O_3   0.234601 0.799152 0.403788 -0.549545
C155  C     C_3   0.135808 0.874305 0.416424 -0.092908
H102  H     H_    0.105437 0.843203 0.438655 0.124331
H103  H     H_    0.081781 0.905767 0.391987 0.111932
H104  H     H_    0.140709 0.939050 0.429739 0.154894
C156  C     C_2   0.534303 0.838320 0.909296 0.230272
H105  H     H_    0.530612 0.831187 0.940134 0.158222
O66   O     O_2   0.457943 0.903813 0.893149 -0.539749
O67   O     O_3   0.537008 0.162845 0.911312 -0.546307
C157  C     C_3   0.484177 0.119587 0.892685 -0.070688
H106  H     H_    0.536623 0.038446 0.883294 0.145563
H107  H     H_    0.440311 0.167086 0.867929 0.111797
H108  H     H_    0.428061 0.118888 0.913293 0.176881

loop_
_geom_bond_atom_site_label_1
_geom_bond_atom_site_label_2
_geom_bond_distance
_ccdc_geom_bond_type
C120  H36   1.110396 S    
C89   C90   1.396259 A    
C1    C56   1.492058 S    
C44   O35   1.380936 S    
C153  O63   1.221061 D    
C77   C78   1.398324 A    
C31   H7    1.082921 S    
C79   C148  1.487371 S    
O27   C117  1.410170 S    
C141  H82   1.109264 S    
C122  O32   1.220138 D    
O17   C112  1.277671 A    
O4    C2    1.275580 A    
C117  H30   1.109322 S    
C2    C7    1.488735 S    
C101  C102  1.395604 A    
C69   C73   1.399725 A    
C139  H78   1.109216 S    
C132  H61   1.109231 S    
C15   H2    1.083097 S    
O17   Cr5   1.923390 S    
Cr4   O26   1.971947 S    
O49   C139  1.410386 S    
C154  H99   1.112661 S    
C90   O51   1.391474 S    
C59   C60   1.399861 A    
C35   C38   1.417833 A    
C101  C109  1.476695 S    
C36   C37   1.401753 A    
Cr3   O13   1.973843 S    
C103  C104  1.398466 A    
C33   O31   1.382572 S    
C117  H29   1.112983 S    
C78   C86   1.464228 S    
O65   C155  1.409339 S    
C28   C29   1.413773 A    
C156  O66   1.221330 D    
C123  H42   1.085841 S    
C43   C44   1.396264 A    
C89   C92   1.400512 A    
C70   H16   1.082773 S    
C117  H28   1.112013 S    
O12   Cr3   1.924614 S    
C151  H96   1.082757 S    
C46   C47   1.400347 A    
C17   C18   1.407378 A    
C46   H10   1.084430 S    
C75   C114  1.467367 S    
C154  H101  1.109113 S    
C87   C146  1.493694 S    
O21   C114  1.273521 A    
O36   C126  1.409572 S    
C11   O53   1.388757 S    
C45   C50   1.417103 A    
C65   C73   1.468399 S    
O16   Cr5   2.033969 S    
C22   O67   1.385977 S    
C26   H4    1.083350 S    
O9    Cr2   2.051274 S    
O2    Cr1   1.916064 S    
C102  C103  1.382033 A    
C97   C98   1.392421 A    
C61   H17   1.084014 S    
C34   C38   1.405962 A    
C2    O5    1.272644 A    
C53   C56   1.416321 A    
C36   H5    1.084523 S    
C132  H63   1.113088 S    
C53   O43   1.383654 S    
C39   C44   1.419706 A    
C18   H3    1.083383 S    
C142  O52   1.220082 D    
C52   O42   1.383250 S    
O7    C6    1.274905 A    
C9    O47   1.386013 S    
C129  H56   1.109242 S    
C25   H9    1.083595 S    
C40   C41   1.413273 A    
C156  H105  1.083857 S    
O3    Cr2   2.031001 S    
C88   C92   1.421990 A    
O35   C125  1.409173 S    
C89   H22   1.082017 S    
O30   C120  1.411879 S    
O64   C154  1.409562 S    
C100  C150  1.488094 S    
C143  H84   1.111141 S    
C118  H31   1.112461 S    
C39   C113  1.497549 S    
C152  O62   1.220833 D    
C119  H34   1.084428 S    
C84   C144  1.487404 S    
C4    C110  1.489591 S    
C105  C106  1.404204 A    
C34   H8    1.083877 S    
C42   C50   1.475680 S    
C66   C67   1.404673 A    
C150  H95   1.085490 S    
C62   C135  1.483136 S    
O4    Cr2   1.934639 S    
C30   C31   1.401890 A    
C33   C34   1.390999 A    
C133  H64   1.109104 S    
C11   C12   1.402428 A    
C3    C38   1.469043 S    
C17   C20   1.418359 A    
C134  H67   1.085833 S    
C150  O60   1.220626 D    
C78   C79   1.417077 A    
C66   H15   1.084168 S    
C130  H57   1.112492 S    
O25   C116  1.275467 A    
C29   C37   1.468652 S    
N3    N4    1.328616 A    
O47   C137  1.414976 S    
C148  O58   1.220235 D    
C135  O45   1.221121 D    
C121  H40   1.109413 S    
N1    N2    1.330873 A    
C140  H79   1.083913 S    
C135  H68   1.085673 S    
O39   C129  1.413734 S    
C124  H43   1.085276 S    
C149  H93   1.110706 S    
C67   C138  1.484475 S    
C147  O57   1.220997 D    
C63   H13   1.082768 S    
C76   H18   1.083148 S    
O51   C141  1.412537 S    
C60   C61   1.400377 A    
C7    C8    1.415525 A    
C105  C109  1.399011 A    
C144  H87   1.084694 S    
C155  H103  1.113773 S    
C94   O59   1.383703 S    
C126  H48   1.111725 S    
C54   C55   1.411475 A    
O12   C6    1.276527 A    
N3    C14   1.356952 A    
C57   C58   1.424905 A    
C127  O37   1.220354 D    
C137  H73   1.109830 S    
C53   C54   1.402398 A    
O15   Cr4   1.928107 S    
C85   C145  1.498700 S    
C71   C140  1.485036 S    
C1    O3    1.274838 A    
C43   H11   1.083911 S    
O18   Cr6   2.050646 S    
C29   C30   1.401947 A    
C126  H49   1.109035 S    
O20   C116  1.269193 A    
O21   Cr4   1.915256 S    
C31   C32   1.399059 A    
C133  H66   1.112180 S    
C106  C110  1.422404 A    
C136  H69   1.114598 S    
C141  H81   1.109121 S    
C130  H59   1.109351 S    
C82   C142  1.486141 S    
C59   H14   1.084231 S    
C42   C43   1.392848 A    
O24   Cr6   2.030893 S    
C96   C104  1.474356 S    
C145  O55   1.220002 D    
C69   C70   1.397801 A    
C139  H77   1.111194 S    
C132  H62   1.114094 S    
C120  H35   1.114170 S    
C71   C72   1.404310 A    
C80   H19   1.084190 S    
C155  H104  1.109260 S    
C81   H20   1.084877 S    
C121  H38   1.113409 S    
C157  H108  1.109255 S    
C4    O9    1.270248 A    
C128  H51   1.109010 S    
C108  C109  1.395309 A    
O23   Cr5   1.915594 S    
C154  H100  1.112329 S    
C60   C68   1.485571 S    
C95   C152  1.493154 S    
C52   C56   1.413464 A    
C97   O64   1.384666 S    
C30   O30   1.393429 S    
C15   C16   1.387057 A    
C51   C55   1.416355 A    
C47   C55   1.482576 S    
C93   C94   1.416082 A    
C48   C49   1.415107 A    
O59   C149  1.412660 S    
C12   C122  1.472682 S    
O8    Cr1   1.925559 S    
C8    C9    1.408887 A    
O11   Cr3   2.031574 S    
C10   C11   1.406955 A    
C75   C80   1.403379 A    
C54   O36   1.384442 S    
C123  O33   1.220441 D    
C35   C123  1.483641 S    
O42   C132  1.410147 S    
C67   C68   1.422558 A    
C143  H86   1.109404 S    
C71   C74   1.418731 A    
C151  O61   1.220243 D    
C147  H90   1.084773 S    
C103  H26   1.084211 S    
C112  O18   1.267890 A    
C39   C40   1.427220 A    
O40   C130  1.411091 S    
C41   C42   1.405729 A    
O25   Cr6   1.932624 S    
C98   H23   1.083344 S    
C87   C91   1.417841 A    
C125  H45   1.113412 S    
C153  H98   1.084256 S    
C10   C14   1.471028 S    
C138  H75   1.083273 S    
C16   H1    1.082473 S    
C136  H71   1.109030 S    
Cr6   O26   1.965520 S    
C93   C98   1.401796 A    
O1    Cr1   2.041834 S    
O22   Cr5   2.038060 S    
O10   Cr2   1.914208 S    
O1    C3    1.267266 A    
C94   C95   1.416335 A    
C120  H37   1.109251 S    
C35   C36   1.403704 A    
O5    Cr3   2.044905 S    
C33   C37   1.400236 A    
C15   C19   1.396281 A    
C146  H89   1.084294 S    
C142  H83   1.084392 S    
C157  H106  1.114896 S    
C125  H44   1.113891 S    
O7    Cr1   2.033084 S    
C27   C28   1.414522 A    
C129  H55   1.106400 S    
C84   C85   1.421132 A    
C99   C104  1.419646 A    
C25   C26   1.389514 A    
Cr2   O13   1.965492 S    
C21   C111  1.475983 S    
C118  H32   1.112886 S    
C90   C91   1.403714 A    
O43   C133  1.412705 S    
O14   C113  1.273299 A    
C76   C77   1.387984 A    
C69   O49   1.385018 S    
C125  H46   1.109254 S    
C7    C12   1.417742 A    
C23   C24   1.398893 A    
C119  O29   1.220919 D    
C107  O65   1.381343 S    
C82   C83   1.414025 A    
C83   C91   1.476253 S    
C8    O27   1.383357 S    
C45   C127  1.487864 S    
N4    C13   1.355392 A    
C5    C74   1.482288 S    
C118  H33   1.109029 S    
C107  C108  1.393344 A    
C111  O16   1.273874 A    
O28   C118  1.410872 S    
C18   C19   1.405530 A    
C61   C62   1.395435 A    
C130  H58   1.112041 S    
C81   C86   1.388934 A    
C63   C64   1.398872 A    
C27   C119  1.491646 S    
N2    C14   1.355956 A    
C96   C97   1.405189 A    
C152  H97   1.084190 S    
C148  H91   1.085782 S    
C72   C73   1.400350 A    
C121  H39   1.112859 S    
C100  C101  1.422478 A    
C6    C92   1.481187 S    
C58   C59   1.401893 A    
C21   C26   1.407792 A    
O23   C115  1.279281 A    
O19   C113  1.278615 A    
C57   C115  1.495397 S    
C114  O22   1.270608 A    
C64   C65   1.400891 A    
C41   O38   1.385268 S    
C155  H102  1.113723 S    
C149  H92   1.113560 S    
C64   O46   1.385519 S    
C48   O39   1.389501 S    
C13   C19   1.472331 S    
C5    O11   1.273189 A    
C79   C80   1.398051 A    
C81   C82   1.389689 A    
C131  H60   1.084310 S    
C143  H85   1.112947 S    
O15   C111  1.275835 A    
O6    C3    1.275632 A    
N1    C13   1.358819 A    
O31   C121  1.408809 S    
C137  H72   1.116585 S    
C99   C151  1.497983 S    
C58   C134  1.481234 S    
O19   Cr6   1.914708 S    
C106  C153  1.486019 S    
C75   C76   1.402696 A    
C70   C74   1.409801 A    
C133  H65   1.111560 S    
C45   C46   1.399746 A    
C16   C20   1.409459 A    
Cr1   O13   1.971793 S    
C47   C48   1.405831 A    
C20   C112  1.482399 S    
C136  H70   1.110858 S    
C107  C110  1.420671 A    
C134  O44   1.220955 D    
C49   C50   1.412110 A    
C49   O40   1.384735 S    
Cr5   O26   1.974812 S    
C141  H80   1.114698 S    
C23   H6    1.083049 S    
C93   C116  1.481013 S    
C28   O28   1.384715 S    
C24   C25   1.394803 A    
C65   C66   1.397230 A    
C131  O41   1.220756 D    
O38   C128  1.410510 S    
C146  O56   1.220637 D    
C88   C147  1.487312 S    
O14   Cr4   2.032747 S    
C157  H107  1.110701 S    
C128  H52   1.113286 S    
C140  O50   1.221410 D    
C40   C124  1.484589 S    
O46   C136  1.411510 S    
C105  H27   1.083699 S    
C9    C10   1.413039 A    
C115  O24   1.274368 A    
C24   C32   1.465381 S    
C149  H94   1.108826 S    
C17   C156  1.485703 S    
C57   C62   1.421017 A    
C145  H88   1.083864 S    
O10   C5    1.273445 A    
C21   C22   1.413501 A    
C51   C52   1.411716 A    
O6    Cr3   1.915428 S    
O8    C4    1.277613 A    
C128  H53   1.109309 S    
C95   C96   1.417233 A    
C27   C32   1.412083 A    
O53   C143  1.413540 S    
C51   C131  1.489849 S    
C102  H25   1.083722 S    
C138  O48   1.221356 D    
O2    C1    1.274893 A    
C144  O54   1.220929 D    
C99   C100  1.424460 A    
C126  H47   1.109258 S    
C63   C68   1.406235 A    
C124  O34   1.221093 D    
C77   H21   1.083798 S    
C72   H12   1.083976 S    
C127  H50   1.085842 S    
C137  H74   1.110779 S    
C22   C23   1.406789 A    
O67   C157  1.411790 S    
C108  H24   1.083872 S    
C129  H54   1.114674 S    
C83   C84   1.419910 A    
C87   C88   1.417525 A    
C122  H41   1.080592 S    
C85   C86   1.416613 A    
O20   Cr4   2.046214 S    
C139  H76   1.114460 S    
