data_mof_unit_66825.cif
_audit_creation_date              2013-03-05T15:41:44-0500
_audit_creation_method            fapswitch 2.2
_symmetry_space_group_name_H-M    P1
_symmetry_Int_Tables_number       1
_space_group_crystal_system       triclinic
_cell_length_a                    8.707426
_cell_length_b                    15.328623
_cell_length_c                    15.181884
_cell_angle_alpha                 97.360575
_cell_angle_beta                  99.317992
_cell_angle_gamma                 98.542142
_cell_volume                      1953.26184541

loop_
_atom_site_label
_atom_site_type_symbol
_atom_site_description
_atom_site_fract_x
_atom_site_fract_y
_atom_site_fract_z
_atom_type_partial_charge
P1    P     P_3+3 0.004200 0.709230 0.580350 0.529117
O1    O     O_2   0.174080 0.723060 0.553930 -0.315664
O2    O     O_3   0.901570 0.609580 0.550840 -0.359101
O3    O     O_3   0.370350 0.665080 0.388270 -0.284665
O4    O     O_2   0.350390 0.820400 0.460300 -0.320460
O5    O     O_3   0.048176 0.735275 0.699158 -0.602313
O6    O     O_3   0.337206 0.811802 0.287860 -0.511336
C1    C     C_3   0.392722 0.878177 0.156718 -0.311772
H1    H     H_    0.285973 0.908328 0.162833 0.222814
P2    P     P_3+3 0.305000 0.425570 0.290900 0.512043
P3    P     P_3+3 0.881156 0.605775 0.224304 0.522442
O7    O     O_2   0.134790 0.452800 0.278150 -0.373764
O8    O     O_3   0.937650 0.618620 0.340860 -0.326992
O9    O     O_2   0.982792 0.540490 0.187644 -0.341915
O10   O     O_3   0.265274 0.311625 0.240728 -0.566300
O11   O     O_3   0.955837 0.704124 0.185450 -0.508799
C2    C     C_3   0.908686 0.782734 0.222552 0.424379
H2    H     H_    0.802989 0.768908 0.248684 0.051269
C3    C     C_3   0.906298 0.849856 0.154569 -0.601814
H3    H     H_    0.027711 0.886857 0.161704 0.217053
C4    C     C_3   0.773906 0.318618 0.247733 0.369582
H4    H     H_    0.858365 0.380911 0.276778 0.137352
C5    C     C_3   0.803595 0.283790 0.153952 -0.901987
H5    H     H_    0.782500 0.333039 0.107479 0.196858
H6    H     H_    0.927945 0.276416 0.157206 0.222273
Ba1   Ba    Ba6+2 0.154730 0.543770 0.458180 1.665005
C6    C     C_3   0.013927 0.660954 0.740676 0.339101
H7    H     H_    0.903489 0.619211 0.706357 0.163229
C7    C     C_3   0.003494 0.689979 0.839423 -0.905681
H8    H     H_    0.102042 0.745823 0.871688 0.309224
H9    H     H_    0.009556 0.633092 0.878305 0.238277
H10   H     H_    0.888928 0.712466 0.843513 0.260257
C8    C     C_3   0.185985 0.249981 0.286005 0.132112
H11   H     H_    0.067403 0.264995 0.290491 0.071424
C9    C     C_3   0.172081 0.154351 0.231154 -0.529709
H12   H     H_    0.108502 0.105077 0.266831 0.197577
P4    P     P_3+3 0.806080 0.290760 0.419570 0.549766
O12   O     O_2   0.636200 0.276890 0.446040 -0.285263
O13   O     O_3   0.908720 0.390410 0.449080 -0.349757
O14   O     O_3   0.439930 0.334910 0.611650 -0.436614
O15   O     O_3   0.783451 0.251810 0.302779 -0.569575
P5    P     P_3+3 0.940483 0.389361 0.775635 0.459160
O16   O     O_3   0.402060 0.547860 0.609750 -0.289128
O17   O     O_3   0.872630 0.381370 0.659060 -0.334970
O18   O     O_2   0.859192 0.461908 0.820376 -0.365481
O19   O     O_3   0.848685 0.291842 0.806123 -0.531442
Ba2   Ba    Ba6+2 0.655430 0.456220 0.541750 1.654592
P6    P     P_3+3 0.437261 0.779860 0.388580 0.584621
C10   C     C_3   0.383704 0.791532 0.201031 0.570960
H13   H     H_    0.495661 0.928652 0.195070 0.175639
O20   O     O_3   0.408220 0.452130 0.390170 -0.402303
C11   C     C_3   0.605808 0.734706 0.721890 0.192728
H14   H     H_    0.715502 0.711054 0.709239 0.098041
C12   C     C_3   0.651370 0.826302 0.780973 -0.337202
H15   H     H_    0.740012 0.824446 0.841703 0.224663
H16   H     H_    0.546028 0.847529 0.804093 0.260046
P7    P     P_3+3 0.501468 0.565993 0.724485 0.484878
O21   O     O_2   0.675490 0.547140 0.721820 -0.407552
O22   O     O_3   0.519513 0.678874 0.769352 -0.598799
C13   C     C_3   0.941633 0.225081 0.792967 0.065170
H17   H     H_    0.933419 0.202539 0.719060 0.124152
H18   H     H_    0.067770 0.248587 0.824113 0.080860
C14   C     C_3   0.881814 0.145679 0.836818 -0.113102
H19   H     H_    0.776325 0.106074 0.790595 0.203725
P8    P     P_3+3 0.386312 0.220690 0.608291 0.488779
C15   C     C_3   0.428422 0.241206 0.785612 0.271591
H20   H     H_    0.304666 0.252622 0.768944 -0.031514
O23   O     O_2   0.496449 0.186378 0.546846 -0.268714
O24   O     O_3   0.469871 0.190847 0.711613 -0.504656
H21   H     H_    0.344803 0.200689 0.905223 0.158536
C16   C     C_3   0.441991 0.190999 0.868135 -0.130727
H22   H     H_    0.551903 0.218106 0.917275 0.128286
C17   C     C_R   0.169727 0.171973 0.558067 0.241921
C18   C     C_R   0.102386 0.079112 0.549696 -0.120912
C19   C     C_R   0.958639 0.895168 0.544554 -0.097409
C20   C     C_R   0.105460 0.932962 0.598926 -0.170171
C21   C     C_R   0.185883 0.014739 0.585719 0.262439
C22   C     C_R   0.898268 0.799939 0.530099 0.193232
C23   C     C_R   0.748678 0.770886 0.475305 -0.350511
C24   C     C_R   0.913256 0.204613 0.479242 0.205579
C25   C     C_R   0.850159 0.110062 0.467612 -0.036559
C26   C     C_R   0.940819 0.048875 0.507166 0.026669
C27   C     C_R   0.699289 0.073770 0.416188 -0.018703
C28   C     C_R   0.636378 0.982190 0.405288 -0.171136
C29   C     C_R   0.719250 0.921525 0.446659 -0.036215
C30   C     C_R   0.873007 0.954972 0.498888 0.107805
C31   C     C_R   0.653690 0.828536 0.437046 0.186321
C32   C     C_R   0.070252 0.232440 0.527732 -0.514394
H23   H     H_    0.520107 0.959376 0.364386 0.199038
H24   H     H_    0.627686 0.115891 0.382915 0.212354
H25   H     H_    0.702250 0.701502 0.466969 0.160516
H26   H     H_    0.120012 0.302694 0.537214 0.151808
C33   C     C_R   0.262234 0.440259 0.765481 -0.446801
C34   C     C_R   0.157876 0.418101 0.822877 0.086543
C35   C     C_R   0.218545 0.426756 0.916869 -0.100499
C36   C     C_R   0.367529 0.483437 0.955385 0.126742
C37   C     C_R   0.443449 0.528407 0.893977 -0.239864
C38   C     C_R   0.402228 0.500626 0.800214 0.264962
C39   C     C_R   0.609473 0.530119 0.088321 -0.263968
C40   C     C_R   0.671355 0.550227 0.181731 0.151802
C41   C     C_R   0.414248 0.490645 0.215467 0.276546
C42   C     C_R   0.348403 0.484792 0.123823 -0.146702
C43   C     C_R   0.442566 0.499906 0.056506 0.061275
C44   C     C_R   0.575188 0.526783 0.244073 -0.368449
H27   H     H_    0.221761 0.468629 0.107582 0.165983
H28   H     H_    0.533008 0.586714 0.917537 0.117745
H29   H     H_    0.223808 0.421862 0.693195 0.189799
I1    I     I_    0.228739 0.683458 0.107494 -0.271890
C45   C     C_2   0.695411 0.196560 0.115866 0.843626
H30   H     H_    0.594041 0.194282 0.063115 -0.038298
O25   O     O_2   0.714521 0.129153 0.148050 -0.469790
C46   C     C_2   0.140682 0.609560 0.735641 0.566660
H31   H     H_    0.240697 0.623080 0.790417 0.002599
O26   O     O_2   0.135694 0.557839 0.666909 -0.558979
C47   C     C_2   0.271621 0.252866 0.380302 0.609791
H32   H     H_    0.288815 0.312339 0.429894 0.045372
O27   O     O_2   0.318019 0.186577 0.402824 -0.565596
I2    I     I_    0.403479 0.864958 0.013230 -0.220391
C48   C     C_2   0.082968 0.143124 0.136628 0.598251
H33   H     H_    0.096081 0.196294 0.096444 0.086764
O28   O     O_2   0.005000 0.070401 0.101621 -0.449342
C49   C     C_2   0.331879 0.130584 0.223098 0.799499
H34   H     H_    0.408401 0.168373 0.186452 -0.014997
O29   O     O_2   0.374989 0.067816 0.256220 -0.611091
C50   C     C_2   0.529470 0.755330 0.201568 0.273140
H35   H     H_    0.594618 0.765987 0.148148 0.005868
O30   O     O_2   0.559832 0.700045 0.249249 -0.651995
C51   C     C_2   0.506959 0.742119 0.633876 0.610842
H36   H     H_    0.434109 0.792743 0.629863 0.127791
O31   O     O_2   0.512521 0.693199 0.565378 -0.574153
I3    I     I_    0.745921 0.923192 0.708183 -0.403263
C52   C     C_2   0.807140 0.919238 0.176170 0.536792
H37   H     H_    0.796193 0.940344 0.245502 0.009683
O32   O     O_2   0.742924 0.955287 0.116537 -0.425055
I4    I     I_    0.060213 0.066143 0.862907 -0.288641
C53   C     C_2   0.837349 0.171562 0.926322 0.629297
H38   H     H_    0.829765 0.240249 0.951440 0.007030
O33   O     O_2   0.804091 0.112846 0.971341 -0.482394
C54   C     C_2   0.538087 0.329778 0.810200 0.533451
H39   H     H_    0.582492 0.363082 0.758848 0.142929
O34   O     O_2   0.579793 0.365873 0.888606 -0.594869
I5    I     I_    0.049491 0.850342 0.344573 -0.276691
I6    I     I_    0.460956 0.052998 0.842418 -0.172703
C55   C     C_2   0.155329 0.903202 0.685653 0.708947
H40   H     H_    0.073253 0.895903 0.731687 0.087037
O35   O     O_2   0.286587 0.884995 0.706800 -0.565255
I7    I     I_    0.422953 0.004227 0.578539 -0.155641
C56   C     C_2   0.726905 0.536803 0.028133 0.732823
H41   H     H_    0.763331 0.599605 0.005365 -0.042212
O36   O     O_2   0.795808 0.474695 0.011403 -0.545319
C57   C     C_2   0.131751 0.368439 0.968695 0.413428
H42   H     H_    0.008515 0.370615 0.970212 0.121802
O37   O     O_2   0.197225 0.315703 0.008300 -0.627958
C58   C     C_2   0.641961 0.540773 0.340389 0.702817
H43   H     H_    0.592742 0.582762 0.386268 0.035921
O38   O     O_2   0.738738 0.497326 0.370071 -0.532850
C59   C     C_2   0.856725 0.804473 0.057876 0.897065
H44   H     H_    0.743502 0.761195 0.034865 -0.092802
O39   O     O_2   0.944633 0.816806 0.004260 -0.560844
C60   C     C_2   0.611313 0.334940 0.235657 0.457141
H45   H     H_    0.549986 0.349457 0.172510 -0.018900
O40   O     O_2   0.544434 0.328319 0.298565 -0.519740

loop_
_geom_bond_atom_site_label_1
_geom_bond_atom_site_label_2
_geom_bond_distance
_ccdc_geom_bond_type
O14   Ba2   2.866867 S    
C39   C43   1.440606 A    
C39   C56   1.478679 S    
C33   C34   1.393183 A    
C1    H13   1.118303 S    
C6    C7    1.529344 S    
P3    O8    1.735543 S    
C17   C18   1.437950 A    
C9    C48   1.492525 S    
C35   C36   1.438418 A    
C51   H36   1.074284 S    
C23   C31   1.412615 A    
C37   C38   1.403691 A    
C11   C51   1.494916 S    
C1    I2    2.180359 S    
C29   C30   1.425557 A    
C12   I3    2.111106 S    
C59   H44   1.081153 S    
C13   H17   1.118401 S    
C27   C28   1.407399 A    
C16   I6    2.137175 S    
P4    O12   1.586110 D    
C56   O36   1.219796 D    
C7    H10   1.111106 S    
P2    O10   1.773375 S    
C45   O25   1.219895 D    
C24   C25   1.449159 A    
P3    O9    1.540889 D    
Ba1   O13   2.908432 S    
P7    O22   1.750771 S    
C15   O24   1.407170 S    
C47   H32   1.080483 S    
C40   C44   1.407307 A    
P8    C17   1.914610 S    
C42   H27   1.073925 S    
C13   H18   1.109212 S    
P1    O1    1.585773 D    
P5    O19   1.740639 S    
C25   C27   1.408642 A    
C15   C54   1.504689 S    
C3    H3    1.104593 S    
C1    H1    1.109409 S    
C47   O27   1.216083 D    
C18   C21   1.422663 A    
C57   H42   1.082386 S    
H21   C16   1.107014 S    
P4    Ba2   3.487843 S    
C21   I7    2.113351 S    
C23   H25   1.063869 S    
O17   Ba2   2.853528 S    
P2    Ba1   3.470724 S    
C29   C31   1.434206 A    
C15   H20   1.111281 S    
C59   O39   1.217555 D    
C4    H4    1.107044 S    
P1    C22   1.947073 S    
C42   C43   1.430391 A    
P5    O17   1.755197 S    
C18   C26   1.430512 A    
P2    O20   1.593852 S    
C46   O26   1.217552 D    
C46   H31   1.077329 S    
P4    C24   1.958122 S    
C11   C12   1.526398 S    
Ba1   O16   2.873192 S    
C25   C26   1.440208 A    
C10   I1    2.166659 S    
C48   O28   1.221704 D    
C5    C45   1.503635 S    
O4    P6    1.541729 D    
C12   H16   1.110898 S    
C8    C47   1.495254 S    
P1    O5    1.762353 S    
C3    C59   1.506378 S    
C41   C42   1.402491 A    
C32   H26   1.081493 S    
C28   C29   1.407896 A    
O6    C10   1.450333 S    
C55   O35   1.219060 D    
C22   C23   1.403154 A    
O11   C2    1.409173 S    
Ba2   O20   2.872650 S    
C26   C30   1.453778 A    
O7    Ba1   2.871034 S    
C2    I5    2.098592 S    
P1    O2    1.619277 S    
P5    O18   1.547593 D    
C60   O40   1.203721 D    
C19   C20   1.402543 A    
C17   C32   1.428339 A    
C7    H8    1.116815 S    
C11   O22   1.399488 S    
P3    O11   1.761915 S    
C19   C30   1.440661 A    
O5    C6    1.388540 S    
P2    C41   1.890784 S    
C48   H33   1.082492 S    
P8    O23   1.542841 D    
C36   C37   1.417820 A    
C2    H2    1.063573 S    
O12   Ba2   2.908059 S    
P6    C31   1.908446 S    
O1    Ba1   2.907575 S    
C20   C21   1.396791 A    
C58   H43   1.070895 S    
P2    O7    1.587407 D    
C15   C16   1.549836 S    
C52   O32   1.222165 D    
C4    O15   1.405738 S    
C37   H28   1.074991 S    
Ba1   Ba2   4.775116 S    
C53   O33   1.226919 D    
C6    C46   1.454250 S    
C41   C44   1.403554 A    
O14   P8    1.735675 S    
C13   C14   1.525609 S    
P1    Ba1   3.487171 S    
C4    C60   1.460660 S    
O8    Ba1   2.852963 S    
C35   C57   1.470171 S    
C28   H23   1.080964 S    
C49   O29   1.220506 D    
C20   C55   1.468984 S    
C11   H14   1.106843 S    
O13   Ba2   3.027106 S    
O3    P6    1.768467 S    
C3    C52   1.503080 S    
C27   H24   1.077932 S    
C12   H15   1.108788 S    
O19   C13   1.410041 S    
P5    C34   1.877051 S    
C58   O38   1.215473 D    
O2    Ba1   3.026059 S    
C53   H38   1.088241 S    
C51   O31   1.213843 D    
O3    Ba1   2.867598 S    
C54   H39   1.076516 S    
C10   C50   1.458100 S    
C39   C40   1.409856 A    
C55   H40   1.081537 S    
O6    P6    1.795584 S    
C4    C5    1.531154 S    
C16   H22   1.102900 S    
C24   C32   1.418838 A    
C45   H30   1.084658 S    
C60   H45   1.085331 S    
Ba2   O21   2.871121 S    
C54   O34   1.219224 D    
C8    C9    1.568041 S    
P7    O21   1.590024 D    
C50   H35   1.077789 S    
P8    O24   1.764204 S    
P7    C38   1.852613 S    
C33   C38   1.397136 A    
O2    Ba2   2.909145 S    
C2    C3    1.547845 S    
C8    H11   1.101419 S    
C52   H37   1.084475 S    
C56   H41   1.084828 S    
C57   O37   1.220852 D    
P4    O15   1.766309 S    
C34   C35   1.421090 A    
C19   C22   1.451860 A    
O16   P7    1.782394 S    
C5    H5    1.112273 S    
C14   H19   1.105066 S    
P4    O13   1.619306 S    
C5    H6    1.099121 S    
C7    H9    1.116738 S    
C36   C43   1.540899 S    
C6    H7    1.084054 S    
C50   O30   1.214008 D    
P3    C40   1.869384 S    
C14   C53   1.493863 S    
C9    H12   1.117173 S    
C44   C58   1.459299 S    
C49   H34   1.084893 S    
Ba1   O20   3.032940 S    
O16   Ba2   3.031990 S    
C1    C10   1.561345 S    
O10   C8    1.402974 S    
C33   H29   1.081485 S    
C9    C49   1.509317 S    
C14   I4    2.131525 S    
