data_mof_unit_65191.cif
_audit_creation_date              2012-12-10T20:49:15-0500
_audit_creation_method            fapswitch 2.2
_symmetry_space_group_name_H-M    P1
_symmetry_Int_Tables_number       1
_space_group_crystal_system       triclinic
_cell_length_a                    19.188323
_cell_length_b                    19.19488
_cell_length_c                    19.433629
_cell_angle_alpha                 90.199426
_cell_angle_beta                  94.81822
_cell_angle_gamma                 85.252968
_cell_volume                      7107.94350249

loop_
_atom_site_label
_atom_site_type_symbol
_atom_type_description
_atom_site_fract_x
_atom_site_fract_y
_atom_site_fract_z
_atom_type_partial_charge
C1    C     C_R   0.492727 0.689204 0.507521 0.510566
C2    C     C_2   0.460600 0.497919 0.016588 0.070805
C3    C     C_2   0.517620 0.507101 0.982722 0.067195
C4    C     C_R   0.507015 0.310821 0.492482 0.506397
C5    C     C_R   0.511716 0.491479 0.763996 0.008262
C6    C     C_R   0.507211 0.234412 0.487673 0.028806
C7    C     C_R   0.476597 0.197362 0.537743 -0.144676
C8    C     C_R   0.474235 0.125322 0.532553 -0.084381
C9    C     C_R   0.502508 0.088814 0.476830 0.225246
C10   C     C_R   0.532258 0.125932 0.426475 -0.104613
C11   C     C_R   0.535310 0.198173 0.432078 -0.143189
C12   C     C_R   0.465296 0.499014 0.091940 0.070021
C13   C     C_R   0.465727 0.879827 0.457830 -0.085034
C14   C     C_R   0.464022 0.807346 0.454534 -0.145159
C15   C     C_R   0.493426 0.911376 0.518630 0.226178
C16   C     C_R   0.689857 0.491892 0.507352 0.511787
C17   C     C_R   0.490645 0.765650 0.511425 0.031720
C18   C     C_R   0.517068 0.797420 0.572222 -0.140666
C19   C     C_R   0.517515 0.869786 0.575921 -0.102584
C20   C     C_R   0.233314 0.513534 0.493042 0.006912
C21   C     C_R   0.200469 0.461174 0.524868 -0.151114
C22   C     C_R   0.128072 0.466724 0.527382 -0.109884
C23   C     C_R   0.429937 0.553365 0.126553 -0.083286
C24   C     C_R   0.086801 0.525065 0.498020 0.236736
C25   C     C_R   0.119745 0.578025 0.467029 0.107341
C26   C     C_R   0.192503 0.571872 0.463969 -0.121358
C27   C     C_R   0.876567 0.540459 0.534239 -0.076297
C28   C     C_R   0.310138 0.508224 0.493023 0.514583
C29   C     C_R   0.803807 0.543494 0.535805 -0.142994
C30   C     C_R   0.912986 0.481127 0.507146 0.228568
C31   C     C_R   0.766656 0.487891 0.509631 0.031735
C32   C     C_R   0.803301 0.428457 0.483809 -0.138377
C33   C     C_R   0.875987 0.424895 0.483495 -0.100479
C34   C     C_R   0.438678 0.556765 0.198361 -0.115000
C35   C     C_R   0.509249 0.491153 0.688447 0.484355
C36   C     C_R   0.491053 0.507657 0.311430 0.510829
C37   C     C_R   0.482889 0.505719 0.235854 0.038532
C38   C     C_R   0.517022 0.450577 0.200718 -0.107541
C39   C     C_R   0.507782 0.446978 0.129196 -0.084805
C40   C     C_2   0.503068 0.360264 0.771867 0.247452
C41   C     C_R   0.522214 0.560624 0.868478 -0.088932
C42   C     C_R   0.520258 0.555743 0.797199 -0.119401
C43   C     C_R   0.506215 0.430598 0.803639 0.012783
C44   C     C_R   0.507540 0.436748 0.875704 -0.046937
C45   C     C_R   0.515089 0.501472 0.907685 0.041342
H1    H     H_    0.550537 0.409974 0.228438 0.142401
H2    H     H_    0.454273 0.224064 0.580983 0.149237
H3    H     H_    0.776518 0.589730 0.556126 0.142182
H4    H     H_    0.524666 0.602767 0.767719 0.138516
H5    H     H_    0.904244 0.584080 0.554359 0.153988
H6    H     H_    0.217072 0.613196 0.439851 0.161010
H7    H     H_    0.775758 0.384589 0.464022 0.141581
H8    H     H_    0.104499 0.425664 0.552971 0.149352
H9    H     H_    0.903571 0.378663 0.463483 0.131707
H10   H     H_    0.230749 0.415832 0.548063 0.153055
H11   H     H_    0.396898 0.593722 0.097949 0.143594
H12   H     H_    0.504027 0.391060 0.907475 0.176359
H13   H     H_    0.528466 0.610731 0.893067 0.147575
H14   H     H_    0.411338 0.599425 0.224421 0.141258
H15   H     H_    0.534782 0.404412 0.102639 0.138758
H16   H     H_    0.515640 0.351232 0.719100 0.128900
H17   H     H_    0.443211 0.783863 0.407223 0.139796
H18   H     H_    0.445185 0.911071 0.413261 0.143595
H19   H     H_    0.553634 0.098649 0.383087 0.130446
H20   H     H_    0.558571 0.225742 0.392421 0.140964
H21   H     H_    0.537192 0.766305 0.617044 0.139464
H22   H     H_    0.449628 0.098412 0.571716 0.147702
H23   H     H_    0.537946 0.893578 0.623220 0.131438
I1    I     I_    0.061027 0.667645 0.423134 -0.303408
I2    I     I_    0.614408 0.534992 0.033300 -0.360174
I3    I     I_    0.360273 0.483892 0.965131 -0.336189
N1    N     N_2   0.500749 0.015387 0.469375 -0.240931
N2    N     N_2   0.496116 0.984606 0.525009 -0.243723
N3    N     N_2   0.012775 0.532175 0.500071 -0.203132
N4    N     N_2   0.986715 0.475117 0.504401 -0.246560
O1    O     O_3   0.500000 0.500000 0.500000 -0.441219
O2    O     O_R   0.546320 0.532340 0.658770 -0.541285
O3    O     O_R   0.450550 0.549430 0.344370 -0.543743
O4    O     O_R   0.467400 0.453980 0.652500 -0.548019
O5    O     O_R   0.535730 0.464240 0.344360 -0.543946
O6    O     O_2   0.487288 0.310751 0.804906 -0.489310
O7    O     O_R   0.656240 0.454400 0.463600 -0.541135
O8    O     O_R   0.340160 0.549180 0.454800 -0.541603
O9    O     O_R   0.536860 0.652450 0.548350 -0.544823
O10   O     O_R   0.466740 0.343960 0.533260 -0.547766
O11   O     O_R   0.451210 0.659450 0.463610 -0.540955
O12   O     O_R   0.545190 0.344140 0.454780 -0.546522
O13   O     O_R   0.656710 0.532590 0.548340 -0.540419
O14   O     O_R   0.346890 0.463830 0.533270 -0.537183
Zn1   Zn    Zn3+2 0.558280 0.441710 0.441700 0.944343
Zn2   Zn    Zn3+2 0.558950 0.553420 0.562770 0.945472
Zn3   Zn    Zn3+2 0.446190 0.441460 0.553820 0.946506
Zn4   Zn    Zn3+2 0.436580 0.563410 0.441710 0.951397

loop_
_geom_bond_atom_site_label_1
_geom_bond_atom_site_label_2
_ccdc_geom_bond_type
C5    C42   A    
C27   C29   A    
C34   C37   A    
C41   C42   A    
C9    N1    S    
C2    C12   S    
C7    C8    A    
C4    O12   A    
C16   C31   S    
C15   C19   A    
C12   C23   A    
C36   C37   S    
C41   H13   S    
C38   C39   A    
O3    Zn4   S    
O8    Zn4   S    
C1    O11   A    
C18   C19   A    
C32   H7    S    
C40   C43   S    
C8    C9    A    
C28   O14   A    
O9    Zn2   S    
C9    C10   A    
C27   H5    S    
C42   H4    S    
C5    C43   A    
C13   C14   A    
C27   C30   A    
C14   C17   A    
O10   Zn3   S    
C22   H8    S    
N3    N4    D    
C29   H3    S    
C23   H11   S    
C3    I2    S    
C24   C25   A    
C4    C6    S    
C36   O5    A    
C6    C11   A    
C21   H10   S    
C4    O10   A    
C20   C28   S    
C25   C26   A    
C3    C45   S    
C40   H16   S    
C1    O9    A    
C7    H2    S    
C43   C44   A    
C37   C38   A    
O11   Zn4   S    
O1    Zn4   S    
C31   C32   A    
C13   H18   S    
O13   Zn2   S    
C44   H12   S    
C23   C34   A    
C16   O7    A    
C17   C18   A    
C19   H23   S    
O14   Zn3   S    
O4    Zn3   S    
O1    Zn3   S    
C15   N2    S    
C13   C15   A    
C34   H14   S    
C22   C24   A    
C25   I1    S    
C2    I3    S    
C44   C45   A    
C33   H9    S    
O2    Zn2   S    
C30   C33   A    
C40   O6    D    
C10   H19   S    
N1    N2    D    
C6    C7    A    
C18   H21   S    
C1    C17   S    
O7    Zn1   S    
C32   C33   A    
C12   C39   A    
C2    C3    D    
C29   C31   A    
C36   O3    A    
C26   H6    S    
C30   N4    S    
C24   N3    S    
C20   C26   A    
C39   H15   S    
C5    C35   S    
C35   O4    A    
C35   O2    A    
O5    Zn1   S    
C38   H1    S    
C10   C11   A    
O1    Zn2   S    
C20   C21   A    
C8    H22   S    
O12   Zn1   S    
C16   O13   A    
C41   C45   A    
C21   C22   A    
C11   H20   S    
O1    Zn1   S    
C28   O8    A    
C14   H17   S    
