data_mof_unit_9207.cif
_audit_creation_date              2012-12-11T15:52:15-0500
_audit_creation_method            fapswitch 2.2
_symmetry_space_group_name_H-M    P1
_symmetry_Int_Tables_number       1
_space_group_crystal_system       triclinic
_cell_length_a                    11.344053
_cell_length_b                    11.394325
_cell_length_c                    18.690987
_cell_angle_alpha                 88.120077
_cell_angle_beta                  92.232518
_cell_angle_gamma                 120.981325
_cell_volume                      2069.48275282

loop_
_atom_site_label
_atom_site_type_symbol
_atom_type_description
_atom_site_fract_x
_atom_site_fract_y
_atom_site_fract_z
_atom_type_partial_charge
C1    C     C_R   0.516397 0.464832 0.151596 0.545402
C2    C     C_R   0.538559 0.058223 0.147821 0.572494
C3    C     C_R   0.881031 0.457951 0.140579 0.591950
C4    C     C_R   0.424088 0.546459 0.859746 0.571037
C5    C     C_R   0.059835 0.539687 0.851688 0.572493
C6    C     C_R   0.457878 0.878629 0.859450 0.561650
C7    C     C_3   0.752928 0.065264 0.557454 0.121823
C8    C     C_3   0.966431 0.693820 0.541601 0.122050
C9    C     C_3   0.294276 0.257135 0.545054 0.120780
C10   C     C_3   0.929951 0.676177 0.462618 0.138152
C11   C     C_3   0.773467 0.095506 0.477715 0.142701
C12   C     C_3   0.307892 0.243138 0.465626 0.149951
C13   C     C_R   0.520282 0.455122 0.353520 0.543712
C14   C     C_R   0.546813 0.066488 0.354183 0.558864
C15   C     C_R   0.940451 0.482790 0.352523 0.540914
C16   C     C_R   0.451833 0.524040 0.644293 0.608230
C17   C     C_R   0.125466 0.580524 0.640147 0.590773
C18   C     C_R   0.478762 0.935403 0.646421 0.587748
C19   C     C_R   0.470424 0.906041 0.935322 -0.010001
C20   C     C_R   0.995339 0.501552 0.923095 0.028218
C21   C     C_R   0.456842 0.545829 0.936267 0.015601
C22   C     C_R   0.918985 0.472723 0.067043 0.015077
C23   C     C_R   0.484963 0.966570 0.083011 0.027478
C24   C     C_R   0.502213 0.524738 0.083388 -0.028249
C25   C     C_R   0.368586 0.914716 0.966544 -0.008793
C26   C     C_R   0.908502 0.368332 0.953624 -0.007182
C27   C     C_R   0.577460 0.547573 0.960908 -0.011951
C28   C     C_R   0.881920 0.357763 0.027675 0.008086
C29   C     C_R   0.364622 0.928220 0.039696 -0.026848
C30   C     C_R   0.602931 0.553185 0.034981 0.029013
C31   C     C_R   0.575325 0.930558 0.053858 -0.134182
C32   C     C_R   0.007434 0.600191 0.038140 -0.134257
C33   C     C_R   0.392078 0.541102 0.060691 -0.207445
C34   C     C_R   0.043706 0.613526 0.968262 -0.185275
C35   C     C_R   0.572014 0.907279 0.980405 -0.167878
C36   C     C_R   0.370509 0.552936 0.986726 -0.166301
C37   C     C_3   0.300639 0.989967 0.941410 0.161651
C38   C     C_3   0.942644 0.258080 0.964422 0.152090
C39   C     C_3   0.723697 0.663779 0.950340 0.168684
C40   C     C_3   0.944846 0.273644 0.045001 0.178739
C41   C     C_3   0.269946 0.980373 0.021409 0.133247
C42   C     C_3   0.726993 0.691655 0.028353 0.173646
C43   C     C_R   0.495021 0.995374 0.576255 0.069553
C44   C     C_R   0.101161 0.564734 0.563585 0.049073
C45   C     C_R   0.475634 0.515270 0.569615 0.073460
C46   C     C_R   0.022763 0.522564 0.418601 0.001940
C47   C     C_R   0.524460 0.029968 0.428473 0.031452
C48   C     C_R   0.494168 0.492986 0.421823 -0.000337
C49   C     C_R   0.624605 0.070860 0.547307 0.066958
C50   C     C_R   0.067744 0.651061 0.526306 -0.031599
C51   C     C_R   0.370975 0.407661 0.531044 -0.032368
C52   C     C_R   0.033423 0.633201 0.455279 0.030055
C53   C     C_R   0.639124 0.091239 0.475132 0.003067
C54   C     C_R   0.379474 0.396219 0.459487 0.011778
C55   C     C_R   0.392980 0.970488 0.456896 -0.164945
C56   C     C_R   0.076315 0.447573 0.451946 -0.160768
C57   C     C_R   0.591471 0.612885 0.457180 -0.127973
C58   C     C_R   0.115277 0.468625 0.524906 -0.120463
C59   C     C_R   0.378421 0.953824 0.530893 -0.120169
C60   C     C_R   0.581520 0.625160 0.531023 -0.098876
Cr1   Cr    Cr6+3 0.769160 0.541570 0.250690 1.026491
Cr2   Cr    Cr6+3 0.458430 0.227590 0.250690 1.039333
Cr3   Cr    Cr6+3 0.772410 0.230840 0.250690 1.019687
Cr4   Cr    Cr6+3 0.541570 0.769160 0.749310 1.005352
Cr5   Cr    Cr6+3 0.227590 0.458430 0.749310 1.042951
Cr6   Cr    Cr6+3 0.230840 0.772410 0.749310 0.991524
H1    H     H_    0.657494 0.933096 0.085736 0.170107
H2    H     H_    0.055786 0.689275 0.070801 0.158457
H3    H     H_    0.317003 0.530937 0.098265 0.121097
H4    H     H_    0.120142 0.712665 0.951448 0.199626
H5    H     H_    0.654115 0.900808 0.958537 0.190795
H6    H     H_    0.282502 0.559877 0.968600 0.151716
H7    H     H_    0.379485 0.095631 0.923988 0.125858
H8    H     H_    0.856353 0.158893 0.943496 0.113824
H9    H     H_    0.792290 0.624736 0.936324 0.129056
H10   H     H_    0.051561 0.343326 0.066400 0.104254
H11   H     H_    0.161465 0.898983 0.030653 0.106264
H12   H     H_    0.697947 0.770401 0.035323 0.099508
H13   H     H_    0.302522 0.934618 0.422238 0.184044
H14   H     H_    0.076710 0.366474 0.423902 0.189418
H15   H     H_    0.679701 0.690896 0.429145 0.226804
H16   H     H_    0.144208 0.402396 0.552399 0.167723
H17   H     H_    0.276294 0.901336 0.552166 0.156471
H18   H     H_    0.659286 0.716557 0.558011 0.175968
H19   H     H_    0.734938 0.962635 0.573357 0.168745
H20   H     H_    0.015999 0.800967 0.560401 0.171542
H21   H     H_    0.187191 0.217246 0.562049 0.188524
H22   H     H_    0.823138 0.593044 0.449797 0.170586
H23   H     H_    0.860261 0.198279 0.464197 0.181140
H24   H     H_    0.375077 0.202502 0.453326 0.181365
O1    O     O_R   0.911480 0.572650 0.170990 -0.515879
O2    O     O_R   0.427350 0.338830 0.170990 -0.517203
O3    O     O_R   0.661170 0.088520 0.170990 -0.503073
O4    O     O_R   0.572650 0.911480 0.829010 -0.522540
O5    O     O_R   0.338830 0.427350 0.829010 -0.525279
O6    O     O_R   0.088520 0.661170 0.829010 -0.511640
O7    O     O_R   0.640340 0.528970 0.175680 -0.495398
O8    O     O_R   0.471030 0.111370 0.175680 -0.479781
O9    O     O_R   0.888630 0.359660 0.175680 -0.509838
O10   O     O_R   0.528970 0.640340 0.824320 -0.453583
O11   O     O_R   0.111370 0.471030 0.824320 -0.475348
O12   O     O_R   0.359660 0.888630 0.824320 -0.467455
O13   O     O_R   0.909980 0.572450 0.331530 -0.502662
O14   O     O_R   0.427550 0.337530 0.331530 -0.490886
O15   O     O_R   0.662470 0.090020 0.331530 -0.491993
O16   O     O_R   0.572450 0.909980 0.668470 -0.528505
O17   O     O_R   0.337530 0.427550 0.668470 -0.497556
O18   O     O_R   0.090020 0.662470 0.668470 -0.493643
O19   O     O_R   0.638950 0.528780 0.324500 -0.509382
O20   O     O_R   0.471220 0.110170 0.324500 -0.511969
O21   O     O_R   0.889830 0.361050 0.324500 -0.508496
O22   O     O_R   0.528780 0.638950 0.675500 -0.520224
O23   O     O_R   0.110170 0.471220 0.675500 -0.441509
O24   O     O_R   0.361050 0.889830 0.675500 -0.536196
O25   O     O_3   0.666667 0.333333 0.250560 -0.294448
O26   O     O_3   0.333333 0.666667 0.749440 -0.362318
O27   O     O_3   0.185739 0.912802 0.892310 -0.575349
C61   C     C_3   0.189180 0.992354 0.830214 0.006877
H25   H     H_    0.294861 0.075143 0.816097 0.148107
H26   H     H_    0.123132 0.031859 0.840465 0.093110
C62   C     C_3   0.120245 0.915995 0.760881 -0.275456
H27   H     H_    0.035101 0.810185 0.769289 0.186082
H28   H     H_    0.077401 0.969943 0.729105 0.066467
H29   H     H_    0.197029 0.925885 0.723845 0.207397
O28   O     O_3   0.075106 0.306912 0.939466 -0.590685
C63   C     C_3   0.080926 0.207479 0.900473 -0.010902
H30   H     H_    0.076444 0.227842 0.842263 0.188999
H31   H     H_    0.998314 0.101177 0.913422 0.094306
C64   C     C_3   0.214606 0.216153 0.921063 -0.354450
H32   H     H_    0.189100 0.126220 0.954076 0.163801
H33   H     H_    0.276751 0.223056 0.876222 0.133824
H34   H     H_    0.282454 0.307499 0.949996 0.195142
O29   O     O_3   0.730208 0.770849 0.907476 -0.584278
C65   C     C_3   0.841074 0.823562 0.861198 -0.027861
H35   H     H_    0.835141 0.741035 0.828178 0.152654
H36   H     H_    0.937569 0.872349 0.893895 0.164297
C66   C     C_3   0.835432 0.928877 0.810827 -0.314260
H37   H     H_    0.810658 0.995293 0.840688 0.175926
H38   H     H_    0.933839 0.997885 0.785511 0.053815
H39   H     H_    0.759350 0.876952 0.766998 0.209975
O30   O     O_3   0.861117 0.154714 0.088385 -0.552478
C67   C     C_3   0.940187 0.146634 0.148511 0.006597
H40   H     H_    0.014487 0.247382 0.172234 0.135191
H41   H     H_    0.994584 0.100632 0.129932 0.089574
C68   C     C_3   0.862091 0.049304 0.210992 -0.296305
H42   H     H_    0.768202 0.954596 0.193435 0.125120
H43   H     H_    0.928913 0.021271 0.242025 0.114869
H44   H     H_    0.839560 0.099816 0.252290 0.228110
O31   O     O_3   0.320694 0.107555 0.052854 -0.568298
C69   C     C_3   0.220205 0.103199 0.096526 -0.009301
H45   H     H_    0.245508 0.094697 0.153544 0.198071
H46   H     H_    0.114647 0.020875 0.083828 0.092225
C70   C     C_3   0.217240 0.231111 0.082728 -0.379199
H47   H     H_    0.312035 0.301129 0.057154 0.220012
H48   H     H_    0.132806 0.211018 0.045392 0.153292
H49   H     H_    0.208265 0.276355 0.132119 0.114763
O32   O     O_3   0.840892 0.708805 0.070927 -0.556147
C71   C     C_3   0.866858 0.806620 0.123805 -0.001778
H50   H     H_    0.773288 0.774541 0.154953 0.133341
H51   H     H_    0.892796 0.902580 0.095418 0.111876
C72   C     C_3   0.983213 0.833333 0.177916 -0.307524
H52   H     H_    0.063561 0.820269 0.154570 0.147210
H53   H     H_    0.036595 0.938989 0.197054 0.046007
H54   H     H_    0.941704 0.769165 0.226832 0.213770
Cl1   Cl    Cl    0.875666 0.199508 0.612985 -0.577859
Cl2   Cl    Cl    0.825192 0.570515 0.594112 -0.553714
Cl3   Cl    Cl    0.389663 0.206369 0.602738 -0.602049
Cl4   Cl    Cl    0.982557 0.832781 0.415473 -0.531694
Cl5   Cl    Cl    0.771141 0.961160 0.430559 -0.574014
Cl6   Cl    Cl    0.147710 0.165940 0.417361 -0.542358

loop_
_geom_bond_atom_site_label_1
_geom_bond_atom_site_label_2
_ccdc_geom_bond_type
C45   C60   A    
O32   C71   S    
Cr4   O26   S    
O29   C65   S    
C55   C59   A    
Cr6   O12   S    
C44   C58   A    
C9    C51   S    
Cr5   O11   S    
Cr1   O19   S    
C38   O28   S    
C65   C66   S    
C72   H52   S    
C10   Cl4   S    
C17   O23   A    
C48   C57   A    
C5    C20   S    
C31   H1    S    
C6    C19   S    
C66   H38   S    
C10   H22   S    
C63   H30   S    
Cr6   O26   S    
C37   C41   S    
C23   C29   A    
C12   H24   S    
Cr1   O13   S    
Cr1   O1    S    
C59   H17   S    
C58   H16   S    
C41   H11   S    
Cr4   O22   S    
C41   O31   S    
C28   C40   S    
C46   C52   A    
C33   C36   A    
C3    O1    A    
C61   H25   S    
C62   H29   S    
C13   O19   A    
C16   O17   A    
C68   H43   S    
Cr2   O8    S    
O31   C69   S    
C14   O15   A    
C27   C39   S    
C6    O4    A    
C69   C70   S    
Cr2   O2    S    
Cr1   O25   S    
Cr3   O9    S    
C39   H9    S    
C70   H48   S    
C34   H4    S    
C11   C53   S    
C43   C59   A    
C47   C53   A    
C64   H34   S    
Cr3   O25   S    
C7    Cl1   S    
C35   H5    S    
C22   C28   A    
C40   O30   S    
C27   C30   A    
C71   H51   S    
C67   C68   S    
C18   O24   A    
C72   H54   S    
C72   H53   S    
C68   H42   S    
C39   C42   S    
Cr2   O14   S    
C25   C29   A    
C66   H39   S    
C5    O11   A    
Cr6   O6    S    
C15   O21   A    
C9    Cl3   S    
C7    C49   S    
C17   O18   A    
C1    O7    A    
C21   C36   A    
C43   C49   A    
C57   C60   A    
C12   Cl6   S    
C63   C64   S    
C32   C34   A    
C40   H10   S    
C70   H49   S    
C61   C62   S    
C23   C31   A    
C71   H50   S    
C48   C54   A    
C7    C11   S    
C18   O16   A    
C69   H46   S    
C4    O5    A    
C55   H13   S    
C10   C52   S    
C11   H23   S    
C50   C52   A    
Cr2   O20   S    
C22   C32   A    
Cr1   O7    S    
C13   O14   A    
Cr4   O16   S    
C62   H27   S    
C14   C47   S    
C8    Cl2   S    
C61   H26   S    
C8    C10   S    
C11   Cl5   S    
C1    O2    A    
C4    O10   A    
O28   C63   S    
C21   C27   A    
Cr5   O26   S    
C67   H41   S    
C42   O32   S    
Cr3   O15   S    
C18   C43   S    
C8    C50   S    
C5    O6    A    
C68   H44   S    
C16   O22   A    
C47   C55   A    
C64   H32   S    
C38   H8    S    
C44   C50   A    
C14   O20   A    
C37   H7    S    
C63   H31   S    
Cr6   O24   S    
C29   C41   S    
C69   H45   S    
Cr5   O23   S    
C2    O3    A    
C26   C38   S    
Cr6   O18   S    
C16   C45   S    
C13   C48   S    
C65   H36   S    
C42   H12   S    
C65   H35   S    
C33   H3    S    
C39   O29   S    
C66   H37   S    
Cr3   O3    S    
C26   C28   A    
C24   C33   A    
C56   H14   S    
C32   H2    S    
C51   C54   A    
C17   C44   S    
C20   C34   A    
Cr2   O25   S    
C19   C35   A    
O30   C67   S    
C9    H21   S    
C38   C40   S    
C4    C21   S    
C60   H18   S    
C7    H19   S    
C20   C26   A    
C49   C53   A    
C31   C35   A    
C56   C58   A    
C8    H20   S    
C6    O12   A    
Cr3   O21   S    
C19   C25   A    
C57   H15   S    
C24   C30   A    
C62   H28   S    
C9    C12   S    
Cr4   O4    S    
C3    O9    A    
Cr4   O10   S    
C37   O27   S    
C2    O8    A    
C1    C24   S    
C71   C72   S    
C46   C56   A    
C2    C23   S    
C45   C51   A    
C67   H40   S    
C30   C42   S    
C3    C22   S    
C15   C46   S    
C15   O13   A    
C70   H47   S    
O27   C61   S    
Cr5   O17   S    
C12   C54   S    
Cr5   O5    S    
C36   H6    S    
C25   C37   S    
C64   H33   S    
