data_mof_unit_19250.cif
_audit_creation_date              2012-12-11T15:22:48-0500
_audit_creation_method            fapswitch 2.2
_symmetry_space_group_name_H-M    P1
_symmetry_Int_Tables_number       1
_space_group_crystal_system       triclinic
_cell_length_a                    22.480404
_cell_length_b                    12.972296
_cell_length_c                    27.008871
_cell_angle_alpha                 89.897075
_cell_angle_beta                  90.391661
_cell_angle_gamma                 90.030005
_cell_volume                      7876.19550399

loop_
_atom_site_label
_atom_site_type_symbol
_atom_type_description
_atom_site_fract_x
_atom_site_fract_y
_atom_site_fract_z
_atom_type_partial_charge
C1    C     C_R   0.721375 0.347530 0.178663 0.566233
C2    C     C_R   0.491126 0.253066 0.894016 -0.091816
C3    C     C_R   0.018339 0.591797 0.555919 0.262418
C4    C     C_R   0.486119 0.103670 0.391504 0.255402
C5    C     C_R   0.504048 0.086267 0.607045 0.236141
C6    C     C_R   0.986093 0.603706 0.391492 0.255398
C7    C     C_R   0.004015 0.586248 0.607031 0.236249
C8    C     C_R   0.739452 0.953010 0.371553 0.053053
C9    C     C_R   0.257798 0.952709 0.628207 0.057153
C10   C     C_R   0.239451 0.453011 0.371553 0.053004
C11   C     C_R   0.757798 0.452710 0.628207 0.056946
C12   C     C_R   0.689432 0.934843 0.402196 0.180541
C13   C     C_R   0.028247 0.755884 0.101001 -0.133712
C14   C     C_R   0.302232 0.890251 0.606129 0.185185
C15   C     C_R   0.189432 0.434852 0.402198 0.180541
C16   C     C_R   0.802233 0.390255 0.606128 0.185170
C17   C     C_R   0.697631 0.918756 0.452062 -0.011734
C18   C     C_R   0.300321 0.871704 0.555473 -0.041064
C19   C     C_R   0.197633 0.418759 0.452064 -0.011707
C20   C     C_R   0.800320 0.371708 0.555472 -0.041013
C21   C     C_R   0.754428 0.908429 0.471817 0.035051
C22   C     C_R   0.254343 0.912283 0.526742 0.038166
C23   C     C_R   0.254430 0.408420 0.471815 0.035058
C24   C     C_R   0.991869 0.751921 0.894003 -0.089695
C25   C     C_R   0.754342 0.412287 0.526741 0.038171
C26   C     C_R   0.804185 0.914530 0.441214 -0.057801
C27   C     C_R   0.207281 0.964050 0.548655 -0.008437
C28   C     C_R   0.304185 0.414516 0.441211 -0.057811
C29   C     C_R   0.707280 0.464054 0.548656 -0.008421
C30   C     C_R   0.797299 0.938700 0.390911 0.206651
C31   C     C_R   0.207713 0.983336 0.599477 0.222488
C32   C     C_R   0.297299 0.438690 0.390909 0.206626
C33   C     C_R   0.707712 0.483337 0.599478 0.222423
C34   C     C_R   0.794556 0.965329 0.552940 0.279274
C35   C     C_R   0.519878 0.257729 0.049181 -0.026511
C36   C     C_R   0.259684 0.979578 0.441002 0.244546
C37   C     C_R   0.294561 0.465318 0.552938 0.279258
C38   C     C_R   0.759683 0.479581 0.441001 0.244537
C39   C     C_R   0.721152 0.346979 0.321536 0.543268
C40   C     C_R   0.279294 0.346622 0.678059 0.548655
C41   C     C_R   0.221152 0.846978 0.321536 0.543192
C42   C     C_R   0.779294 0.846623 0.678059 0.548113
C43   C     C_R   0.796217 0.955654 0.604500 -0.107532
C44   C     C_R   0.249601 0.964840 0.390129 -0.114440
C45   C     C_R   0.296222 0.455646 0.604498 -0.107369
C46   C     C_R   0.504835 0.255624 0.945013 -0.029392
C47   C     C_R   0.749600 0.464841 0.390128 -0.114421
C48   C     C_R   0.727613 0.811488 0.600024 -0.098800
C49   C     C_R   0.229866 0.783415 0.405404 -0.079246
C50   C     C_R   0.227614 0.311485 0.600023 -0.098711
C51   C     C_R   0.729862 0.283417 0.405405 -0.079239
C52   C     C_R   0.726644 0.818015 0.549058 0.189274
C53   C     C_R   0.238235 0.797121 0.455637 0.240101
C54   C     C_R   0.226646 0.318009 0.549058 0.189256
C55   C     C_R   0.738230 0.297125 0.455638 0.240105
C56   C     C_R   0.760222 0.894962 0.525165 0.090478
C57   C     C_R   0.019329 0.757466 0.049402 -0.025956
C58   C     C_R   0.252718 0.895365 0.473613 0.081091
C59   C     C_R   0.260226 0.394952 0.525164 0.090465
C60   C     C_R   0.752715 0.395369 0.473613 0.081096
C61   C     C_R   0.763981 0.877318 0.627854 -0.049367
C62   C     C_R   0.234563 0.866998 0.372882 -0.029401
C63   C     C_R   0.263983 0.377315 0.627853 -0.049237
C64   C     C_R   0.734562 0.366999 0.372882 -0.029406
C65   C     C_R   0.554018 0.159057 0.321437 0.540256
C66   C     C_R   0.446054 0.158876 0.678486 0.584403
C67   C     C_R   0.054016 0.659058 0.321435 0.540353
C68   C     C_R   0.004577 0.754847 0.945182 -0.031574
C69   C     C_R   0.946052 0.658876 0.678484 0.586198
C70   C     C_R   0.731229 0.002023 0.323137 0.597655
C71   C     C_R   0.268123 0.001430 0.676905 0.594154
C72   C     C_R   0.231229 0.502024 0.323138 0.597780
C73   C     C_R   0.768123 0.501430 0.676905 0.594600
C74   C     C_R   0.508511 0.071773 0.103421 0.243199
C75   C     C_R   0.489696 0.065887 0.895787 0.239431
C76   C     C_R   0.009730 0.571147 0.103514 0.243016
C77   C     C_R   0.986596 0.564802 0.896703 0.237909
C78   C     C_R   0.501709 0.071150 0.051610 0.053872
C79   C     C_R   0.508479 0.163920 0.024387 0.006604
C80   C     C_R   0.494858 0.067549 0.947606 0.037040
C81   C     C_R   0.004164 0.570082 0.051741 0.056210
C82   C     C_R   0.995201 0.566635 0.948038 0.057505
C83   C     C_R   0.486750 0.977025 0.975264 -0.060997
C84   C     C_R   0.488675 0.979272 0.026439 -0.042824
C85   C     C_R   0.993219 0.474794 0.975468 -0.053979
C86   C     C_R   0.995246 0.476917 0.026548 -0.044396
C87   C     C_R   0.503052 0.162522 0.972313 0.011443
C88   C     C_R   0.009068 0.663300 0.024587 0.005031
C89   C     C_R   0.280038 0.343389 0.822480 0.566347
C90   C     C_R   0.003079 0.661818 0.972575 0.009951
C91   C     C_R   0.524165 0.350297 0.021660 0.276045
C92   C     C_R   0.516480 0.349274 0.969848 0.254798
C93   C     C_R   0.022991 0.850074 0.021859 0.278073
C94   C     C_R   0.015705 0.848742 0.970005 0.254246
C95   C     C_R   0.736370 0.969215 0.128000 0.000950
C96   C     C_R   0.266065 0.975566 0.873227 0.008813
C97   C     C_R   0.236003 0.469772 0.127826 0.000972
C98   C     C_R   0.765981 0.474900 0.873168 0.005842
C99   C     C_R   0.747945 0.046206 0.092832 -0.118751
C100  C     C_R   0.221365 0.847543 0.178650 0.565977
C101  C     C_R   0.306327 0.026537 0.904752 -0.115711
C102  C     C_R   0.247167 0.547125 0.092750 -0.118647
C103  C     C_R   0.807545 0.522829 0.904637 -0.137746
C104  C     C_R   0.745436 0.024454 0.042594 0.266043
C105  C     C_R   0.303257 0.014136 0.955741 0.247439
C106  C     C_R   0.244141 0.525879 0.042465 0.265744
C107  C     C_R   0.804475 0.510281 0.955607 0.245213
C108  C     C_R   0.732381 0.923926 0.026891 0.086187
C109  C     C_R   0.260939 0.946906 0.975768 0.034854
C110  C     C_R   0.230989 0.425479 0.026585 0.085012
C111  C     C_R   0.780029 0.843378 0.822472 0.567419
C112  C     C_R   0.760775 0.445890 0.975698 0.036962
C113  C     C_R   0.720516 0.846411 0.061716 -0.060855
C114  C     C_R   0.220567 0.895327 0.944502 -0.054506
C115  C     C_R   0.219383 0.347672 0.061325 -0.061798
C116  C     C_R   0.719131 0.397218 0.944500 -0.056394
C117  C     C_R   0.553581 0.157279 0.177399 0.559909
C118  C     C_R   0.447562 0.156712 0.821951 0.575114
C119  C     C_R   0.053459 0.657293 0.177522 0.558729
C120  C     C_R   0.947518 0.656563 0.822002 0.572561
C121  C     C_R   0.721430 0.869063 0.112333 0.218602
C122  C     C_R   0.479368 0.159333 0.870172 0.048170
C123  C     C_R   0.222385 0.910524 0.893199 0.240089
C124  C     C_R   0.220797 0.369825 0.111999 0.217561
C125  C     C_R   0.720995 0.412668 0.893212 0.241093
C126  C     C_R   0.694731 0.906591 0.940262 0.285845
C127  C     C_R   0.297608 0.872109 0.054546 0.327877
C128  C     C_R   0.193624 0.404398 0.939929 0.283143
C129  C     C_R   0.797352 0.370937 0.054487 0.329665
C130  C     C_R   0.706325 0.892099 0.889264 0.196169
C131  C     C_R   0.291731 0.854558 0.105819 0.163334
C132  C     C_R   0.205632 0.389998 0.889000 0.197477
C133  C     C_R   0.525914 0.163273 0.127599 0.024705
C134  C     C_R   0.791607 0.353839 0.105793 0.163673
C135  C     C_R   0.811892 0.865728 0.909429 0.205575
C136  C     C_R   0.204861 0.968274 0.107106 0.281338
C137  C     C_R   0.311652 0.370183 0.909298 0.206712
C138  C     C_R   0.705055 0.468256 0.107113 0.281193
C139  C     C_R   0.799124 0.873672 0.960146 0.238206
C140  C     C_R   0.212052 0.988685 0.056228 0.214259
C141  C     C_R   0.298665 0.378505 0.959958 0.241037
C142  C     C_R   0.712244 0.488491 0.056218 0.213747
C143  C     C_R   0.741285 0.897121 0.974853 0.062935
C144  C     C_R   0.979124 0.658376 0.870362 0.043479
C145  C     C_R   0.256252 0.935102 0.029726 0.024465
C146  C     C_R   0.240369 0.398836 0.974563 0.062989
C147  C     C_R   0.756127 0.434217 0.029670 0.024497
C148  C     C_R   0.765425 0.871110 0.873952 -0.003337
C149  C     C_R   0.241533 0.894137 0.131061 -0.032299
C150  C     C_R   0.265107 0.372040 0.873794 -0.006895
C151  C     C_R   0.741571 0.393921 0.131063 -0.032559
C152  C     C_R   0.529852 0.170424 0.371587 -0.040331
C153  C     C_R   0.473187 0.168895 0.629169 -0.004719
C154  C     C_R   0.029848 0.670427 0.371584 -0.040316
C155  C     C_R   0.025840 0.663105 0.127798 0.023243
C156  C     C_R   0.973179 0.668892 0.629165 -0.004987
C157  C     C_R   0.558770 0.241734 0.402462 -0.124892
C158  C     C_R   0.458246 0.255914 0.600852 -0.140570
C159  C     C_R   0.058778 0.741713 0.402464 -0.124872
C160  C     C_R   0.958250 0.755926 0.600854 -0.140661
C161  C     C_R   0.548002 0.244146 0.452823 0.246679
C162  C     C_R   0.468900 0.258603 0.550391 0.224637
C163  C     C_R   0.047999 0.744131 0.452824 0.246674
C164  C     C_R   0.968895 0.758619 0.550391 0.224712
C165  C     C_R   0.731167 0.002321 0.179398 0.586879
C166  C     C_R   0.528987 0.255916 0.100749 -0.134720
C167  C     C_R   0.268924 0.002441 0.820786 0.590662
C168  C     C_R   0.231113 0.502416 0.179341 0.587020
C169  C     C_R   0.768937 0.502451 0.820793 0.591188
C170  C     C_R   0.506708 0.175887 0.473484 0.110274
C171  C     C_R   0.497386 0.175331 0.527433 0.122506
C172  C     C_R   0.006683 0.675902 0.473477 0.110266
C173  C     C_R   0.997359 0.675334 0.527425 0.122515
C174  C     C_R   0.474813 0.106550 0.443073 0.315410
C175  C     C_R   0.518381 0.091816 0.555934 0.262451
C176  C     C_R   0.974776 0.606594 0.443060 0.315410
Cl1   Cl    Cl    0.705768 0.770329 0.155046 -0.512449
Cl2   Cl    Cl    0.361651 0.833274 0.639293 -0.521560
Cl3   Cl    Cl    0.114593 0.433626 0.382556 -0.481778
Cl4   Cl    Cl    0.861653 0.333279 0.639290 -0.522186
Cl5   Cl    Cl    0.685764 0.723154 0.516688 -0.573546
Cl6   Cl    Cl    0.225167 0.691429 0.495182 -0.541695
Cl7   Cl    Cl    0.185762 0.223152 0.516688 -0.573539
Cl8   Cl    Cl    0.725156 0.191437 0.495183 -0.541866
Cl9   Cl    Cl    0.522761 0.466361 0.936476 -0.465410
Cl10  Cl    Cl    0.537674 0.469393 0.051609 -0.460006
Cl11  Cl    Cl    0.021598 0.965875 0.936613 -0.464757
Cl12  Cl    Cl    0.169816 0.847885 0.855228 -0.500297
Cl13  Cl    Cl    0.035649 0.969472 0.051796 -0.458186
Cl14  Cl    Cl    0.759745 0.124453 0.000047 -0.538321
Cl15  Cl    Cl    0.349642 0.089937 0.993798 -0.605746
Cl16  Cl    Cl    0.258092 0.626306 0.000068 -0.538254
Cl17  Cl    Cl    0.852721 0.582604 0.993617 -0.611843
Cl18  Cl    Cl    0.205488 0.270662 0.154574 -0.513374
Cl19  Cl    Cl    0.666867 0.353791 0.855356 -0.502628
Cl20  Cl    Cl    0.589751 0.330313 0.489478 -0.532938
Cl21  Cl    Cl    0.443858 0.366744 0.516872 -0.562378
Cl22  Cl    Cl    0.089761 0.830264 0.489487 -0.532863
Cl23  Cl    Cl    0.943869 0.866781 0.516879 -0.562325
Cl24  Cl    Cl    0.614595 0.933596 0.382550 -0.481747
Cr1   Cr    Cr6+3 0.756570 0.170940 0.251190 1.101571
Cr2   Cr    Cr6+3 0.374010 0.036240 0.749520 1.168830
Cr3   Cr    Cr6+3 0.125990 0.536240 0.250480 1.154044
Cr4   Cr    Cr6+3 0.874010 0.536240 0.749520 1.157667
Cr5   Cr    Cr6+3 0.243430 0.170940 0.748810 1.116347
Cr6   Cr    Cr6+3 0.256570 0.670940 0.251190 1.101588
Cr7   Cr    Cr6+3 0.743430 0.670940 0.748810 1.115700
Cr8   Cr    Cr6+3 0.623740 0.299110 0.249580 1.095454
Cr9   Cr    Cr6+3 0.376260 0.299110 0.750420 1.097036
Cr10  Cr    Cr6+3 0.123740 0.799110 0.249580 1.095476
Cr11  Cr    Cr6+3 0.876260 0.799110 0.750420 1.097758
Cr12  Cr    Cr6+3 0.625990 0.036240 0.250480 1.155822
H1    H     H_    0.711740 0.768335 0.049511 0.189181
H2    H     H_    0.253327 0.028544 0.364332 0.133293
H3    H     H_    0.324698 0.506036 0.626136 0.160128
H4    H     H_    0.753328 0.528544 0.364331 0.133364
H5    H     H_    0.475677 0.904355 0.957876 0.169157
H6    H     H_    0.479843 0.907844 0.045748 0.161910
H7    H     H_    0.988142 0.400298 0.958013 0.168213
H8    H     H_    0.990389 0.404197 0.045736 0.161468
H9    H     H_    0.659032 0.914904 0.475863 0.218275
H10   H     H_    0.335153 0.826819 0.538240 0.189695
H11   H     H_    0.159035 0.414912 0.475866 0.218275
H12   H     H_    0.187030 0.845106 0.960170 0.188794
H13   H     H_    0.835152 0.326824 0.538239 0.189721
H14   H     H_    0.703390 0.749098 0.617426 0.205868
H15   H     H_    0.217267 0.707818 0.391752 0.148518
H16   H     H_    0.203389 0.249098 0.617426 0.205925
H17   H     H_    0.717262 0.207820 0.391753 0.148506
H18   H     H_    0.848089 0.903935 0.456719 0.206287
H19   H     H_    0.170578 0.990795 0.525833 0.212142
H20   H     H_    0.348090 0.403912 0.456714 0.206296
H21   H     H_    0.670577 0.490801 0.525834 0.212156
H22   H     H_    0.486535 0.323692 0.872999 0.214228
H23   H     H_    0.210595 0.269669 0.049011 0.190030
H24   H     H_    0.542001 0.325408 0.120057 0.205917
H25   H     H_    0.988275 0.822369 0.872715 0.212573
H26   H     H_    0.040493 0.825695 0.120387 0.205810
H27   H     H_    0.757175 0.124561 0.104454 0.181843
H28   H     H_    0.338672 0.079952 0.889698 0.153282
H29   H     H_    0.256503 0.625365 0.104495 0.181384
H30   H     H_    0.840935 0.574253 0.889584 0.147827
H31   H     H_    0.518285 0.925850 0.886528 0.337902
H32   H     H_    0.524975 0.928348 0.116099 0.334928
H33   H     H_    0.947545 0.435297 0.885782 0.334304
H34   H     H_    0.684599 0.349144 0.960215 0.187071
H35   H     H_    0.029717 0.430273 0.118215 0.334830
H36   H     H_    0.895973 0.893211 0.915259 0.362681
H37   H     H_    0.140588 0.070191 0.113770 0.418118
H38   H     H_    0.395410 0.401382 0.915344 0.364446
H39   H     H_    0.641048 0.570640 0.113794 0.418402
H40   H     H_    0.579907 0.986776 0.557519 0.343322
H41   H     H_    0.413472 0.999494 0.439784 0.385279
H42   H     H_    0.079822 0.486674 0.557493 0.343432
H43   H     H_    0.913402 0.499593 0.439759 0.385276
H44   H     H_    0.519119 0.939397 0.613876 0.360780
H45   H     H_    0.592884 0.292259 0.387908 0.178759
H46   H     H_    0.457795 0.055908 0.327106 0.344282
H47   H     H_    0.019021 0.439359 0.613853 0.360841
H48   H     H_    0.957784 0.555949 0.327088 0.344280
H49   H     H_    0.847334 0.084533 0.554022 0.361478
H50   H     H_    0.278604 0.124747 0.432095 0.346879
H51   H     H_    0.347343 0.584517 0.554019 0.361489
H52   H     H_    0.778604 0.624748 0.432094 0.346890
H53   H     H_    0.882829 0.937036 0.379931 0.347817
H54   H     H_    0.129953 0.050250 0.595686 0.364703
H55   H     H_    0.382827 0.437011 0.379926 0.347824
H56   H     H_    0.434077 0.319515 0.617145 0.183573
H57   H     H_    0.629952 0.550248 0.595688 0.364674
H58   H     H_    0.610942 0.940345 0.929600 0.370557
H59   H     H_    0.368438 0.784944 0.048781 0.394434
H60   H     H_    0.108637 0.428322 0.929166 0.393925
H61   H     H_    0.867887 0.283033 0.048711 0.396561
H62   H     H_    0.675411 0.912300 0.822165 0.346709
H63   H     H_    0.341240 0.828233 0.162940 0.357461
H64   H     H_    0.174611 0.409867 0.821956 0.346569
H65   H     H_    0.841269 0.327708 0.162840 0.357824
H66   H     H_    0.874316 0.815678 0.983422 0.364688
H67   H     H_    0.092908 0.792213 0.387916 0.178733
H68   H     H_    0.188789 0.077714 0.000381 0.344998
H69   H     H_    0.374520 0.324037 0.983659 0.364194
H70   H     H_    0.689683 0.578425 0.000540 0.344482
H71   H     H_    0.934098 0.819540 0.617152 0.183530
H72   H     H_    0.824693 0.006044 0.626139 0.159926
O1    O     O_R   0.769900 0.064540 0.196060 -0.486086
O2    O     O_R   0.433710 0.069580 0.694600 -0.417047
O3    O     O_R   0.066290 0.569580 0.305400 -0.434928
O4    O     O_R   0.933710 0.569580 0.694600 -0.414975
O5    O     O_R   0.680760 0.993330 0.302620 -0.457445
O6    O     O_R   0.319240 0.993330 0.697380 -0.459742
O7    O     O_R   0.180760 0.493330 0.302620 -0.457299
O8    O     O_R   0.819240 0.493330 0.697380 -0.458938
O9    O     O_3   0.668770 0.168760 0.250420 -0.305551
O10   O     O_3   0.331230 0.168760 0.749580 -0.309630
O11   O     O_3   0.168770 0.668760 0.250420 -0.305200
O12   O     O_R   0.230100 0.064540 0.803940 -0.464880
O13   O     O_3   0.831230 0.668760 0.749580 -0.306669
O14   O     O_R   0.750800 0.274080 0.199250 -0.505280
O15   O     O_R   0.249200 0.274080 0.800750 -0.505047
O16   O     O_R   0.250800 0.774080 0.199250 -0.505355
O17   O     O_R   0.749200 0.774080 0.800750 -0.505040
O18   O     O_R   0.669990 0.371670 0.194150 -0.432642
O19   O     O_R   0.330010 0.371670 0.805850 -0.431726
O20   O     O_R   0.169990 0.871670 0.194150 -0.432373
O21   O     O_R   0.830010 0.871670 0.805850 -0.433594
O22   O     O_R   0.574600 0.238480 0.197800 -0.514895
O23   O     O_R   0.269900 0.564540 0.196060 -0.485603
O24   O     O_R   0.425400 0.238480 0.802200 -0.487884
O25   O     O_R   0.074600 0.738480 0.197800 -0.514199
O26   O     O_R   0.925400 0.738480 0.802200 -0.481910
O27   O     O_R   0.566130 0.068680 0.194240 -0.450609
O28   O     O_R   0.433870 0.068680 0.805760 -0.434388
O29   O     O_R   0.066130 0.568680 0.194240 -0.454262
O30   O     O_R   0.933870 0.568680 0.805760 -0.454365
O31   O     O_R   0.680610 0.992490 0.199570 -0.469845
O32   O     O_R   0.319390 0.992490 0.800430 -0.492408
O33   O     O_R   0.180610 0.492490 0.199570 -0.470930
O34   O     O_R   0.730100 0.564540 0.803940 -0.461498
O35   O     O_R   0.819390 0.492490 0.800430 -0.502210
O36   O     O_R   0.770060 0.065440 0.307230 -0.453493
O37   O     O_R   0.229940 0.065440 0.692770 -0.446115
O38   O     O_R   0.270060 0.565440 0.307230 -0.453439
O39   O     O_R   0.729940 0.565440 0.692770 -0.446053
O40   O     O_R   0.750960 0.274920 0.302300 -0.497536
O41   O     O_R   0.249040 0.274920 0.697700 -0.502592
O42   O     O_R   0.250960 0.774920 0.302300 -0.497554
O43   O     O_R   0.749040 0.774920 0.697700 -0.503036
O44   O     O_R   0.670160 0.372580 0.305320 -0.491092
O45   O     O_R   0.574760 0.239320 0.300850 -0.510041
O46   O     O_R   0.329840 0.372580 0.694680 -0.509961
O47   O     O_R   0.170160 0.872580 0.305320 -0.491157
O48   O     O_R   0.829840 0.872580 0.694680 -0.510349
O49   O     O_3   0.490452 0.974012 0.869874 -0.636442
O50   O     O_3   0.500203 0.983220 0.130947 -0.642763
O51   O     O_3   0.982732 0.471698 0.872296 -0.634459
O52   O     O_3   0.001409 0.482392 0.130852 -0.640961
O53   O     O_3   0.869514 0.851325 0.893789 -0.681910
O54   O     O_3   0.161917 0.018943 0.134415 -0.589061
O55   O     O_3   0.369556 0.358613 0.893764 -0.679853
O56   O     O_R   0.425240 0.239320 0.699150 -0.523071
O57   O     O_3   0.662322 0.519365 0.134460 -0.588645
O58   O     O_3   0.552511 0.017815 0.532807 -0.645133
O59   O     O_3   0.433026 0.043220 0.465089 -0.642189
O60   O     O_3   0.052446 0.517775 0.532784 -0.645103
O61   O     O_3   0.932966 0.543296 0.465068 -0.642182
O62   O     O_3   0.517714 0.000838 0.635534 -0.638809
O63   O     O_3   0.454421 0.035316 0.362276 -0.665029
O64   O     O_3   0.017667 0.500802 0.635513 -0.637814
O65   O     O_3   0.954385 0.535378 0.362259 -0.665058
O66   O     O_3   0.826279 0.041728 0.529058 -0.614900
O67   O     O_R   0.074760 0.739320 0.300850 -0.510040
O68   O     O_3   0.275606 0.074709 0.459779 -0.630110
O69   O     O_3   0.326287 0.541713 0.529056 -0.614886
O70   O     O_3   0.775604 0.574712 0.459778 -0.630077
O71   O     O_3   0.846012 0.949714 0.360410 -0.645650
O72   O     O_3   0.160683 0.034624 0.621135 -0.639073
O73   O     O_3   0.346010 0.449698 0.360407 -0.645653
O74   O     O_3   0.660681 0.534622 0.621136 -0.639265
O75   O     O_3   0.638924 0.931953 0.957686 -0.675325
O76   O     O_3   0.343303 0.829178 0.027331 -0.608190
O77   O     O_3   0.137190 0.425920 0.957174 -0.672380
O78   O     O_R   0.925240 0.739320 0.699150 -0.522687
O79   O     O_3   0.842831 0.327376 0.027249 -0.605990
O80   O     O_3   0.659689 0.901398 0.855886 -0.672381
O81   O     O_3   0.334728 0.797118 0.129859 -0.669104
O82   O     O_3   0.158965 0.396521 0.855508 -0.649445
O83   O     O_3   0.834562 0.296321 0.129843 -0.668032
O84   O     O_3   0.842270 0.860218 0.996394 -0.638297
O85   O     O_3   0.174208 0.059032 0.033655 -0.647633
O86   O     O_3   0.341998 0.368003 0.996277 -0.636459
O87   O     O_3   0.674779 0.559480 0.033681 -0.647907
O88   O     O_R   0.566290 0.069580 0.305400 -0.435103

loop_
_geom_bond_atom_site_label_1
_geom_bond_atom_site_label_2
_ccdc_geom_bond_type
C21   C26   A    
C34   C56   A    
C132  C150  A    
C107  C112  A    
Cr7   O17   S    
C50   H16   S    
C120  C144  S    
C136  C140  A    
C117  C133  S    
C79   C87   A    
C26   H18   S    
C135  C139  A    
C89   O15   A    
C44   H2    S    
C130  O80   S    
C72   O7    A    
C97   C124  A    
Cr6   O38   S    
C95   C99   A    
C75   C122  A    
C29   C33   A    
C126  C143  A    
H70   O87   S    
Cr5   O37   S    
C98   C169  S    
C162  C171  A    
C163  Cl22  S    
Cr11  O48   S    
C68   C90   A    
C69   O78   A    
C25   C60   S    
H59   O76   S    
C81   C86   A    
C36   C44   A    
C101  H28   S    
C72   O38   A    
Cr3   O29   S    
C80   C83   A    
Cr11  O13   S    
C42   O43   A    
C9    C31   A    
C73   O39   A    
C25   C29   A    
C27   C31   A    
Cr1   O36   S    
C1    O14   A    
C28   C32   A    
Cr1   O40   S    
C47   C64   A    
C32   O73   S    
H35   O52   S    
Cr1   O14   S    
C111  O17   A    
H32   O50   S    
C161  Cl20  S    
C120  O30   A    
C108  C113  A    
C100  O20   A    
C19   C23   A    
C48   H14   S    
C39   O40   A    
Cr8   O45   S    
C11   C33   A    
C16   C20   A    
C47   H4    S    
C164  C173  A    
C86   H8    S    
H54   O72   S    
C163  C172  A    
C29   H21   S    
C84   H6    S    
C127  C145  A    
C89   C150  S    
C91   Cl10  S    
H50   O68   S    
C22   C27   A    
C131  C149  A    
Cr2   O28   S    
C37   C45   A    
C175  O58   S    
Cr1   O1    S    
Cr4   O30   S    
C43   C61   A    
C170  C174  A    
Cr3   O3    S    
C152  C157  A    
Cr4   O4    S    
C49   C62   A    
C78   C79   A    
Cr12  O27   S    
C109  C145  S    
C51   C64   A    
Cr9   O24   S    
C140  C145  A    
C22   C58   S    
C66   C153  S    
C53   C58   A    
Cr9   O46   S    
C138  C151  A    
C82   C85   A    
C76   C155  A    
H61   O79   S    
C70   O36   A    
Cr4   O35   S    
C133  C166  A    
C165  O31   A    
C77   C82   A    
C137  O55   S    
C49   C53   A    
C134  C151  A    
C45   H3    S    
C73   O8    A    
C51   C55   A    
C127  C131  A    
C129  C147  A    
C81   C88   A    
C17   H9    S    
C169  O35   A    
C48   C52   A    
C69   O4    A    
C117  O22   A    
Cr1   O9    S    
C174  O59   S    
C124  Cl18  S    
Cr2   O6    S    
C54   Cl7   S    
C103  C107  A    
C111  C148  S    
C15   Cl3   S    
C41   O47   A    
C159  H67   S    
C105  Cl15  S    
C106  Cl16  S    
C6    O65   S    
C35   C166  A    
C85   C86   A    
C23   C59   S    
C67   C154  S    
C167  O32   A    
C13   C57   A    
C170  C171  S    
C125  Cl19  S    
Cr7   O39   S    
H43   O61   S    
C118  C122  S    
C165  O1    A    
H36   O53   S    
C139  C143  A    
C98   C125  A    
C157  H45   S    
C7    C156  A    
C141  O86   S    
C55   Cl8   S    
C134  O83   S    
C28   H20   S    
C164  Cl23  S    
H68   O85   S    
H53   O71   S    
C50   C63   A    
C24   H25   S    
C54   C59   A    
C166  H24   S    
C4    C152  A    
C71   O37   A    
C69   C156  S    
C156  C160  A    
C74   O50   S    
C91   C92   A    
C121  Cl1   S    
C23   C28   A    
Cr5   O41   S    
C68   C94   A    
H48   O65   S    
C41   O42   A    
C83   C84   A    
C42   C61   S    
C8    C12   A    
C37   O69   S    
C12   Cl24  S    
Cr12  O88   S    
C37   C59   A    
H37   O54   S    
C14   Cl2   S    
C109  C114  A    
C38   C60   A    
C114  C123  A    
C116  H34   S    
C26   C30   A    
C116  C125  A    
C119  O25   A    
Cr10  O47   S    
C1    O18   A    
C112  C116  A    
C65   O45   A    
C46   C87   A    
C167  O12   A    
C111  O21   A    
C105  C109  A    
H51   O69   S    
C96   C123  A    
C18   C22   A    
C120  O26   A    
C142  C147  A    
C168  O33   A    
Cr3   O11   S    
C39   O44   A    
C93   Cl13  S    
C97   C168  S    
C8    C70   S    
C5    O62   S    
C112  C147  S    
C154  C159  A    
C53   Cl6   S    
H41   O59   S    
C128  C146  A    
C129  O79   S    
C35   C79   A    
C135  O53   S    
Cr2   O32   S    
C77   O51   S    
C137  C150  A    
C40   O41   A    
Cr2   O2    S    
C33   O74   S    
C113  C121  A    
C132  O82   S    
Cr12  O31   S    
Cr10  O67   S    
C114  H12   S    
Cr5   O10   S    
C55   C60   A    
C30   O71   S    
Cr12  O5    S    
C16   Cl4   S    
C10   C72   S    
C117  O27   A    
C118  O28   A    
C51   H17   S    
C168  O23   A    
C115  H23   S    
C136  C149  A    
C15   C19   A    
C39   C64   S    
C50   C54   A    
C40   C63   S    
C131  O81   S    
Cr9   O19   S    
C3    C7    A    
H39   O57   S    
C83   H5    S    
C65   O88   A    
C46   C92   A    
C20   C25   A    
C126  C130  A    
C98   C103  A    
Cr2   O10   S    
C103  H30   S    
Cr3   O7    S    
Cr11  O21   S    
C123  Cl12  S    
C36   O68   S    
C2    H22   S    
C34   O66   S    
C12   C17   A    
Cr9   O10   S    
C71   O6    A    
C49   H15   S    
C97   C102  A    
C99   H27   S    
C95   C121  A    
C99   C104  A    
C4    C174  A    
C96   C101  A    
C5    C175  A    
C41   C62   S    
C136  O54   S    
C95   C165  S    
C40   O46   A    
H49   O66   S    
C2    C122  A    
Cr7   O43   S    
C34   C43   A    
C66   O56   A    
C142  O87   S    
C19   H11   S    
C52   Cl5   S    
C138  C142  A    
C128  O77   S    
H47   O64   S    
Cr8   O22   S    
C9    C14   A    
C11   C16   A    
C96   C167  S    
H55   O73   S    
H40   O58   S    
Cr5   O12   S    
Cr6   O11   S    
C6    C154  A    
H42   O60   S    
C141  C146  A    
H64   O82   S    
C127  O76   S    
C88   C90   A    
H66   O84   S    
C11   C73   S    
C157  C161  A    
Cr8   O9    S    
C104  C108  A    
C137  C141  A    
C115  C124  A    
C9    C71   S    
C21   C56   S    
C13   H26   S    
C66   O2    A    
C100  C149  S    
C82   C90   A    
C8    C30   A    
Cr7   O13   S    
Cr8   O18   S    
H69   O86   S    
C67   O67   A    
H58   O75   S    
C24   C144  A    
C1    C151  S    
C18   H10   S    
H62   O80   S    
C24   C68   A    
Cr6   O23   S    
Cr9   O56   S    
C140  O85   S    
C74   C78   A    
H38   O55   S    
H57   O74   S    
C110  C115  A    
C108  C143  S    
Cr11  O26   S    
C17   C21   A    
C93   C94   A    
C160  H71   S    
C160  C164  A    
C14   C18   A    
Cr11  O78   S    
C113  H1    S    
Cr5   O15   S    
Cr6   O16   S    
C126  O75   S    
C31   O72   S    
C2    C46   A    
C75   O49   S    
C162  Cl21  S    
C10   C32   A    
Cr3   O33   S    
Cr10  O20   S    
C80   C87   A    
C36   C58   A    
C10   C15   A    
H31   O49   S    
Cr8   O44   S    
C74   C133  A    
H44   O62   S    
C153  C158  A    
H52   O70   S    
C13   C155  A    
C67   O3    A    
Cr12  O9    S    
C3    O60   S    
C3    C173  A    
C76   O52   S    
Cr7   O34   S    
C118  O24   A    
C119  O29   A    
C138  O57   S    
C100  O16   A    
C75   C80   A    
C42   O48   A    
C176  O61   S    
C57   C93   A    
H46   O63   S    
C7    O64   S    
C128  C132  A    
H65   O83   S    
H63   O81   S    
C101  C105  A    
C158  H56   S    
C130  C148  A    
C70   O5    A    
C94   Cl11  S    
C89   O19   A    
C92   Cl9   S    
Cr6   O42   S    
C44   C62   A    
C171  C175  A    
C45   C63   A    
C20   H13   S    
C78   C84   A    
C43   H72   S    
C38   O70   S    
C104  Cl14  S    
C102  H29   S    
Cr10  O25   S    
C38   C47   A    
H60   O77   S    
C161  C170  A    
C169  O34   A    
C27   H19   S    
C159  C163  A    
C107  Cl17  S    
C172  C173  S    
C106  C110  A    
C119  C155  S    
H33   O51   S    
C76   C81   A    
C57   C88   A    
C4    O63   S    
C65   C152  S    
C85   H7    S    
C77   C144  A    
C110  C146  S    
C48   C61   A    
C6    C176  A    
C5    C153  A    
C102  C106  A    
Cr10  O11   S    
Cr4   O13   S    
C129  C134  A    
Cr4   O8    S    
C158  C162  A    
C172  C176  A    
C135  C148  A    
C139  O84   S    
C52   C56   A    
C35   C91   A    
