data_mof_unit_60469.cif
_audit_creation_date              2012-12-10T16:54:26-0500
_audit_creation_method            fapswitch 2.2
_symmetry_space_group_name_H-M    P1
_symmetry_Int_Tables_number       1
_space_group_crystal_system       triclinic
_cell_length_a                    18.994984
_cell_length_b                    18.728039
_cell_length_c                    18.622822
_cell_angle_alpha                 108.818568
_cell_angle_beta                  109.604336
_cell_angle_gamma                 109.762446
_cell_volume                      5113.84082515

loop_
_atom_site_label
_atom_site_type_symbol
_atom_type_description
_atom_site_fract_x
_atom_site_fract_y
_atom_site_fract_z
_atom_type_partial_charge
C1    C     C_R   0.385162 0.380618 0.503909 0.936320
C2    C     C_3   0.806379 0.506519 0.813785 0.096978
C3    C     C_3   0.844517 0.573467 0.784279 0.002854
C4    C     C_3   0.748061 0.529519 0.849707 -0.040959
C5    C     C_2   0.261001 0.252425 0.581225 -0.163627
C6    C     C_2   0.178451 0.205707 0.515451 0.021500
C7    C     C_2   0.325531 0.325128 0.584003 -0.108899
C8    C     C_2   0.329071 0.312123 0.510786 -0.348191
C9    C     C_2   0.164023 0.474486 0.242380 0.201964
C10   C     C_2   0.179966 0.511757 0.194163 -0.394037
C11   C     C_2   0.238768 0.495039 0.320382 0.198222
C12   C     C_R   0.615683 0.496577 0.620511 0.869037
C13   C     C_2   0.302291 0.484975 0.309980 -0.386845
C14   C     C_2   0.744262 0.822187 0.497581 -0.169090
C15   C     C_2   0.819436 0.824856 0.513678 -0.323456
C16   C     C_2   0.682652 0.760451 0.508194 -0.157186
C17   C     C_2   0.676772 0.682808 0.489328 -0.337278
C18   C     C_R   0.990291 0.380772 0.871587 0.957142
C19   C     C_R   0.874718 0.504964 0.878768 0.856175
C20   C     C_R   0.996839 0.619169 0.116232 0.945642
C21   C     C_R   0.114176 0.501779 0.117251 0.968797
C22   C     C_R   0.002927 0.122487 0.618958 0.820022
C23   C     C_R   0.617067 0.618974 0.497682 0.940379
C24   C     C_R   0.118101 0.124061 0.503947 0.903820
C25   C     C_R   0.996864 0.877180 0.381885 0.987558
C26   C     C_R   0.881849 0.883432 0.503184 0.959900
C27   C     C_2   0.993987 0.254640 0.671050 -0.183811
C28   C     C_2   0.020354 0.201029 0.689262 -0.169779
C29   C     C_2   0.000714 0.327190 0.739706 -0.104771
C30   C     C_2   0.977321 0.312507 0.795893 -0.288014
C31   C     C_2   0.001304 0.740207 0.327174 0.011286
C32   C     C_2   0.983710 0.800514 0.314192 -0.410727
C33   C     C_2   0.986364 0.667324 0.251072 0.134343
C34   C     C_R   0.377205 0.496916 0.378943 0.957987
C35   C     C_2   0.009417 0.684827 0.194603 -0.370626
C36   C     C_3   0.675928 0.406453 0.660012 0.007745
C37   C     C_3   0.751408 0.413375 0.732460 -0.452880
C38   C     C_3   0.769879 0.562178 0.706124 -0.521720
C39   C     C_3   0.680242 0.533922 0.778361 -0.084837
C40   C     C_3   0.681684 0.497643 0.689936 0.071037
H1    H     H_    0.685435 0.390701 0.602095 0.168561
H2    H     H_    0.790199 0.595906 0.908036 0.130172
H3    H     H_    0.773658 0.625864 0.717207 0.199129
H4    H     H_    0.282958 0.233675 0.630197 0.164037
H5    H     H_    0.369294 0.387009 0.644390 0.193469
H6    H     H_    0.290638 0.247135 0.453927 0.170410
H7    H     H_    0.246285 0.557182 0.216018 0.138912
H8    H     H_    0.294550 0.458357 0.244789 0.140098
H9    H     H_    0.729081 0.866836 0.479232 0.167131
H10   H     H_    0.838810 0.787447 0.541781 0.166771
H11   H     H_    0.640087 0.777176 0.527781 0.166244
H12   H     H_    0.712326 0.662427 0.460231 0.164716
H13   H     H_    0.963662 0.242995 0.604422 0.155340
H14   H     H_    0.024311 0.390787 0.743994 0.157481
H15   H     H_    0.945632 0.246429 0.784814 0.137255
H16   H     H_    0.727814 0.362585 0.750457 0.208239
H17   H     H_    0.953499 0.790701 0.248197 0.145230
H18   H     H_    0.044552 0.751983 0.209881 0.130441
H19   H     H_    0.793046 0.399092 0.706678 0.129949
H20   H     H_    0.775985 0.537467 0.646771 0.164771
H21   H     H_    0.887071 0.557567 0.761103 0.175170
H22   H     H_    0.704573 0.604881 0.802116 0.073925
O1    O     O_R   0.410160 0.358490 0.449530 -0.627237
O2    O     O_R   0.046300 0.460610 0.904690 -0.601186
O3    O     O_R   0.851630 0.449030 0.902680 -0.631668
O4    O     O_R   0.953760 0.551100 0.902590 -0.639723
O5    O     O_R   0.942140 0.539520 0.083620 -0.621716
O6    O     O_R   0.044270 0.641590 0.083530 -0.632485
O7    O     O_R   0.034680 0.449030 0.085720 -0.616568
O8    O     O_R   0.136800 0.551100 0.085630 -0.617065
O9    O     O_R   0.050590 0.090430 0.641090 -0.636715
O10   O     O_R   0.947260 0.090430 0.537750 -0.620027
O11   O     O_R   0.142120 0.090460 0.551650 -0.636998
O12   O     O_R   0.408940 0.460590 0.550490 -0.620888
O13   O     O_R   0.038780 0.090460 0.448320 -0.616949
O14   O     O_R   0.052740 0.909570 0.462250 -0.575580
O15   O     O_R   0.949410 0.909570 0.358910 -0.629902
O16   O     O_R   0.961220 0.909540 0.551680 -0.592572
O17   O     O_R   0.857880 0.909540 0.448350 -0.621152
O18   O     O_R   0.592130 0.448950 0.541040 -0.633782
O19   O     O_R   0.590910 0.551050 0.642000 -0.648079
O20   O     O_R   0.591060 0.539410 0.449510 -0.619585
O21   O     O_R   0.589840 0.641510 0.550470 -0.618229
O22   O     O_R   0.409090 0.448950 0.358000 -0.620581
O23   O     O_R   0.407870 0.551050 0.458960 -0.616587
O24   O     O_R   0.944170 0.358540 0.904780 -0.630648
Zn1   Zn    Zn3+2 0.500810 0.431830 0.432590 0.952345
Zn2   Zn    Zn3+2 0.499190 0.568170 0.567410 0.933151
Zn3   Zn    Zn3+2 0.926030 0.431910 0.994210 0.926197
Zn4   Zn    Zn3+2 0.062410 0.568220 0.994100 0.955082
Zn5   Zn    Zn3+2 0.069000 0.000000 0.569000 0.992939
Zn6   Zn    Zn3+2 0.931000 0.000000 0.431000 0.949917
C41   C     C_3   0.899953 0.670216 0.857364 -0.916683
H23   H     H_    0.949998 0.680901 0.917984 0.262964
H24   H     H_    0.933514 0.710274 0.833932 0.248055
H25   H     H_    0.859678 0.695727 0.874660 0.234184
C42   C     C_3   0.141091 0.239085 0.456253 -0.864618
H26   H     H_    0.080453 0.234617 0.453844 0.244167
H27   H     H_    0.183752 0.308706 0.479619 0.250976
H28   H     H_    0.126528 0.198898 0.388935 0.233525
C43   C     C_3   0.074783 0.411276 0.219400 -0.831397
H29   H     H_    0.077902 0.385991 0.266065 0.226567
H30   H     H_    0.035955 0.443937 0.221603 0.235214
H31   H     H_    0.042225 0.354046 0.153452 0.249255
C44   C     C_3   0.239620 0.523344 0.406623 -0.836781
H32   H     H_    0.179764 0.524749 0.399538 0.226365
H33   H     H_    0.244788 0.477547 0.431163 0.237907
H34   H     H_    0.294366 0.590432 0.455388 0.250138
C45   C     C_3   0.588819 0.328418 0.628573 -0.799770
H35   H     H_    0.584472 0.267087 0.587767 0.210533
H36   H     H_    0.582621 0.323059 0.683839 0.282625
H37   H     H_    0.533343 0.331792 0.587792 0.256114
C46   C     C_2   0.077980 0.223615 0.780608 0.431917
H38   H     H_    0.075071 0.171974 0.796191 0.059490
O25   O     O_2   0.131789 0.299018 0.837390 -0.547712
C47   C     C_2   0.030013 0.739971 0.411874 0.433929
H39   H     H_    0.074464 0.716392 0.429842 0.047378
O26   O     O_2   0.999694 0.759365 0.458487 -0.561801
C48   C     C_3   0.945148 0.576439 0.239249 -0.827641
H40   H     H_    0.934016 0.576255 0.293980 0.217042
H41   H     H_    0.880828 0.534188 0.178987 0.256930
H42   H     H_    0.987670 0.548424 0.236027 0.231801
C49   C     C_2   0.591446 0.502491 0.770538 0.406522
H43   H     H_    0.572527 0.550024 0.793543 0.054367
O27   O     O_2   0.541005 0.425786 0.740254 -0.605531
C50   C     C_3   0.708635 0.472268 0.885499 -0.799137
H44   H     H_    0.670695 0.402020 0.836679 0.264384
H45   H     H_    0.759338 0.483709 0.946281 0.241753
H46   H     H_    0.666430 0.491319 0.906220 0.233833

loop_
_geom_bond_atom_site_label_1
_geom_bond_atom_site_label_2
_ccdc_geom_bond_type
O15   Zn6   S    
C41   H23   S    
C23   O20   A    
C27   C29   S    
C1    C8    S    
C22   O9    A    
C20   O5    A    
O22   Zn1   S    
O2    Zn4   S    
C42   H26   S    
C49   H43   S    
O4    Zn4   S    
O3    Zn3   S    
C44   H33   S    
C26   O16   A    
C23   O21   A    
C35   H18   S    
C25   O15   A    
C1    O12   A    
C7    H5    S    
C36   C37   S    
O18   Zn1   S    
C45   H36   S    
C5    C6    D    
O10   Zn6   S    
C24   O11   A    
C49   O27   D    
C14   H9    S    
C29   H14   S    
O20   Zn1   S    
O5    Zn3   S    
C39   C49   S    
C47   H39   S    
C19   O4    A    
C15   H10   S    
C33   C35   D    
C37   H16   S    
C3    C38   S    
C16   C17   D    
C11   C44   S    
O6    Zn4   S    
C16   H11   S    
C18   C30   S    
C9    C10   D    
C25   C32   S    
C48   H41   S    
O21   Zn2   S    
C43   H30   S    
C22   C28   S    
C20   C35   S    
C36   H1    S    
O8    Zn4   S    
C34   O22   A    
C32   H17   S    
O7    Zn3   S    
C1    O1    A    
C17   H12   S    
C22   O10   A    
C42   H27   S    
C3    H21   S    
C10   C21   S    
C44   H34   S    
C43   H29   S    
C7    C8    D    
O11   Zn5   S    
C45   H37   S    
C39   C40   S    
C5    C7    S    
C15   C26   S    
C50   H46   S    
C21   O7    A    
C34   O23   A    
C12   C40   S    
C2    C4    S    
C6    C42   S    
C29   C30   D    
C31   C32   D    
C17   C23   S    
C4    C39   S    
C36   C40   S    
C6    C24   S    
C31   C33   S    
C3    C41   S    
C18   O24   A    
C9    C11   S    
O17   Zn6   S    
C37   H19   S    
O13   Zn6   S    
C38   H20   S    
C5    H4    S    
C33   C48   S    
C43   H31   S    
C14   C16   S    
C31   C47   S    
C27   C28   D    
C42   H28   S    
C46   H38   S    
C30   H15   S    
O23   Zn2   S    
C39   H22   S    
C50   H45   S    
O1    Zn1   S    
C2    C19   S    
C20   O6    A    
C36   C45   S    
O24   Zn3   S    
C13   H8    S    
C48   H40   S    
C27   H13   S    
C24   O13   A    
O16   Zn5   S    
C41   H25   S    
C44   H32   S    
C26   O17   A    
C4    C50   S    
C21   O8    A    
C25   O14   A    
C2    C3    S    
C38   H3    S    
C45   H35   S    
C38   C40   S    
C11   C13   D    
C2    C37   S    
C18   O2    A    
C41   H24   S    
C4    H2    S    
C50   H44   S    
C12   O18   A    
C48   H42   S    
C47   O26   D    
C12   O19   A    
C19   O3    A    
C8    H6    S    
O19   Zn2   S    
C28   C46   S    
O14   Zn5   S    
C13   C34   S    
O9    Zn5   S    
C9    C43   S    
C10   H7    S    
C14   C15   D    
O12   Zn2   S    
C46   O25   D    
