data_mof_unit_62280.cif
_audit_creation_date              2012-12-10T21:03:20-0500
_audit_creation_method            fapswitch 2.2
_symmetry_space_group_name_H-M    P1
_symmetry_Int_Tables_number       1
_space_group_crystal_system       triclinic
_cell_length_a                    25.864053
_cell_length_b                    42.988761
_cell_length_c                    25.068237
_cell_angle_alpha                 89.973593
_cell_angle_beta                  120.78815
_cell_angle_gamma                 90.01086
_cell_volume                      23944.274064

loop_
_atom_site_label
_atom_site_type_symbol
_atom_type_description
_atom_site_fract_x
_atom_site_fract_y
_atom_site_fract_z
_atom_type_partial_charge
C1    C     C_R   0.999990 0.165730 0.500001 0.500475
C2    C     C_R   0.619345 0.251128 0.737206 0.062488
C3    C     C_R   0.643870 0.132678 0.492172 -0.099459
C4    C     C_R   0.279840 0.277856 0.504371 -0.118196
C5    C     C_R   0.720165 0.722144 0.495639 -0.118189
C6    C     C_R   0.720099 0.277853 0.495477 -0.120011
C7    C     C_R   0.279814 0.722141 0.504356 -0.119980
C8    C     C_R   0.779835 0.777856 0.504361 -0.118191
C9    C     C_R   0.220161 0.222143 0.495631 -0.118194
C10   C     C_R   0.220186 0.777859 0.495644 -0.119980
C11   C     C_R   0.779917 0.222153 0.504556 -0.120027
C12   C     C_R   0.304581 0.249387 0.501629 0.013398
C13   C     C_R   0.618720 0.749158 0.737289 0.071665
C14   C     C_R   0.695419 0.750612 0.498372 0.013397
C15   C     C_R   0.695415 0.249386 0.498359 0.012941
C16   C     C_R   0.304587 0.750611 0.501645 0.012988
C17   C     C_R   0.804581 0.749388 0.501628 0.013397
C18   C     C_R   0.195419 0.250612 0.498373 0.013394
C19   C     C_R   0.195412 0.749389 0.498355 0.012987
C20   C     C_R   0.804594 0.250619 0.501659 0.012979
C21   C     C_R   0.275004 0.221173 0.497781 -0.012789
C22   C     C_R   0.724992 0.778827 0.502212 -0.012791
C23   C     C_R   0.725069 0.221179 0.502386 -0.012804
C24   C     C_R   0.381283 0.250840 0.262708 0.071640
C25   C     C_R   0.275036 0.778829 0.497811 -0.012743
C26   C     C_R   0.775007 0.721173 0.497788 -0.012789
C27   C     C_R   0.224997 0.278826 0.502221 -0.012795
C28   C     C_R   0.224964 0.721171 0.502189 -0.012744
C29   C     C_R   0.774951 0.278829 0.497649 -0.012751
C30   C     C_R   0.013392 0.114958 0.460256 -0.128769
C31   C     C_R   0.986607 0.885042 0.539743 -0.128769
C32   C     C_R   0.986530 0.114933 0.539721 -0.127140
C33   C     C_R   0.013472 0.885067 0.460280 -0.127132
C34   C     C_R   0.513394 0.614958 0.460258 -0.128769
C35   C     C_R   0.718939 0.250256 0.936927 0.347984
C36   C     C_R   0.486606 0.385042 0.539742 -0.128768
C37   C     C_R   0.486528 0.614933 0.539719 -0.127132
C38   C     C_R   0.513473 0.385067 0.460281 -0.127141
C39   C     C_R   0.013396 0.082518 0.460249 -0.121610
C40   C     C_R   0.986603 0.917482 0.539750 -0.121609
C41   C     C_R   0.986521 0.082492 0.539720 -0.121507
C42   C     C_R   0.013482 0.917508 0.460282 -0.121510
C43   C     C_R   0.513398 0.582518 0.460251 -0.121609
C44   C     C_R   0.486602 0.417482 0.539749 -0.121609
C45   C     C_R   0.486518 0.582492 0.539718 -0.121510
C46   C     C_R   0.281062 0.749744 0.063072 0.347985
C47   C     C_R   0.513483 0.417508 0.460282 -0.121509
C48   C     C_R   0.999963 0.065934 0.499986 0.032531
C49   C     C_R   0.000038 0.934066 0.500014 0.032530
C50   C     C_R   0.499962 0.565934 0.499986 0.032530
C51   C     C_R   0.500039 0.434066 0.500015 0.032531
C52   C     C_R   0.999969 0.131462 0.499996 0.033736
C53   C     C_R   0.000031 0.868538 0.500004 0.033737
C54   C     C_R   0.499969 0.631462 0.499996 0.033736
C55   C     C_R   0.500031 0.368538 0.500005 0.033738
C56   C     C_R   0.860128 0.250208 0.500527 0.498227
C57   C     C_R   0.281169 0.250176 0.063039 0.348487
C58   C     C_R   0.139877 0.749797 0.499483 0.498210
C59   C     C_R   0.139875 0.250204 0.499490 0.499596
C60   C     C_R   0.860125 0.749796 0.500510 0.499590
C61   C     C_R   0.360123 0.750203 0.500517 0.498211
C62   C     C_R   0.639872 0.249791 0.499473 0.498288
C63   C     C_R   0.639875 0.750204 0.499490 0.499591
C64   C     C_R   0.360125 0.249796 0.500510 0.499586
C65   C     C_R   0.500023 0.468416 0.500009 0.346614
C66   C     C_R   0.499979 0.531584 0.499992 0.346613
C67   C     C_R   0.000022 0.968416 0.500009 0.346613
C68   C     C_R   0.718813 0.749829 0.936957 0.348487
C69   C     C_R   0.999979 0.031584 0.499992 0.346614
C70   C     C_R   0.084355 0.249766 0.668579 0.521700
C71   C     C_R   0.915645 0.750234 0.331420 0.521683
C72   C     C_R   0.915467 0.249679 0.331458 0.511368
C73   C     C_R   0.084532 0.750321 0.668542 0.511367
C74   C     C_R   0.584355 0.749766 0.668580 0.521689
C75   C     C_R   0.415647 0.250233 0.331419 0.521694
C76   C     C_R   0.415467 0.749679 0.331458 0.511368
C77   C     C_R   0.584532 0.250321 0.668542 0.511361
C78   C     C_R   0.884077 0.223221 0.229234 0.097796
C79   C     C_R   0.218938 0.750256 0.936927 0.347985
C80   C     C_R   0.115925 0.776779 0.770766 0.097797
C81   C     C_R   0.110029 0.225418 0.771112 0.090041
C82   C     C_R   0.889974 0.774579 0.228885 0.090033
C83   C     C_R   0.384076 0.723221 0.229234 0.097796
C84   C     C_R   0.615923 0.276778 0.770766 0.097797
C85   C     C_R   0.610059 0.725408 0.771113 0.090035
C86   C     C_R   0.390054 0.274547 0.228880 0.090028
C87   C     C_R   0.851435 0.223899 0.164087 -0.101544
C88   C     C_R   0.148567 0.776102 0.835913 -0.101542
C89   C     C_R   0.142933 0.225924 0.836081 -0.114657
C90   C     C_R   0.781063 0.249744 0.063073 0.347984
C91   C     C_R   0.857062 0.774076 0.163916 -0.114660
C92   C     C_R   0.351434 0.723899 0.164086 -0.101543
C93   C     C_R   0.648565 0.276101 0.835913 -0.101543
C94   C     C_R   0.642968 0.725911 0.836081 -0.114658
C95   C     C_R   0.357135 0.274046 0.163912 -0.114666
C96   C     C_R   0.814996 0.249432 0.131707 0.010845
C97   C     C_R   0.185004 0.750568 0.868293 0.010847
C98   C     C_R   0.184724 0.249615 0.868394 0.013454
C99   C     C_R   0.815261 0.750389 0.131604 0.013452
C100  C     C_R   0.314996 0.749432 0.131707 0.010847
C101  C     C_R   0.781182 0.750171 0.063041 0.348487
C102  C     C_R   0.685005 0.250568 0.868293 0.010846
C103  C     C_R   0.684737 0.749611 0.868394 0.013452
C104  C     C_R   0.315252 0.250392 0.131602 0.013455
C105  C     C_R   0.811203 0.274510 0.165359 -0.131664
C106  C     C_R   0.188794 0.725489 0.834641 -0.131662
C107  C     C_R   0.193560 0.272960 0.834692 -0.131189
C108  C     C_R   0.806422 0.727044 0.165307 -0.131191
C109  C     C_R   0.311204 0.774511 0.165359 -0.131663
C110  C     C_R   0.688799 0.225490 0.834641 -0.131663
C111  C     C_R   0.693546 0.772967 0.834692 -0.131190
C112  C     C_R   0.000010 0.834269 0.499999 0.500475
C113  C     C_R   0.218797 0.249834 0.936956 0.348488
C114  C     C_R   0.306337 0.227078 0.165306 -0.131192
C115  C     C_R   0.843571 0.274197 0.230091 -0.156666
C116  C     C_R   0.156427 0.725802 0.769909 -0.156662
C117  C     C_R   0.160996 0.272702 0.769938 -0.159092
C118  C     C_R   0.838991 0.727302 0.230062 -0.159096
C119  C     C_R   0.343572 0.774197 0.230091 -0.156662
C120  C     C_R   0.656431 0.225803 0.769909 -0.156671
C121  C     C_R   0.660979 0.772709 0.769938 -0.159097
C122  C     C_R   0.338912 0.227333 0.230060 -0.159087
C123  C     C_R   0.950584 0.385003 0.453517 -0.141205
C124  C     C_R   0.049451 0.614996 0.546428 -0.141158
C125  C     C_R   0.049420 0.384990 0.546434 -0.141178
C126  C     C_R   0.950571 0.615010 0.453572 -0.141201
C127  C     C_R   0.450549 0.885004 0.453574 -0.141156
C128  C     C_R   0.549389 0.114998 0.546524 -0.141258
C129  C     C_R   0.549424 0.884990 0.546437 -0.141204
C130  C     C_R   0.450590 0.115010 0.453556 -0.141144
C131  C     C_R   0.950528 0.417448 0.453548 -0.135987
C132  C     C_R   0.499990 0.665730 0.500001 0.500478
C133  C     C_R   0.049514 0.582551 0.546383 -0.135996
C134  C     C_R   0.049487 0.417434 0.546387 -0.135964
C135  C     C_R   0.950513 0.582566 0.453604 -0.135966
C136  C     C_R   0.450483 0.917449 0.453623 -0.135998
C137  C     C_R   0.549441 0.082553 0.546499 -0.136006
C138  C     C_R   0.549479 0.917434 0.546410 -0.135965
C139  C     C_R   0.450520 0.082566 0.453609 -0.135965
C140  C     C_R   0.000009 0.434026 0.499966 0.030851
C141  C     C_R   0.000015 0.565973 0.499990 0.030827
C142  C     C_R   0.499978 0.934027 0.500023 0.030825
C143  C     C_R   0.500010 0.334269 0.499999 0.500464
C144  C     C_R   0.499978 0.065974 0.500058 0.030858
C145  C     C_R   0.999998 0.368490 0.499982 0.031174
C146  C     C_R   0.000010 0.631509 0.500002 0.031138
C147  C     C_R   0.499989 0.868491 0.500001 0.031136
C148  C     C_R   0.499997 0.131510 0.500028 0.031200
C149  C     C_R   0.499973 0.031599 0.500057 0.345329
C150  C     C_R   0.499975 0.968402 0.500037 0.345323
C151  C     C_R   0.000015 0.531598 0.499981 0.345324
C152  C     C_R   0.000013 0.468401 0.499967 0.345326
C153  C     C_R   0.116286 0.346305 0.442372 -0.137680
C154  C     C_R   0.880656 0.248872 0.262794 0.062491
C155  C     C_R   0.883737 0.653702 0.557644 -0.137672
C156  C     C_R   0.883494 0.346374 0.557231 -0.138032
C157  C     C_R   0.116152 0.653742 0.442284 -0.138114
C158  C     C_R   0.616258 0.846296 0.442354 -0.137673
C159  C     C_R   0.383727 0.153698 0.557621 -0.137677
C160  C     C_R   0.383850 0.846257 0.557719 -0.138116
C161  C     C_R   0.616714 0.153561 0.442806 -0.138129
C162  C     C_R   0.143188 0.317667 0.446316 -0.118444
C163  C     C_R   0.856833 0.682340 0.553694 -0.118423
C164  C     C_R   0.856679 0.317717 0.553389 -0.118908
C165  C     C_R   0.119344 0.751128 0.737206 0.062496
C166  C     C_R   0.143077 0.682382 0.446268 -0.118943
C167  C     C_R   0.643166 0.817659 0.446304 -0.118424
C168  C     C_R   0.356822 0.182336 0.553679 -0.118430
C169  C     C_R   0.356924 0.817618 0.553734 -0.118944
C170  C     C_R   0.643503 0.182221 0.446604 -0.119173
C171  C     C_R   0.197637 0.309556 0.499809 0.053431
C172  C     C_R   0.802371 0.690443 0.500207 0.053433
C173  C     C_R   0.802248 0.309565 0.499929 0.053940
C174  C     C_R   0.197569 0.690442 0.499743 0.053869
C175  C     C_R   0.697627 0.809557 0.499791 0.053431
C176  C     C_R   0.118716 0.249159 0.737289 0.071666
C177  C     C_R   0.302365 0.190443 0.500192 0.053434
C178  C     C_R   0.302432 0.809558 0.500258 0.053869
C179  C     C_R   0.697795 0.190445 0.500153 0.053912
C180  C     C_R   0.999997 0.334236 0.499995 0.503369
C181  C     C_R   0.000004 0.665763 0.500003 0.503385
C182  C     C_R   0.499996 0.834237 0.499998 0.503384
C183  C     C_R   0.500002 0.165764 0.500007 0.503405
C184  C     C_R   0.225393 0.330540 0.550261 0.175116
C185  C     C_R   0.774605 0.669451 0.449771 0.175096
C186  C     C_R   0.774428 0.330524 0.449404 0.175622
C187  C     C_R   0.881281 0.750841 0.262709 0.071656
C188  C     C_R   0.225346 0.669404 0.550136 0.175587
C189  C     C_R   0.725392 0.830549 0.550228 0.175097
C190  C     C_R   0.274601 0.169456 0.449747 0.175100
C191  C     C_R   0.274656 0.830597 0.449867 0.175587
C192  C     C_R   0.725489 0.169568 0.550825 0.175867
C193  C     C_R   0.197920 0.359755 0.545824 0.136443
C194  C     C_R   0.802081 0.640236 0.454216 0.136427
C195  C     C_R   0.801817 0.359758 0.453737 0.136568
C196  C     C_R   0.197849 0.640187 0.545657 0.136580
C197  C     C_R   0.697913 0.859763 0.545783 0.136433
C198  C     C_R   0.380656 0.748872 0.262794 0.062496
C199  C     C_R   0.302077 0.140242 0.454182 0.136446
C200  C     C_R   0.302153 0.859813 0.454347 0.136581
C201  C     C_R   0.698127 0.140332 0.546543 0.136669
C202  C     C_R   0.143491 0.367285 0.491526 -0.099331
C203  C     C_R   0.856523 0.632714 0.508506 -0.099353
C204  C     C_R   0.856222 0.367332 0.508008 -0.099538
C205  C     C_R   0.143377 0.632709 0.491378 -0.099522
C206  C     C_R   0.643470 0.867285 0.491493 -0.099347
C207  C     C_R   0.356516 0.132715 0.508472 -0.099322
C208  C     C_R   0.356625 0.867291 0.508626 -0.099520
H1    H     H_    0.302345 0.299448 0.506050 0.147982
H2    H     H_    0.976078 0.872909 0.570887 0.142328
H3    H     H_    0.578852 0.319204 0.770132 0.222265
H4    H     H_    0.592416 0.679491 0.754511 0.226929
H5    H     H_    0.536999 0.700465 0.754294 0.232339
H6    H     H_    0.407934 0.320446 0.245477 0.226944
H7    H     H_    0.463239 0.299369 0.245686 0.232321
H8    H     H_    0.269839 0.303244 0.626053 0.241298
H9    H     H_    0.297999 0.339326 0.638085 0.258011
H10   H     H_    0.730133 0.696730 0.373958 0.241297
H11   H     H_    0.701974 0.660649 0.361970 0.258015
H12   H     H_    0.730040 0.303193 0.373705 0.240698
H13   H     H_    0.976002 0.127049 0.570865 0.142434
H14   H     H_    0.701784 0.339257 0.361560 0.256869
H15   H     H_    0.269899 0.696616 0.625993 0.240704
H16   H     H_    0.298010 0.660527 0.637893 0.256871
H17   H     H_    0.769864 0.803269 0.626039 0.241298
H18   H     H_    0.798019 0.839351 0.638030 0.258014
H19   H     H_    0.230138 0.196743 0.373945 0.241289
H20   H     H_    0.201977 0.160662 0.361938 0.258012
H21   H     H_    0.230103 0.803385 0.374007 0.240703
H22   H     H_    0.201991 0.839475 0.362110 0.256870
H23   H     H_    0.769566 0.197057 0.626326 0.240721
H24   H     H_    0.024002 0.872951 0.429138 0.142455
H25   H     H_    0.797850 0.160992 0.638923 0.256791
H26   H     H_    0.262430 0.391060 0.596980 0.232683
H27   H     H_    0.195578 0.399943 0.588668 0.225223
H28   H     H_    0.737575 0.608920 0.403104 0.232682
H29   H     H_    0.804415 0.600041 0.411384 0.225218
H30   H     H_    0.737225 0.391021 0.402486 0.232145
H31   H     H_    0.804046 0.399937 0.410740 0.225191
H32   H     H_    0.262339 0.608834 0.596669 0.232161
H33   H     H_    0.195514 0.599948 0.588430 0.225213
H34   H     H_    0.762417 0.891078 0.596899 0.232680
H35   H     H_    0.523923 0.627091 0.429113 0.142328
H36   H     H_    0.695575 0.899958 0.588613 0.225217
H37   H     H_    0.237572 0.108930 0.403049 0.232676
H38   H     H_    0.304416 0.100054 0.411335 0.225236
H39   H     H_    0.237664 0.891167 0.403336 0.232159
H40   H     H_    0.304489 0.900053 0.411575 0.225212
H41   H     H_    0.762772 0.109179 0.598270 0.232169
H42   H     H_    0.695819 0.100199 0.589624 0.225115
H43   H     H_    0.476077 0.372909 0.570886 0.142327
H44   H     H_    0.475998 0.627049 0.570862 0.142456
H45   H     H_    0.524003 0.372951 0.429139 0.142434
H46   H     H_    0.023944 0.070482 0.429058 0.139582
H47   H     H_    0.976054 0.929518 0.570940 0.139581
H48   H     H_    0.975972 0.070434 0.570908 0.139356
H49   H     H_    0.697663 0.700551 0.493967 0.147994
H50   H     H_    0.024033 0.929565 0.429095 0.139358
H51   H     H_    0.523948 0.570482 0.429062 0.139582
H52   H     H_    0.476053 0.429518 0.570938 0.139583
H53   H     H_    0.475967 0.570434 0.570904 0.139358
H54   H     H_    0.524035 0.429565 0.429097 0.139353
H55   H     H_    0.854289 0.204236 0.138722 0.134022
H56   H     H_    0.145716 0.795765 0.861278 0.134022
H57   H     H_    0.135574 0.207557 0.861069 0.136271
H58   H     H_    0.864427 0.792440 0.138927 0.136271
H59   H     H_    0.354287 0.704236 0.138722 0.134022
H60   H     H_    0.697545 0.299443 0.493678 0.147136
H61   H     H_    0.645712 0.295763 0.861278 0.134023
H62   H     H_    0.635627 0.707537 0.861069 0.136271
H63   H     H_    0.364561 0.292386 0.138922 0.136272
H64   H     H_    0.783369 0.294523 0.141741 0.146563
H65   H     H_    0.216626 0.705476 0.858258 0.146559
H66   H     H_    0.225566 0.291546 0.858276 0.146638
H67   H     H_    0.774406 0.708462 0.141723 0.146635
H68   H     H_    0.283370 0.794523 0.141741 0.146558
H69   H     H_    0.716633 0.205478 0.858258 0.146566
H70   H     H_    0.725537 0.791559 0.858276 0.146635
H71   H     H_    0.302299 0.700548 0.506018 0.147066
H72   H     H_    0.274256 0.208521 0.141723 0.146635
H73   H     H_    0.840097 0.294061 0.254649 0.140102
H74   H     H_    0.159898 0.705937 0.745351 0.140084
H75   H     H_    0.168675 0.291169 0.745384 0.141457
H76   H     H_    0.831307 0.708837 0.254615 0.141456
H77   H     H_    0.340099 0.794062 0.254649 0.140083
H78   H     H_    0.659904 0.205939 0.745351 0.140117
H79   H     H_    0.668639 0.791184 0.745384 0.141444
H80   H     H_    0.331165 0.208893 0.254614 0.141490
H81   H     H_    0.911864 0.372860 0.417098 0.149550
H82   H     H_    0.802337 0.799449 0.506033 0.147994
H83   H     H_    0.088187 0.627138 0.582827 0.149655
H84   H     H_    0.088139 0.372838 0.582857 0.149705
H85   H     H_    0.911833 0.627162 0.417176 0.149720
H86   H     H_    0.411815 0.872863 0.417171 0.149653
H87   H     H_    0.588094 0.127141 0.582962 0.149619
H88   H     H_    0.588162 0.872838 0.582833 0.149718
H89   H     H_    0.411887 0.127162 0.417110 0.149685
H90   H     H_    0.911653 0.429489 0.417139 0.137499
H91   H     H_    0.088410 0.570510 0.582763 0.137544
H92   H     H_    0.088366 0.429464 0.582791 0.137599
H93   H     H_    0.197657 0.200551 0.493953 0.147993
H94   H     H_    0.911619 0.570536 0.417219 0.137598
H95   H     H_    0.411589 0.929491 0.417243 0.137544
H96   H     H_    0.588300 0.070512 0.582931 0.137481
H97   H     H_    0.588370 0.929463 0.582799 0.137599
H98   H     H_    0.411654 0.070536 0.417187 0.137604
H99   H     H_    0.122044 0.389529 0.487164 0.120090
H100  H     H_    0.877972 0.610470 0.512872 0.120081
H101  H     H_    0.877597 0.389592 0.512295 0.120031
H102  H     H_    0.121913 0.610465 0.486985 0.120077
H103  H     H_    0.622019 0.889527 0.487127 0.120080
H104  H     H_    0.197701 0.799451 0.493982 0.147066
H105  H     H_    0.377965 0.110473 0.512831 0.120098
H106  H     H_    0.378090 0.889535 0.513020 0.120079
H107  H     H_    0.622519 0.110413 0.487918 0.120020
H108  H     H_    0.074257 0.352326 0.400931 0.120052
H109  H     H_    0.925776 0.647686 0.599080 0.120049
H110  H     H_    0.925506 0.352429 0.598650 0.119648
H111  H     H_    0.074091 0.647760 0.400857 0.119621
H112  H     H_    0.574219 0.852311 0.400918 0.120047
H113  H     H_    0.425763 0.147680 0.599056 0.120044
H114  H     H_    0.425911 0.852239 0.599147 0.119620
H115  H     H_    0.802474 0.200562 0.506371 0.146933
H116  H     H_    0.574815 0.147445 0.401312 0.119720
H117  H     H_    0.121604 0.301720 0.407474 0.113252
H118  H     H_    0.878424 0.698292 0.592525 0.113248
H119  H     H_    0.878310 0.301791 0.592289 0.111250
H120  H     H_    0.121479 0.698368 0.407467 0.111306
H121  H     H_    0.621576 0.801707 0.407473 0.113249
H122  H     H_    0.378412 0.198284 0.592518 0.113248
H123  H     H_    0.378522 0.801631 0.592534 0.111306
H124  H     H_    0.621965 0.198092 0.407602 0.111328
H125  H     H_    0.897714 0.184732 0.280701 0.229693
H126  H     H_    0.023919 0.127091 0.429110 0.142327
H127  H     H_    0.921147 0.180795 0.229868 0.222263
H128  H     H_    0.102292 0.815268 0.719298 0.229694
H129  H     H_    0.078861 0.819207 0.770131 0.222264
H130  H     H_    0.092348 0.179504 0.754515 0.226923
H131  H     H_    0.036946 0.200496 0.754292 0.232355
H132  H     H_    0.907685 0.820491 0.245480 0.226935
H133  H     H_    0.963073 0.799485 0.245704 0.232332
H134  H     H_    0.397712 0.684732 0.280701 0.229695
H135  H     H_    0.421145 0.680795 0.229868 0.222264
H136  H     H_    0.602285 0.315268 0.719299 0.229693
N1    N     N_R   0.745537 0.274268 0.031229 -0.226631
N2    N     N_R   0.284889 0.725492 0.030553 -0.230201
N3    N     N_R   0.290010 0.272740 0.030592 -0.230634
N4    N     N_R   0.710056 0.727231 0.969404 -0.230630
N5    N     N_R   0.215110 0.774508 0.969447 -0.230201
N6    N     N_R   0.784892 0.225493 0.030553 -0.230200
N7    N     N_R   0.789939 0.772769 0.030594 -0.230632
N8    N     N_R   0.209955 0.227270 0.969402 -0.230631
N9    N     N_R   0.047844 0.484514 0.544511 -0.232430
N10   N     N_R   0.952185 0.515485 0.455437 -0.232433
N11   N     N_R   0.952183 0.484530 0.455430 -0.232451
N12   N     N_R   0.254462 0.725732 0.968771 -0.226631
N13   N     N_R   0.047845 0.515469 0.544517 -0.232442
N14   N     N_R   0.547792 0.984515 0.544600 -0.232433
N15   N     N_R   0.452155 0.015486 0.455496 -0.232433
N16   N     N_R   0.452155 0.984531 0.455486 -0.232442
N17   N     N_R   0.547792 0.015470 0.544610 -0.232450
N18   N     N_R   0.987012 0.015459 0.538275 -0.230107
N19   N     N_R   0.012989 0.984541 0.461726 -0.230107
N20   N     N_R   0.012968 0.015489 0.461718 -0.230130
N21   N     N_R   0.987033 0.984511 0.538283 -0.230132
N22   N     N_R   0.487011 0.515459 0.538273 -0.230107
N23   N     N_R   0.259455 0.272585 0.968822 -0.227015
N24   N     N_R   0.512991 0.484541 0.461727 -0.230108
N25   N     N_R   0.512970 0.515489 0.461719 -0.230132
N26   N     N_R   0.487032 0.484511 0.538281 -0.230130
N27   N     N_3   0.919592 0.196319 0.261119 -0.582699
N28   N     N_3   0.080413 0.803682 0.738881 -0.582700
N29   N     N_3   0.068544 0.200460 0.740065 -0.587592
N30   N     N_3   0.931476 0.799531 0.259931 -0.587592
N31   N     N_3   0.419590 0.696319 0.261119 -0.582699
N32   N     N_3   0.580407 0.303680 0.738881 -0.582696
N33   N     N_3   0.568593 0.700442 0.740065 -0.587607
N34   N     N_R   0.740609 0.727387 0.031175 -0.227015
N35   N     N_3   0.431649 0.299465 0.259923 -0.587548
N36   N     N_3   0.280319 0.321418 0.605456 -0.623555
N37   N     N_3   0.719666 0.678565 0.394582 -0.623568
N38   N     N_3   0.719520 0.321363 0.394248 -0.626572
N39   N     N_3   0.280319 0.678472 0.605315 -0.626577
N40   N     N_3   0.780330 0.821436 0.605417 -0.623566
N41   N     N_3   0.219667 0.178574 0.394558 -0.623567
N42   N     N_3   0.219682 0.821530 0.394687 -0.626578
N43   N     N_3   0.780243 0.178815 0.606066 -0.626419
N44   N     N_3   0.224983 0.381496 0.596409 -0.642133
N45   N     N_R   0.245538 0.774268 0.031229 -0.226632
N46   N     N_3   0.775007 0.618486 0.403646 -0.642136
N47   N     N_3   0.774689 0.381475 0.403076 -0.642349
N48   N     N_3   0.224933 0.618391 0.596181 -0.642372
N49   N     N_3   0.724984 0.881513 0.596353 -0.642136
N50   N     N_3   0.275008 0.118498 0.403602 -0.642123
N51   N     N_3   0.275069 0.881610 0.403823 -0.642370
N52   N     N_3   0.725129 0.118694 0.597352 -0.642417
N53   N     N_R   0.754464 0.225733 0.968771 -0.226630
N54   N     N_R   0.759386 0.772614 0.968823 -0.227016
N55   N     N_R   0.240509 0.227426 0.031173 -0.227014
N56   N     N_R   0.715110 0.274507 0.969447 -0.230200
O1    O     O_3   0.000000 0.250010 0.500000 -0.442783
O2    O     O_R   0.487810 0.319320 0.536380 -0.544535
O3    O     O_R   0.487810 0.680680 0.536380 -0.541482
O4    O     O_R   0.512190 0.319320 0.463620 -0.541518
O5    O     O_R   0.951470 0.319330 0.463670 -0.540575
O6    O     O_R   0.048530 0.680670 0.536330 -0.540582
O7    O     O_R   0.048530 0.319330 0.536330 -0.540837
O8    O     O_R   0.951470 0.680670 0.463670 -0.540843
O9    O     O_R   0.451470 0.819330 0.463670 -0.540582
O10   O     O_R   0.548530 0.180670 0.536330 -0.540540
O11   O     O_R   0.548530 0.819330 0.536330 -0.540844
O12   O     O_3   0.000000 0.749990 0.500000 -0.442785
O13   O     O_R   0.451470 0.180670 0.463670 -0.540827
O14   O     O_R   0.902360 0.231840 0.536340 -0.542202
O15   O     O_R   0.097640 0.768160 0.463660 -0.542154
O16   O     O_R   0.097640 0.231840 0.463660 -0.538767
O17   O     O_R   0.902360 0.768160 0.536340 -0.538768
O18   O     O_R   0.402360 0.731840 0.536340 -0.542160
O19   O     O_R   0.597640 0.268160 0.463660 -0.542132
O20   O     O_R   0.597640 0.731840 0.463660 -0.538767
O21   O     O_R   0.402360 0.268160 0.536340 -0.538771
O22   O     O_R   0.133980 0.268190 0.536340 -0.534789
O23   O     O_3   0.500000 0.750010 0.500000 -0.442786
O24   O     O_R   0.866020 0.731810 0.463660 -0.534783
O25   O     O_R   0.866020 0.268190 0.463660 -0.534888
O26   O     O_R   0.133980 0.731810 0.536340 -0.534873
O27   O     O_R   0.633980 0.768190 0.536340 -0.534781
O28   O     O_R   0.366020 0.231810 0.463660 -0.534797
O29   O     O_R   0.366020 0.768190 0.463660 -0.534873
O30   O     O_R   0.633980 0.231810 0.536340 -0.534974
O31   O     O_R   0.038940 0.231840 0.638630 -0.497035
O32   O     O_R   0.961060 0.768160 0.361370 -0.497042
O33   O     O_R   0.961060 0.231840 0.361370 -0.504112
O34   O     O_3   0.500000 0.249990 0.500000 -0.442789
O35   O     O_R   0.038940 0.768160 0.638630 -0.504113
O36   O     O_R   0.538940 0.731840 0.638630 -0.497051
O37   O     O_R   0.461060 0.268160 0.361370 -0.497000
O38   O     O_R   0.461060 0.731840 0.361370 -0.504113
O39   O     O_R   0.538940 0.268160 0.638630 -0.504111
O40   O     O_R   0.099660 0.268190 0.638640 -0.558248
O41   O     O_R   0.900340 0.731810 0.361360 -0.558250
O42   O     O_R   0.900340 0.268190 0.361360 -0.555648
O43   O     O_R   0.099660 0.731810 0.638640 -0.555653
O44   O     O_R   0.599660 0.768190 0.638640 -0.558245
O45   O     O_R   0.012190 0.180680 0.463620 -0.544532
O46   O     O_R   0.400340 0.231810 0.361360 -0.558257
O47   O     O_R   0.400340 0.768190 0.361360 -0.555654
O48   O     O_R   0.599660 0.231810 0.638640 -0.555662
O49   O     O_R   0.987810 0.819320 0.536380 -0.544534
O50   O     O_R   0.987810 0.180680 0.536380 -0.541503
O51   O     O_R   0.012190 0.819320 0.463620 -0.541486
O52   O     O_R   0.512190 0.680680 0.463620 -0.544534
Zn1   Zn    Zn3+2 0.930660 0.275970 0.448070 0.936926
Zn2   Zn    Zn3+2 0.017430 0.775960 0.448080 0.954277
Zn3   Zn    Zn3+2 0.017430 0.224040 0.448080 0.953258
Zn4   Zn    Zn3+2 0.982570 0.775960 0.551920 0.953255
Zn5   Zn    Zn3+2 0.482570 0.724040 0.551920 0.954276
Zn6   Zn    Zn3+2 0.517430 0.275960 0.448080 0.954312
Zn7   Zn    Zn3+2 0.517430 0.724040 0.448080 0.953256
Zn8   Zn    Zn3+2 0.482570 0.275960 0.551920 0.953243
Zn9   Zn    Zn3+2 0.069340 0.724030 0.551930 0.936922
Zn10  Zn    Zn3+2 0.069340 0.275970 0.551930 0.938710
Zn11  Zn    Zn3+2 0.930660 0.724030 0.448070 0.938701
Zn12  Zn    Zn3+2 0.430660 0.775970 0.448070 0.936921
Zn13  Zn    Zn3+2 0.569340 0.224030 0.551930 0.936941
Zn14  Zn    Zn3+2 0.569340 0.775970 0.551930 0.938705
Zn15  Zn    Zn3+2 0.430660 0.224030 0.448070 0.938728
Zn16  Zn    Zn3+2 0.982570 0.224040 0.551920 0.954258

loop_
_geom_bond_atom_site_label_1
_geom_bond_atom_site_label_2
_ccdc_geom_bond_type
C65   N24   A    
O34   Zn8   S    
O30   Zn13  S    
C150  N14   A    
C84   N32   S    
O28   Zn15  S    
C190  N41   S    
C124  C133  A    
O39   Zn8   S    
C168  H122  S    
O10   Zn13  S    
C184  C193  A    
N14   N17   A    
N3    N23   A    
H20   N41   S    
C32   C52   A    
C131  C140  A    
C138  H97   S    
C170  H124  S    
C38   C55   A    
C123  C145  A    
C195  N47   S    
C69   N18   A    
C4    C12   A    
C33   H24   S    
C140  C152  S    
C23   C179  S    
C88   C97   A    
H8    N36   S    
C21   C177  S    
C1    O50   A    
C26   C172  S    
C100  C109  A    
C200  C208  A    
C197  C206  A    
C7    H71   S    
N2    N12   A    
O1    Zn10  S    
C79   C97   S    
C158  C167  A    
C19   C58   S    
O14   Zn16  S    
C11   C20   A    
C166  C174  A    
C72   C154  S    
O18   Zn5   S    
C81   C176  A    
C193  N44   S    
C157  C205  A    
C127  C136  A    
H36   N49   S    
C25   C178  S    
H29   N46   S    
C82   C91   A    
O34   Zn13  S    
H27   N44   S    
C93   C102  A    
C143  O2    A    
O46   Zn15  S    
O1    Zn1   S    
C153  H108  S    
C41   H48   S    
H39   N51   S    
C164  C173  A    
C24   C75   S    
C134  H92   S    
O31   Zn16  S    
C95   H63   S    
C163  C172  A    
H31   N47   S    
C60   O24   A    
H17   N40   S    
C99   C101  S    
C34   C54   A    
O34   Zn6   S    
C6    H60   S    
C166  H120  S    
C36   C44   A    
C37   C45   A    
C10   H104  S    
C189  C197  A    
C16   C25   A    
C57   C104  S    
C146  C181  S    
C34   H35   S    
C67   N21   A    
O11   Zn14  S    
O12   Zn2   S    
O6    Zn9   S    
C71   C187  S    
C183  O10   A    
C159  C207  A    
C53   C112  S    
C54   C132  S    
C70   O31   A    
C35   N56   A    
C8    C17   A    
H25   N43   S    
C36   C55   A    
H26   N44   S    
C162  H117  S    
C9    C21   A    
H6    N35   S    
C45   C50   A    
C76   O38   A    
H41   N52   S    
C11   C23   A    
C73   O43   A    
C69   N20   A    
C11   H115  S    
C90   N6    A    
C74   O44   A    
C84   C93   A    
O7    Zn10  S    
H133  N30   S    
C129  C147  A    
C86   C95   A    
C79   N12   A    
C61   O29   A    
C80   C88   A    
H34   N49   S    
C13   C85   A    
N15   N16   A    
C159  H113  S    
C208  H106  S    
H11   N37   S    
C70   C176  S    
C158  C206  A    
C200  N51   S    
N9    N13   A    
C78   C87   A    
C64   O28   A    
O19   Zn6   S    
H9    N36   S    
C119  C198  A    
O41   Zn11  S    
O8    Zn11  S    
C63   O27   A    
O37   Zn6   S    
C68   C103  S    
C20   C56   S    
C35   C102  S    
C205  H102  S    
C136  H95   S    
C120  H78   S    
C99   C108  A    
C72   O42   A    
H30   N47   S    
C151  N13   A    
C59   O22   A    
C35   N53   A    
C33   C42   A    
O1    Zn3   S    
C197  N49   S    
C12   C64   S    
C44   H52   S    
C40   C49   A    
C75   O37   A    
C196  N48   S    
C145  C180  S    
C137  H96   S    
C139  C144  A    
O12   Zn11  S    
C57   N3    A    
H128  N28   S    
C156  H110  S    
C8    C22   A    
C32   C41   A    
C157  H111  S    
C131  H90   S    
H28   N46   S    
C46   N2    A    
C158  H112  S    
O1    Zn16  S    
C105  H64   S    
H40   N51   S    
C46   N45   A    
C67   N19   A    
O12   Zn4   S    
C106  H65   S    
C155  C203  A    
C185  N37   S    
C181  O6    A    
C55   C143  S    
C162  C171  A    
C191  C200  A    
O26   Zn9   S    
C73   C165  S    
C86   N35   S    
C132  O52   A    
C2    C120  A    
C155  C163  A    
C124  C146  A    
C4    H1    S    
C5    C26   A    
C3    H107  S    
C160  C208  A    
O9    Zn12  S    
C13   C121  A    
C65   N26   A    
C45   H53   S    
C78   N27   S    
C132  O3    A    
C172  C185  A    
N19   N20   A    
C101  N7    A    
C5    H49   S    
C93   H61   S    
C19   C28   A    
C10   C25   A    
C137  C144  A    
C79   N5    A    
C16   C61   S    
C161  C170  A    
C62   O30   A    
C135  H94   S    
C87   H55   S    
C4    C27   A    
C88   H56   S    
C167  C175  A    
C206  H103  S    
C30   C52   A    
C56   O14   A    
C177  C190  A    
H4    N33   S    
N6    N53   A    
C105  C115  A    
C202  H99   S    
C118  C187  A    
C43   C50   A    
C85   N33   S    
O22   Zn10  S    
C89   C98   A    
C14   C22   A    
C42   H50   S    
C125  C145  A    
C28   C174  S    
C72   O33   A    
C148  C183  S    
C30   C39   A    
C186  N38   S    
C89   H57   S    
O47   Zn12  S    
C109  H68   S    
C57   N55   A    
C17   C60   S    
O50   Zn16  S    
C9    C18   A    
C135  C141  A    
C75   O46   A    
N10   N11   A    
C191  N42   S    
C90   N1    A    
C91   C99   A    
C24   C86   A    
C188  N39   S    
O5    Zn1   S    
C180  O5    A    
C156  C204  A    
C125  C134  A    
C181  O8    A    
C96   C105  A    
H127  N27   S    
C59   O16   A    
C116  H74   S    
C185  C194  A    
H21   N42   S    
C32   H13   S    
C160  C169  A    
C139  H98   S    
C115  H73   S    
C141  C151  S    
H32   N48   S    
C189  N40   S    
C167  H121  S    
O35   Zn4   S    
C168  C177  A    
C94   H62   S    
H15   N39   S    
C151  N10   A    
C31   C40   A    
C103  C111  A    
C51   C65   S    
N24   N25   A    
O2    Zn8   S    
C77   O39   A    
C77   O48   A    
O44   Zn14  S    
O15   Zn2   S    
C149  N17   A    
C161  H116  S    
C190  C199  A    
C192  C201  A    
O42   Zn1   S    
H134  N31   S    
C49   C67   S    
C101  N34   A    
C119  H77   S    
C81   C89   A    
C108  H67   S    
C3    C161  A    
C130  C139  A    
C184  N36   S    
C68   N4    A    
C60   O17   A    
O16   Zn3   S    
C47   H54   S    
C112  O49   A    
C34   C43   A    
O38   Zn7   S    
C30   H126  S    
C171  C184  A    
C74   O36   A    
O23   Zn14  S    
O36   Zn5   S    
C138  C142  A    
C78   C154  A    
C98   C113  S    
C47   C51   A    
C195  C204  A    
C155  H109  S    
C193  C202  A    
H22   N42   S    
C163  H118  S    
C106  C116  A    
C73   O35   A    
H7    N35   S    
H135  N31   S    
C201  N52   S    
C56   O25   A    
C10   C19   A    
O43   Zn9   S    
H18   N40   S    
C2    C84   A    
H42   N52   S    
C83   C198  A    
C90   C96   S    
C5    C14   A    
C136  C142  A    
C180  O7    A    
C97   C106  A    
C147  C182  S    
C7    C16   A    
C126  C135  A    
C58   O15   A    
H14   N38   S    
C115  C154  A    
C3    C201  A    
C116  C165  A    
C102  C110  A    
C152  N9    A    
O49   Zn4   S    
C81   N29   S    
C80   C165  A    
C109  C119  A    
O25   Zn1   S    
C153  C202  A    
C83   N31   S    
O17   Zn4   S    
C123  C131  A    
H38   N50   S    
H10   N37   S    
C128  C148  A    
C80   N28   S    
O32   Zn2   S    
H3    N32   S    
C113  N8    A    
C68   N54   A    
C169  H123  S    
C37   H44   S    
C170  C179  A    
C133  C141  A    
C153  C162  A    
O23   Zn12  S    
C142  C150  S    
C2    C77   S    
C76   C198  S    
H131  N29   S    
C31   H2    S    
C14   C63   S    
H129  N28   S    
C15   C62   S    
C123  H81   S    
C1    C52   S    
C7    C28   A    
C61   O18   A    
C22   C175  S    
C6    C29   A    
C13   C74   S    
N7    N54   A    
C160  H114  S    
O33   Zn3   S    
H19   N41   S    
H125  N27   S    
C107  C117  A    
C39   C48   A    
N18   N21   A    
H12   N38   S    
C128  H87   S    
C63   O20   A    
C112  O51   A    
C64   O21   A    
C44   C51   A    
C111  C121  A    
H5    N33   S    
C62   O19   A    
C113  N23   A    
C48   C69   S    
C124  H83   S    
C43   H51   S    
C126  C146  A    
O4    Zn6   S    
C39   H46   S    
C8    H82   S    
C66   N22   A    
C83   C92   A    
C17   C26   A    
C70   O40   A    
O20   Zn7   S    
O21   Zn8   S    
C38   H45   S    
C199  N50   S    
N5    N45   A    
C134  C140  A    
C82   N30   S    
C149  N15   A    
C196  C205  A    
C36   H43   S    
O40   Zn10  S    
C159  C168  A    
C121  H79   S    
C182  O11   A    
C107  H66   S    
C122  H80   S    
C174  C188  A    
C6    C15   A    
C40   H47   S    
C179  C192  A    
C118  H76   S    
O23   Zn7   S    
H136  N32   S    
C152  N11   A    
N22   N26   A    
C192  N43   S    
C114  H72   S    
C126  H85   S    
O45   Zn3   S    
C15   C23   A    
C92   H59   S    
C143  O4    A    
C24   C122  A    
C20   C29   A    
C33   C53   A    
C173  C186  A    
C129  C138  A    
C130  H89   S    
C130  C148  A    
C111  H70   S    
C108  C118  A    
C186  C195  A    
O3    Zn5   S    
C150  N16   A    
C110  C120  A    
O27   Zn14  S    
C129  H88   S    
C12   C21   A    
C1    O45   A    
C117  H75   S    
C128  C137  A    
C9    H93   S    
C144  C149  S    
O12   Zn9   S    
C66   N25   A    
N4    N34   A    
C85   C94   A    
C18   C59   S    
C164  H119  S    
C87   C96   A    
C199  C207  A    
C133  H91   S    
O24   Zn11  S    
C31   C53   A    
O52   Zn7   S    
C203  H100  S    
C50   C66   S    
C156  C164  A    
C38   C47   A    
C127  H86   S    
C104  C114  A    
C37   C54   A    
C117  C176  A    
O13   Zn15  S    
C91   H58   S    
C27   C171  S    
C169  C178  A    
C183  O13   A    
C95   C104  A    
C92   C100  A    
C175  C189  A    
C46   C100  S    
C207  H105  S    
C58   O26   A    
H23   N43   S    
C18   C27   A    
H16   N39   S    
C29   C173  S    
C157  C166  A    
C94   C103  A    
N1    N56   A    
H37   N50   S    
C82   C187  A    
C110  H69   S    
C182  O9    A    
O51   Zn2   S    
N8    N55   A    
C178  C191  A    
C71   O41   A    
C194  C203  A    
C41   C48   A    
O34   Zn15  S    
O29   Zn12  S    
O23   Zn5   S    
C71   O32   A    
O48   Zn13  S    
C125  H84   S    
C42   C49   A    
C114  C122  A    
C188  C196  A    
H132  N30   S    
C76   O47   A    
H130  N29   S    
C194  N46   S    
C204  H101  S    
C127  C147  A    
C98   C107  A    
H33   N48   S    
