data_mof_unit_33395.cif
_audit_creation_date              2012-12-10T18:25:31-0500
_audit_creation_method            fapswitch 2.2
_symmetry_space_group_name_H-M    P1
_symmetry_Int_Tables_number       1
_space_group_crystal_system       triclinic
_cell_length_a                    14.958392
_cell_length_b                    13.988284
_cell_length_c                    19.196509
_cell_angle_alpha                 89.648029
_cell_angle_beta                  89.520683
_cell_angle_gamma                 89.373567
_cell_volume                      4016.26628391

loop_
_atom_site_label
_atom_site_type_symbol
_atom_type_description
_atom_site_fract_x
_atom_site_fract_y
_atom_site_fract_z
_atom_type_partial_charge
C1    C     C_R   0.326703 0.500692 0.501360 0.942328
C2    C     C_R   0.673153 0.499565 0.498844 0.932384
C3    C     C_R   0.811782 0.556311 0.545051 -0.327720
C4    C     C_R   0.187677 0.438488 0.458904 -0.321153
C5    C     C_R   0.904156 0.559960 0.545114 0.020960
C6    C     C_R   0.095254 0.439299 0.455525 0.019887
C7    C     C_R   0.953064 0.500701 0.498711 -0.037143
C8    C     C_R   0.046310 0.501339 0.499858 -0.031701
C9    C     C_R   0.908659 0.440535 0.451398 -0.051825
C10   C     C_R   0.090641 0.563486 0.545765 -0.042324
C11   C     C_R   0.948463 0.620186 0.591722 0.490670
C12   C     C_R   0.050911 0.378332 0.409359 0.493522
C13   C     C_R   0.041233 0.619251 0.593098 -0.287319
C14   C     C_R   0.958037 0.377263 0.409339 -0.289672
C15   C     C_R   0.537536 0.797206 0.554353 -0.078657
C16   C     C_R   0.462254 0.202770 0.445744 -0.043046
C17   C     C_R   0.462662 0.798973 0.445586 -0.073015
C18   C     C_R   0.537399 0.200976 0.554396 -0.050748
C19   C     C_R   0.462154 0.899663 0.444098 0.008318
C20   C     C_R   0.537977 0.100260 0.555852 0.018506
C21   C     C_R   0.538122 0.897840 0.555818 0.028408
C22   C     C_R   0.461549 0.102099 0.444344 0.017056
C23   C     C_R   0.500109 0.949342 0.499970 0.092530
C24   C     C_R   0.499860 0.050581 0.500062 0.084582
C25   C     C_R   0.424042 0.951589 0.388687 -0.215646
C26   C     C_R   0.575690 0.048333 0.611419 -0.214922
C27   C     C_R   0.575679 0.947938 0.611460 -0.215884
C28   C     C_R   0.423692 0.051997 0.388829 -0.197446
C29   C     C_R   0.497647 0.500175 0.365527 0.905714
C30   C     C_R   0.499672 0.499738 0.634584 0.937036
C31   C     C_R   0.475712 0.585247 0.253784 -0.288245
C32   C     C_R   0.491420 0.412292 0.746249 -0.297365
C33   C     C_R   0.494141 0.585574 0.746363 -0.305988
C34   C     C_R   0.497551 0.413175 0.254633 -0.294983
C35   C     C_R   0.469506 0.584756 0.181592 0.460879
C36   C     C_R   0.487417 0.410946 0.818676 0.444161
C37   C     C_R   0.484676 0.586361 0.818865 0.450668
C38   C     C_R   0.485770 0.410552 0.183167 0.458870
C39   C     C_R   0.474253 0.496942 0.145959 -0.165555
C40   C     C_R   0.482574 0.498232 0.854752 -0.113675
C41   C     C_R   0.491285 0.499904 0.290187 -0.172987
C42   C     C_R   0.495762 0.499155 0.710178 -0.150136
C43   C     C_R   0.478227 0.496962 0.930254 0.373238
C44   C     C_R   0.473247 0.495559 0.070310 0.310948
C45   C     C_R   0.815330 0.445147 0.447608 0.474928
C46   C     C_R   0.183905 0.568133 0.543506 0.432501
C47   C     C_R   0.768511 0.499125 0.497393 -0.178104
C48   C     C_R   0.231104 0.502539 0.501751 -0.177167
H1    H     H_    0.469186 0.652492 0.281101 0.172316
H2    H     H_    0.490935 0.345160 0.718471 0.173141
H3    H     H_    0.500102 0.652391 0.718191 0.166807
H4    H     H_    0.510129 0.346674 0.282264 0.185530
H5    H     H_    0.772575 0.597912 0.582019 0.195530
H6    H     H_    0.226793 0.389600 0.426970 0.195100
H7    H     H_    0.074126 0.663041 0.631283 0.194430
H8    H     H_    0.924933 0.327015 0.375771 0.190099
H9    H     H_    0.566834 0.756326 0.596600 0.130363
H10   H     H_    0.432714 0.243648 0.403583 0.126382
H11   H     H_    0.433113 0.759444 0.403475 0.129435
H12   H     H_    0.566780 0.240476 0.596607 0.130225
H13   H     H_    0.394425 0.914580 0.345322 0.145167
H14   H     H_    0.605280 0.085377 0.654728 0.152000
H15   H     H_    0.605112 0.909546 0.654925 0.140151
H16   H     H_    0.393892 0.090433 0.345546 0.145412
N1    N     N_R   0.528918 0.435341 0.035490 -0.134473
N2    N     N_R   0.422369 0.557271 0.964936 -0.146617
N3    N     N_R   0.531285 0.435930 0.966504 -0.163297
N4    N     N_R   0.419921 0.556571 0.034062 -0.133142
N5    N     N_R   0.500000 0.750030 0.500000 -0.101829
N6    N     N_R   0.500000 0.249970 0.500000 -0.101054
O1    O     O_R   0.367850 0.580280 0.500020 -0.610593
O2    O     O_R   0.632150 0.419720 0.499980 -0.576090
O3    O     O_R   0.632150 0.580280 0.499980 -0.638135
O4    O     O_R   0.367850 0.419720 0.500020 -0.622564
O5    O     O_R   0.499990 0.580300 0.398140 -0.638646
O6    O     O_R   0.500010 0.419700 0.601860 -0.635386
O7    O     O_R   0.500010 0.580300 0.601860 -0.630726
O8    O     O_R   0.499990 0.419700 0.398140 -0.624034
Zn1   Zn    Zn3+2 0.500000 0.607200 0.500000 0.936329
Zn2   Zn    Zn3+2 0.500000 0.392800 0.500000 0.969425
O9    O     O_3   0.457262 0.670379 0.146322 -0.629789
C49   C     C_3   0.541312 0.709536 0.128153 0.106277
H17   H     H_    0.536908 0.735974 0.073572 0.182552
H18   H     H_    0.598093 0.656859 0.129185 0.121052
C50   C     C_3   0.561619 0.794129 0.175494 -0.369324
H19   H     H_    0.505832 0.847152 0.172862 0.237858
H20   H     H_    0.567669 0.768984 0.230232 0.213526
C51   C     C_3   0.648476 0.842666 0.153885 -0.939876
H21   H     H_    0.705442 0.791251 0.157104 0.264965
H22   H     H_    0.661426 0.903313 0.189325 0.271055
H23   H     H_    0.643501 0.870674 0.099765 0.268106
O10   O     O_3   0.479010 0.324849 0.854256 -0.632337
C52   C     C_3   0.557390 0.267764 0.846470 0.101309
H24   H     H_    0.586468 0.256747 0.899031 0.179296
H25   H     H_    0.610934 0.300440 0.813377 0.118671
C53   C     C_3   0.532935 0.170321 0.816701 -0.340811
H26   H     H_    0.481346 0.136473 0.850474 0.242321
H27   H     H_    0.504713 0.179924 0.763726 0.212301
C54   C     C_3   0.614609 0.104144 0.812359 -0.984077
H28   H     H_    0.666722 0.135991 0.778102 0.263097
H29   H     H_    0.595166 0.034277 0.790354 0.266751
H30   H     H_    0.642693 0.091626 0.865057 0.274157
O11   O     O_3   0.488470 0.671131 0.856288 -0.637078
C55   C     C_3   0.427394 0.741274 0.831094 0.107094
H31   H     H_    0.385833 0.765765 0.875923 0.170403
H32   H     H_    0.379430 0.714471 0.791643 0.126231
C56   C     C_3   0.478678 0.827307 0.802160 -0.357715
H33   H     H_    0.518116 0.859770 0.844580 0.235225
H34   H     H_    0.526065 0.803940 0.760669 0.211801
C57   C     C_3   0.415227 0.902745 0.772005 -0.966498
H35   H     H_    0.375805 0.871920 0.729061 0.267936
H36   H     H_    0.454154 0.963572 0.750778 0.273054
H37   H     H_    0.368990 0.929874 0.813106 0.270047
O12   O     O_3   0.490316 0.323255 0.149717 -0.628494
C58   C     C_3   0.403125 0.286304 0.142364 0.120287
H38   H     H_    0.403780 0.240809 0.095121 0.181619
H39   H     H_    0.351077 0.342826 0.133380 0.112994
C59   C     C_3   0.377790 0.224194 0.205551 -0.401961
H40   H     H_    0.432933 0.172570 0.216709 0.240079
H41   H     H_    0.367380 0.270100 0.251978 0.203777
C60   C     C_3   0.292158 0.168911 0.192802 -0.945824
H42   H     H_    0.235924 0.218917 0.181587 0.267211
H43   H     H_    0.274967 0.126319 0.239951 0.267570
H44   H     H_    0.301468 0.119408 0.148244 0.269724
O13   O     O_3   0.768211 0.396740 0.396953 -0.639465
C61   C     C_3   0.778085 0.442159 0.330897 0.048398
H45   H     H_    0.743925 0.396644 0.292308 0.190378
H46   H     H_    0.849072 0.445998 0.313815 0.123521
C62   C     C_3   0.735838 0.542837 0.328400 -0.367827
H47   H     H_    0.668717 0.541457 0.352693 0.236780
H48   H     H_    0.777585 0.593320 0.358141 0.206398
C63   C     C_3   0.727554 0.579578 0.253701 -0.942303
H49   H     H_    0.794440 0.582324 0.228253 0.264194
H50   H     H_    0.698026 0.652697 0.254042 0.267522
H51   H     H_    0.683353 0.532466 0.223235 0.268167
O14   O     O_3   0.229666 0.629466 0.586732 -0.641261
C64   C     C_3   0.229815 0.722167 0.556698 0.094899
H52   H     H_    0.160765 0.751733 0.552228 0.118107
H53   H     H_    0.260754 0.721396 0.503709 0.151477
C65   C     C_3   0.283762 0.788199 0.603029 -0.321814
H54   H     H_    0.256628 0.785417 0.657083 0.219629
H55   H     H_    0.354480 0.763149 0.604083 0.238361
C66   C     C_3   0.279871 0.891391 0.576828 -0.955976
H56   H     H_    0.301253 0.895494 0.521432 0.273023
H57   H     H_    0.325044 0.936160 0.608240 0.272629
H58   H     H_    0.210651 0.920287 0.581717 0.266365
O15   O     O_3   0.901866 0.676174 0.639249 -0.644176
C67   C     C_3   0.874754 0.763154 0.607179 0.064044
H59   H     H_    0.809919 0.784994 0.631241 0.168237
H60   H     H_    0.862319 0.756787 0.550090 0.126452
C68   C     C_3   0.943220 0.841467 0.620492 -0.362192
H61   H     H_    0.955430 0.846817 0.677363 0.239803
H62   H     H_    0.007398 0.823025 0.594081 0.204892
C69   C     C_3   0.910352 0.938197 0.593152 -0.926679
H63   H     H_    0.898960 0.934799 0.536113 0.266245
H64   H     H_    0.961439 0.993286 0.603302 0.268565
H65   H     H_    0.847069 0.959535 0.619805 0.264714
O16   O     O_3   0.097530 0.316146 0.366077 -0.642939
C70   C     C_3   0.127021 0.365539 0.305541 0.053964
H66   H     H_    0.193978 0.336315 0.291097 0.168518
H67   H     H_    0.135896 0.443986 0.313277 0.124077
C71   C     C_3   0.063117 0.348392 0.245138 -0.348158
H68   H     H_    0.059624 0.270449 0.234723 0.235402
H69   H     H_    0.995082 0.374691 0.259274 0.207730
C72   C     C_3   0.094029 0.400181 0.179141 -0.947088
H70   H     H_    0.094416 0.478631 0.187761 0.267084
H71   H     H_    0.047527 0.384706 0.135967 0.269873
H72   H     H_    0.162275 0.375914 0.163769 0.258943

loop_
_geom_bond_atom_site_label_1
_geom_bond_atom_site_label_2
_ccdc_geom_bond_type
C18   N6    A    
C66   H58   S    
C14   H8    S    
C9    C45   A    
C72   H70   S    
C11   C13   A    
N2    N4    A    
O15   C67   S    
C67   C68   S    
C59   H41   S    
C55   H32   S    
O9    C49   S    
C35   O9    S    
C7    C8    A    
C50   H19   S    
C25   C28   A    
C17   N5    A    
C64   H53   S    
C26   C27   A    
C52   H24   S    
C33   C42   A    
C32   C36   A    
C65   H55   S    
C5    C11   A    
C37   C40   A    
C43   N2    A    
C6    C12   A    
C38   C39   A    
C38   O12   S    
O8    Zn2   S    
C68   C69   S    
C58   H38   S    
C53   C54   S    
C18   C20   A    
C7    C9    A    
C45   C47   A    
C57   H35   S    
C60   H44   S    
C59   H40   S    
C30   O7    A    
C40   C43   S    
C29   O8    A    
C20   C24   A    
C45   O13   S    
C63   H49   S    
C58   H39   S    
C53   H27   S    
C10   C46   A    
C16   C22   A    
C68   H61   S    
C70   H67   S    
C69   H64   S    
C62   C63   S    
C4    H6    S    
C36   O10   S    
C50   H20   S    
C21   C27   A    
C52   H25   S    
O4    Zn2   S    
C15   H9    S    
C44   N1    A    
C34   C41   A    
C31   H1    S    
C2    O2    A    
O1    Zn1   S    
C55   H31   S    
O12   C58   S    
C71   H69   S    
O7    Zn1   S    
C15   N5    A    
C64   C65   S    
C46   C48   A    
C60   H42   S    
N6    Zn2   S    
C63   H51   S    
C36   C40   A    
C16   N6    A    
C65   H54   S    
C69   H65   S    
C4    C6    A    
C5    C7    A    
C25   H13   S    
C61   C62   S    
N1    N3    A    
C67   H60   S    
C33   C37   A    
C59   C60   S    
C19   C23   A    
C9    C14   A    
C43   N3    A    
C56   H34   S    
C71   C72   S    
C30   O6    A    
C70   H66   S    
C51   H23   S    
C23   C24   A    
C58   C59   S    
C53   H26   S    
O3    Zn1   S    
C70   C71   S    
C16   H10   S    
C67   H59   S    
C65   C66   S    
C57   H37   S    
C32   H2    S    
C69   H63   S    
C2    O3    A    
C27   H15   S    
C17   H11   S    
C28   H16   S    
C63   H50   S    
C54   H29   S    
C51   H22   S    
C72   H72   S    
C49   H18   S    
C21   C23   A    
O13   C61   S    
C56   C57   S    
C22   C24   A    
N5    Zn1   S    
C33   H3    S    
C1    O4    A    
C56   H33   S    
C37   O11   S    
C71   H68   S    
C4    C48   A    
C50   C51   S    
C18   H12   S    
C66   H57   S    
C61   H46   S    
C31   C41   A    
C29   C41   S    
C34   C38   A    
C8    C10   A    
O6    Zn2   S    
C12   C14   A    
O14   C64   S    
C3    C5    A    
C10   C13   A    
C6    C8    A    
C1    C48   S    
C39   C44   S    
C29   O5    A    
C2    C47   S    
C52   C53   S    
C49   C50   S    
C64   H52   S    
C34   H4    S    
C54   H28   S    
C62   H47   S    
O2    Zn2   S    
C3    H5    S    
C11   O15   S    
O16   C70   S    
C20   C26   A    
C1    O1    A    
C61   H45   S    
C35   C39   A    
C3    C47   A    
O10   C52   S    
C17   C19   A    
C31   C35   A    
C68   H62   S    
C26   H14   S    
C19   C25   A    
C57   H36   S    
C60   H43   S    
C44   N4    A    
C46   O14   S    
C62   H48   S    
C15   C21   A    
C54   H30   S    
C51   H21   S    
C72   H71   S    
C49   H17   S    
O11   C55   S    
C32   C42   A    
C30   C42   S    
C22   C28   A    
C12   O16   S    
O5    Zn1   S    
C55   C56   S    
C66   H56   S    
C13   H7    S    
