data_mof_unit_9341.cif
_audit_creation_date              2012-12-10T17:17:32-0500
_audit_creation_method            fapswitch 2.2
_symmetry_space_group_name_H-M    P1
_symmetry_Int_Tables_number       1
_space_group_crystal_system       triclinic
_cell_length_a                    10.216574
_cell_length_b                    10.806704
_cell_length_c                    12.274567
_cell_angle_alpha                 90.53785
_cell_angle_beta                  109.237703
_cell_angle_gamma                 95.944534
_cell_volume                      1271.28192761

loop_
_atom_site_label
_atom_site_type_symbol
_atom_type_description
_atom_site_fract_x
_atom_site_fract_y
_atom_site_fract_z
_atom_type_partial_charge
C1    C     C_R   0.049915 0.732248 0.489375 0.944881
C2    C     C_R   0.203409 0.511618 0.838461 -0.170240
C3    C     C_2   0.071938 0.863564 0.472161 -0.387384
C4    C     C_R   0.132743 0.507247 0.714131 0.890541
C5    C     C_2   0.966982 0.931199 0.462743 -0.143686
C6    C     C_2   0.909297 0.134262 0.494875 -0.375057
C7    C     C_2   0.988819 0.063682 0.459737 -0.155118
C8    C     C_2   0.433228 0.510742 0.509406 0.058436
C9    C     C_2   0.568914 0.486683 0.492202 -0.106559
C10   C     C_R   0.946230 0.267319 0.503873 0.928287
C11   C     C_R   0.865543 0.486808 0.286048 0.861179
C12   C     C_R   0.418275 0.493051 0.994129 0.004034
C13   C     C_R   0.719033 0.321685 0.996067 -0.190144
C14   C     C_R   0.786299 0.460812 0.164922 -0.066268
C15   C     C_R   0.162939 0.592578 0.908186 -0.326678
C16   C     C_R   0.244921 0.618276 0.024041 0.535966
C17   C     C_R   0.374068 0.572197 0.064882 -0.263576
C18   C     C_3   0.210345 0.335334 0.289145 0.222091
C19   C     C_3   0.244918 0.256017 0.201469 -0.922208
C20   C     C_3   0.074364 0.675568 0.093503 0.084220
C21   C     C_3   0.057012 0.748141 0.193498 -0.780643
C22   C     C_R   0.323710 0.451047 0.885076 0.075102
C23   C     C_R   0.553795 0.455197 0.027337 0.110976
C24   C     C_R   0.585587 0.361769 0.960830 0.170404
C25   C     C_R   0.483163 0.308478 0.861372 -0.246909
C26   C     C_R   0.353622 0.352560 0.823694 -0.173250
C27   C     C_R   0.659616 0.509526 0.124076 -0.256080
C28   C     C_R   0.818666 0.369488 0.099452 -0.225815
H1    H     H_    0.917009 0.330621 0.130854 0.134588
H2    H     H_    0.644370 0.586899 0.173041 0.149132
H3    H     H_    0.071918 0.640718 0.870514 0.159786
H4    H     H_    0.436080 0.597812 0.153417 0.159667
H5    H     H_    0.276777 0.308348 0.746205 0.169594
H6    H     H_    0.077823 0.103377 0.436516 0.196252
H7    H     H_    0.190663 0.428005 0.251776 0.147072
H8    H     H_    0.115798 0.288343 0.303080 0.168745
H9    H     H_    0.263576 0.161639 0.234010 0.269585
H10   H     H_    0.156617 0.247149 0.118587 0.213959
H11   H     H_    0.339803 0.300299 0.185750 0.269767
H12   H     H_    0.866505 0.890132 0.465889 0.190102
H13   H     H_    0.049015 0.574405 0.103830 0.137820
H14   H     H_    0.999278 0.705286 0.012454 0.145952
H15   H     H_    0.076244 0.849754 0.183401 0.250673
H16   H     H_    0.949498 0.726070 0.196038 0.193940
H17   H     H_    0.132948 0.722865 0.275757 0.268176
H18   H     H_    0.820708 0.094055 0.518249 0.155689
H19   H     H_    0.172138 0.905034 0.468936 0.158757
H20   H     H_    0.569167 0.412074 0.432554 0.215603
H21   H     H_    0.434935 0.587873 0.567277 0.089617
H22   H     H_    0.683379 0.624184 0.600880 0.156134
H23   H     H_    0.504023 0.234406 0.811387 0.152659
H24   H     H_    0.744042 0.249830 0.946418 0.138673
N1    N     N_2   0.313640 0.446500 0.454900 0.062156
N2    N     N_2   0.686360 0.553430 0.545150 -0.219552
O1    O     O_R   0.936910 0.692950 0.509080 -0.605787
O2    O     O_3   0.213163 0.702952 0.094658 -0.614598
O3    O     O_R   0.138320 0.658600 0.480130 -0.630140
O4    O     O_R   0.002900 0.525670 0.675280 -0.604997
O5    O     O_R   0.204310 0.491320 0.646330 -0.615362
O6    O     O_R   0.861680 0.341400 0.519870 -0.603155
O7    O     O_R   0.063090 0.307050 0.490920 -0.615308
O8    O     O_R   0.795690 0.508680 0.353670 -0.603351
O9    O     O_R   0.997100 0.474330 0.324720 -0.657866
O10   O     O_3   0.322838 0.345536 0.393311 -0.560436
Zn1   Zn    Zn3+2 0.865520 0.522940 0.519330 0.935302
Zn2   Zn    Zn3+2 0.134480 0.477060 0.480670 0.944653

loop_
_geom_bond_atom_site_label_1
_geom_bond_atom_site_label_2
_ccdc_geom_bond_type
C8    N1    D    
C6    C10   S    
C10   O6    A    
C23   C24   A    
C25   H23   S    
C13   C28   A    
C2    C22   A    
C6    C7    D    
C2    C15   A    
C19   H10   S    
C23   C27   A    
C14   C27   A    
C21   H16   S    
C6    H18   S    
C18   H7    S    
O4    Zn1   S    
C2    C4    S    
O3    Zn2   S    
C20   O2    S    
C11   O8    A    
C3    C5    D    
C16   O2    S    
C20   H13   S    
C1    O1    A    
O9    Zn2   S    
C20   H14   S    
N2    Zn1   S    
C24   C25   A    
C27   H2    S    
C15   H3    S    
N1    Zn2   S    
C12   C23   A    
C18   O10   S    
H22   N2    S    
C19   H11   S    
C21   H17   S    
O7    Zn2   S    
C4    O5    A    
C3    H19   S    
C28   H1    S    
O1    Zn1   S    
C7    H6    S    
O6    Zn1   S    
C1    O3    A    
O5    Zn2   S    
C11   C14   S    
C10   O7    A    
C15   C16   A    
C13   H24   S    
C12   C22   A    
C12   C17   A    
C20   C21   S    
C13   C24   A    
C9    H20   S    
C18   C19   S    
C22   C26   A    
C5    H12   S    
C4    O4    A    
C5    C7    S    
C17   H4    S    
N1    O10   S    
C16   C17   A    
C9    N2    D    
C19   H9    S    
O8    Zn1   S    
C14   C28   A    
C25   C26   A    
C21   H15   S    
C11   O9    A    
C18   H8    S    
C8    H21   S    
C26   H5    S    
C8    C9    S    
C1    C3    S    
