data_mof_unit_58863.cif
_audit_creation_date              2013-03-05T15:47:58-0500
_audit_creation_method            fapswitch 2.2
_symmetry_space_group_name_H-M    P1
_symmetry_Int_Tables_number       1
_space_group_crystal_system       triclinic
_cell_length_a                    26.809903
_cell_length_b                    7.074099
_cell_length_c                    11.979259
_cell_angle_alpha                 89.999709
_cell_angle_beta                  103.405843
_cell_angle_gamma                 89.995941
_cell_volume                      2210.03203511

loop_
_atom_site_label
_atom_site_type_symbol
_atom_site_description
_atom_site_fract_x
_atom_site_fract_y
_atom_site_fract_z
_atom_type_partial_charge
O1    O     O_R   0.437360 0.505910 0.042120 -0.604087
O2    O     O_R   0.562640 0.005910 0.957880 -0.604038
O3    O     O_R   0.542480 0.176660 0.157100 -0.569964
O4    O     O_R   0.457520 0.676660 0.842900 -0.569940
C1    C     C_R   0.556214 0.344510 0.198403 1.024508
C2    C     C_R   0.443783 0.844517 0.801601 1.024243
O5    O     O_R   0.436520 0.176250 0.054800 -0.581534
O6    O     O_R   0.563480 0.676250 0.945200 -0.581578
O7    O     O_R   0.455920 0.005040 0.854840 -0.604660
O8    O     O_R   0.544080 0.505040 0.145160 -0.604664
C3    C     C_R   0.417421 0.345065 0.063297 0.970559
C4    C     C_R   0.582578 0.845052 0.936700 0.970314
O9    O     O_3   0.506490 0.338900 0.934520 -0.278036
O10   O     O_3   0.493510 0.838900 0.065480 -0.278071
V1    V     V_3+5 0.498800 0.064400 0.012150 1.224518
V2    V     V_3+5 0.501200 0.564400 0.987850 1.224519
C5    C     C_R   0.681042 0.915592 0.762540 -0.189249
C6    C     C_R   0.318957 0.416209 0.237393 -0.189332
H1    H     H_    0.599054 0.917655 0.726295 0.183959
H2    H     H_    0.400944 0.418325 0.273625 0.183867
H3    H     H_    0.774478 0.946451 0.726475 0.149031
H4    H     H_    0.225521 0.447316 0.273430 0.149043
H5    H     H_    0.681593 0.946231 0.674158 0.142291
H6    H     H_    0.318406 0.447142 0.325738 0.142301
C7    C     C_R   0.632028 0.856014 0.904590 -0.106335
C8    C     C_R   0.367972 0.356084 0.095409 -0.106381
C9    C     C_R   0.868246 0.826629 0.210567 -0.188602
C10   C     C_R   0.131753 0.326244 0.789462 -0.188596
C11   C     C_R   0.822511 0.808337 0.245281 -0.078093
C12   C     C_R   0.177489 0.307803 0.754765 -0.078087
C13   C     C_R   0.775654 0.818718 0.165372 -0.188663
C14   C     C_R   0.224345 0.318330 0.834664 -0.188658
C15   C     C_R   0.773374 0.849207 0.047325 0.085448
C16   C     C_R   0.226625 0.349126 0.952682 0.085446
C17   C     C_R   0.820532 0.870840 0.012594 0.100569
C18   C     C_R   0.179467 0.370942 0.987390 0.100561
C19   C     C_R   0.725985 0.860187 0.962816 0.089980
C20   C     C_R   0.274014 0.360243 0.037182 0.089998
C21   C     C_R   0.726936 0.897515 0.846600 0.181353
C22   C     C_R   0.273063 0.397934 0.153357 0.181350
C23   C     C_R   0.773574 0.918436 0.814982 -0.238137
C24   C     C_R   0.226425 0.419031 0.184953 -0.238122
C25   C     C_R   0.819628 0.904351 0.896303 -0.233774
C26   C     C_R   0.180371 0.404780 0.103648 -0.233783
C27   C     C_R   0.677512 0.836811 0.989314 -0.267556
C28   C     C_R   0.322488 0.336669 0.010712 -0.267664
C29   C     C_R   0.633952 0.897721 0.791747 -0.134756
C30   C     C_R   0.366047 0.398189 0.208202 -0.134538
C31   C     C_R   0.867814 0.857941 0.095178 -0.161149
C32   C     C_R   0.132184 0.357879 0.904820 -0.161176
H7    H     H_    0.673571 0.806243 0.074968 0.108309
H8    H     H_    0.326428 0.305812 0.925092 0.108341
H9    H     H_    0.904245 0.815738 0.273996 0.104642
H10   H     H_    0.095753 0.315211 0.726046 0.104656
H11   H     H_    0.742014 0.803122 0.199183 0.120850
H12   H     H_    0.257987 0.302604 0.800867 0.120857
H13   H     H_    0.823338 0.784752 0.335016 0.131402
H14   H     H_    0.176662 0.283977 0.665053 0.131419
H15   H     H_    0.854665 0.921675 0.867098 0.141179
H16   H     H_    0.145334 0.422249 0.132836 0.141212
C33   C     C_R   0.091807 0.859874 0.310865 -0.084974
C34   C     C_R   0.908191 0.359923 0.689133 -0.084975
C35   C     C_R   0.410078 0.852198 0.686068 -0.272165
C36   C     C_R   0.589911 0.352151 0.313952 -0.272348
C37   C     C_R   0.106106 0.839734 0.516839 -0.178256
C38   C     C_R   0.893892 0.340407 0.483137 -0.178271
C39   C     C_R   0.072552 0.845730 0.409138 -0.178813
C40   C     C_R   0.927447 0.346245 0.590840 -0.178817
C41   C     C_R   0.144755 0.868443 0.320072 -0.251370
C42   C     C_R   0.855240 0.368194 0.679943 -0.251336
C43   C     C_R   0.179868 0.863111 0.428584 0.104766
C44   C     C_R   0.820126 0.363071 0.571430 0.104769
C45   C     C_R   0.159343 0.847967 0.527397 0.175014
C46   C     C_R   0.840653 0.348376 0.472595 0.175018
C47   C     C_R   0.234362 0.871001 0.442254 0.050359
C48   C     C_R   0.765631 0.370769 0.557771 0.050363
C49   C     C_R   0.267344 0.861837 0.554889 0.073114
C50   C     C_R   0.732648 0.361868 0.445129 0.073100
C51   C     C_R   0.244693 0.846965 0.650052 -0.214441
C52   C     C_R   0.755301 0.347419 0.349947 -0.214442
C53   C     C_R   0.191916 0.840431 0.636216 -0.241302
C54   C     C_R   0.808079 0.341068 0.363771 -0.241271
C55   C     C_R   0.256979 0.887049 0.347156 -0.216316
C56   C     C_R   0.743012 0.386410 0.652891 -0.216281
C57   C     C_R   0.309757 0.889256 0.360870 -0.194892
C58   C     C_R   0.690234 0.388496 0.639184 -0.194877
C59   C     C_R   0.342362 0.876636 0.469542 0.097150
C60   C     C_R   0.657630 0.376140 0.530500 0.097112
C61   C     C_R   0.321888 0.865410 0.568335 0.129570
C62   C     C_R   0.678102 0.365291 0.431691 0.129583
C63   C     C_R   0.395535 0.873208 0.479435 -0.234893
C64   C     C_R   0.604458 0.372603 0.520610 -0.234828
C65   C     C_R   0.429788 0.856788 0.586697 0.388788
C66   C     C_R   0.570200 0.356433 0.413338 0.388733
C67   C     C_R   0.357021 0.857008 0.676536 -0.296366
C68   C     C_R   0.642967 0.357089 0.323487 -0.296367
H17   H     H_    0.176421 0.828650 0.711913 0.150989
H18   H     H_    0.823576 0.329634 0.288057 0.150984
H19   H     H_    0.344677 0.853352 0.755884 0.121268
H20   H     H_    0.655313 0.353650 0.244135 0.121261
H21   H     H_    0.325231 0.899590 0.285073 0.150708
H22   H     H_    0.674758 0.398526 0.714994 0.150686
H23   H     H_    0.090408 0.828427 0.592221 0.122352
H24   H     H_    0.909591 0.329461 0.407739 0.122359
H25   H     H_    0.031575 0.839432 0.402352 0.103623
H26   H     H_    0.968427 0.340197 0.597611 0.103617
H27   H     H_    0.156917 0.878686 0.240689 0.111683
H28   H     H_    0.843078 0.378100 0.759342 0.111677
H29   H     H_    0.266587 0.838857 0.737359 0.138218
H30   H     H_    0.733408 0.339543 0.262631 0.138208
H31   H     H_    0.235057 0.897312 0.259952 0.143936
H32   H     H_    0.764933 0.396445 0.740103 0.143937
H33   H     H_    0.410423 0.878318 0.402691 0.183717
H34   H     H_    0.589577 0.377446 0.597368 0.183755
O11   O     O_R   0.955980 0.206520 0.854760 -0.593682
O12   O     O_R   0.044020 0.706520 0.145240 -0.593697
O13   O     O_R   0.063490 0.536770 0.945200 -0.595110
O14   O     O_R   0.936510 0.036770 0.054800 -0.595090
C69   C     C_R   0.082734 0.368202 0.937525 0.915182
C70   C     C_R   0.917265 0.868215 0.062473 0.915177
O15   O     O_R   0.957530 0.536190 0.842880 -0.593650
O16   O     O_R   0.042470 0.036190 0.157120 -0.593643
O17   O     O_R   0.937350 0.707210 0.042130 -0.588866
O18   O     O_R   0.062650 0.207210 0.957870 -0.588854
C71   C     C_R   0.943176 0.367775 0.802540 0.922367
C72   C     C_R   0.056824 0.867767 0.197458 0.922380
O19   O     O_3   0.993540 0.373870 0.065440 -0.280546
O20   O     O_3   0.006460 0.873870 0.934560 -0.280548
V3    V     V_3+5 0.001200 0.648440 0.987860 1.162028
V4    V     V_3+5 0.998800 0.148440 0.012140 1.162051
N1    N     N_R   0.483948 0.843085 0.592809 0.229676
O21   O     O_R   0.512979 0.735551 0.669188 -0.433379
O22   O     O_R   0.503189 0.916746 0.512494 -0.359301
N2    N     N_R   0.516039 0.342699 0.407243 0.229927
O23   O     O_R   0.486961 0.235894 0.330517 -0.433701
O24   O     O_R   0.496833 0.415575 0.487839 -0.359034

loop_
_geom_bond_atom_site_label_1
_geom_bond_atom_site_label_2
_geom_bond_distance
_ccdc_geom_bond_type
C38   C40   1.391923 A    
O16   C72   1.309516 A    
C59   C63   1.403050 A    
C61   C67   1.415868 A    
C9    C11   1.389096 A    
C23   C25   1.387683 A    
O1    C3    1.306802 A    
C44   C48   1.432972 A    
O2    C4    1.306822 A    
O20   V3    1.735641 S    
C48   C56   1.413779 A    
C2    O7    1.306112 A    
C41   H27   1.076870 S    
C18   C32   1.418612 A    
O8    V2    2.011093 S    
C21   C23   1.395858 A    
C69   O18   1.306631 A    
C50   C62   1.433812 A    
O5    C3    1.312543 A    
C49   C61   1.433790 A    
C56   H32   1.075734 S    
C40   H26   1.083571 S    
C68   H20   1.076864 S    
C6    H6    1.084149 S    
C48   C50   1.432974 A    
C56   C58   1.386222 A    
O13   C69   1.310924 A    
C58   C60   1.392511 A    
C31   C70   1.468784 S    
C27   H7    1.077507 S    
C38   C46   1.404574 A    
C35   C67   1.400790 A    
C37   C45   1.404572 A    
C34   C42   1.399411 A    
C5    C21   1.403458 A    
C41   C43   1.417703 A    
C6    C22   1.403461 A    
C66   N2    1.440174 S    
C10   C32   1.397301 A    
O12   V3    2.009363 S    
C60   C64   1.403037 A    
C37   C39   1.391925 A    
C17   C31   1.418603 A    
C13   C15   1.417704 A    
C33   C72   1.462038 S    
C12   C14   1.393644 A    
C17   C25   1.407766 A    
C7    C29   1.396191 A    
C16   C18   1.427899 A    
C70   O17   1.306649 A    
C8    C30   1.396200 A    
O13   V3    2.017325 S    
C22   C24   1.395850 A    
O6    V2    2.017626 S    
O12   C72   1.307960 A    
O17   V3    2.010405 S    
C54   H18   1.084679 S    
C24   C26   1.387690 A    
C46   C54   1.391724 A    
C45   C53   1.391730 A    
C49   C51   1.414366 A    
C43   C47   1.432999 A    
C51   H29   1.075652 S    
C57   C59   1.392523 A    
C32   C69   1.468782 S    
C38   H24   1.084076 S    
C36   C68   1.400803 A    
C44   C46   1.420395 A    
C51   C53   1.386680 A    
C10   H10   1.083851 S    
C39   H25   1.083547 S    
N2    O24   1.301363 A    
C3    C8    1.465633 S    
O3    C1    1.306083 A    
C15   C19   1.431304 A    
C63   H33   1.084411 S    
C1    C36   1.468070 S    
C6    C30   1.391789 A    
C14   C16   1.417698 A    
C2    C35   1.468015 S    
O4    V2    2.018432 S    
O19   V3    2.183362 S    
O15   C71   1.309523 A    
O14   V4    2.017416 S    
C63   C65   1.400230 A    
C33   C39   1.394344 A    
O6    C4    1.312521 A    
C64   C66   1.400256 A    
C50   C52   1.414383 A    
O18   V4    2.010454 S    
O1    V2    2.009799 S    
C5    H5    1.084157 S    
O2    V1    2.009751 S    
C47   C49   1.432966 A    
H2    C30   1.081604 S    
H3    C23   1.084391 S    
C52   C54   1.386692 A    
C55   C57   1.386232 A    
C60   C62   1.417530 A    
C59   C61   1.417542 A    
C55   H31   1.075752 S    
C18   C26   1.407764 A    
O4    C2    1.306079 A    
C37   H23   1.084069 S    
C19   C27   1.417141 A    
N1    O21   1.300504 A    
C58   H22   1.084722 S    
C7    C27   1.400565 A    
C57   H21   1.084692 S    
C43   C45   1.420377 A    
C11   H13   1.082967 S    
C33   C41   1.399400 A    
C16   C20   1.431314 A    
C5    C29   1.391794 A    
O15   V3    2.018634 S    
N1    O22   1.301342 A    
O20   V4    2.183344 S    
C34   C71   1.462049 S    
C9    H9    1.083843 S    
C62   C68   1.415867 A    
N2    O23   1.300476 A    
C25   H15   1.082654 S    
C35   C65   1.410311 A    
O11   C71   1.307975 A    
C34   C40   1.394335 A    
C4    C7    1.465627 S    
H1    C29   1.081591 S    
C10   C12   1.389093 A    
O7    V1    2.011131 S    
O19   V4    1.735629 S    
C36   C66   1.410445 A    
C1    O8    1.306125 A    
C11   C13   1.393636 A    
C42   H28   1.076902 S    
C28   H8    1.077513 S    
C20   C22   1.423023 A    
C47   C55   1.413735 A    
H4    C24   1.084390 S    
C53   H17   1.084659 S    
C26   H16   1.082652 S    
C12   H14   1.082957 S    
O5    V1    2.017535 S    
C15   C17   1.427901 A    
C14   H12   1.076587 S    
C67   H19   1.076832 S    
O14   C70   1.310910 A    
C20   C28   1.417142 A    
C8    C28   1.400572 A    
C19   C21   1.423030 A    
O9    V2    1.736356 S    
C52   H30   1.075649 S    
O10   V1    1.736368 S    
O3    V1    2.018503 S    
C42   C44   1.417706 A    
C13   H11   1.076590 S    
C65   N1    1.440069 S    
C64   H34   1.084403 S    
O16   V4    2.018562 S    
C9    C31   1.397299 A    
O11   V4    2.009325 S    
