data_mof_unit_66859.cif
_audit_creation_date              2013-03-05T15:57:21-0500
_audit_creation_method            fapswitch 2.2
_symmetry_space_group_name_H-M    P1
_symmetry_Int_Tables_number       1
_space_group_crystal_system       triclinic
_cell_length_a                    17.136994
_cell_length_b                    18.337842
_cell_length_c                    8.410116
_cell_angle_alpha                 89.999986
_cell_angle_beta                  101.740175
_cell_angle_gamma                 90.100636
_cell_volume                      2587.63195331

loop_
_atom_site_label
_atom_site_type_symbol
_atom_site_description
_atom_site_fract_x
_atom_site_fract_y
_atom_site_fract_z
_atom_type_partial_charge
P1    P     P_3+3 0.834140 0.419320 0.003900 0.457683
P2    P     P_3+3 0.834140 0.580680 0.503900 0.460175
P3    P     P_3+3 0.334140 0.919320 0.003900 0.465301
P4    P     P_3+3 0.334140 0.080680 0.503900 0.463668
O1    O     O_2   0.841960 0.394640 0.833410 -0.374966
O2    O     O_2   0.841960 0.605360 0.333410 -0.371642
O3    O     O_2   0.341960 0.894640 0.833410 -0.377802
O4    O     O_2   0.341960 0.105360 0.333410 -0.367037
O5    O     O_3   0.907950 0.463080 0.102990 -0.379604
O6    O     O_3   0.907950 0.536920 0.602990 -0.384935
O7    O     O_3   0.407950 0.963080 0.102990 -0.377359
O8    O     O_3   0.407950 0.036920 0.602990 -0.387100
O9    O     O_3   0.972780 0.329600 0.629720 -0.410787
O10   O     O_3   0.972780 0.670400 0.129720 -0.372900
O11   O     O_3   0.472780 0.829600 0.629720 -0.413457
O12   O     O_3   0.472780 0.170400 0.129720 -0.409710
O13   O     O_2   0.840639 0.271153 0.691163 -0.375971
O14   O     O_2   0.842916 0.728881 0.198249 -0.394892
O15   O     O_2   0.337802 0.774627 0.687858 -0.373450
O16   O     O_2   0.340056 0.227973 0.191220 -0.379818
O17   O     O_3   0.751279 0.477021 0.969551 -0.581079
O18   O     O_3   0.751046 0.522972 0.468226 -0.573691
O19   O     O_3   0.251318 0.976988 0.969695 -0.570231
O20   O     O_3   0.250274 0.024177 0.466481 -0.570739
O21   O     O_3   0.944937 0.177704 0.631299 -0.538380
O22   O     O_3   0.950042 0.819276 0.137005 -0.518527
O23   O     O_3   0.440051 0.678228 0.637893 -0.531993
O24   O     O_3   0.443349 0.322371 0.133847 -0.515445
H1    H     H_    0.060780 0.216991 0.685536 0.140970
H2    H     H_    0.013696 0.794831 0.955305 0.046760
H3    H     H_    0.558064 0.711031 0.696437 0.128123
H4    H     H_    0.562234 0.297578 0.213885 0.137261
C1    C     C_3   0.058349 0.103621 0.624559 -0.884153
C2    C     C_3   0.054373 0.893905 0.075472 -0.853359
C3    C     C_3   0.547359 0.598005 0.628737 -0.925416
C4    C     C_3   0.547240 0.400896 0.089022 -0.968005
H5    H     H_    0.609772 0.594741 0.611105 0.235791
H6    H     H_    0.610036 0.402719 0.073894 0.233162
H7    H     H_    0.121722 0.105122 0.612914 0.229834
H8    H     H_    0.102470 0.863377 0.156241 0.237356
H9    H     H_    0.053609 0.083388 0.746232 0.264581
H10   H     H_    0.032903 0.939190 0.143138 0.281517
H11   H     H_    0.543473 0.577967 0.751262 0.254290
H12   H     H_    0.540944 0.433013 0.197232 0.285570
P5    P     P_3+3 0.165830 0.418670 0.685610 0.495309
P6    P     P_3+3 0.165830 0.581330 0.185610 0.491537
P7    P     P_3+3 0.665830 0.918670 0.685610 0.493052
P8    P     P_3+3 0.665830 0.081330 0.185610 0.491802
P9    P     P_3+3 0.099101 0.260789 0.108130 0.496489
P10   P     P_3+3 0.100565 0.738293 0.607865 0.511134
P11   P     P_3+3 0.599777 0.761309 0.107362 0.488895
P12   P     P_3+3 0.601612 0.237338 0.607077 0.492209
O25   O     O_2   0.157990 0.394030 0.856030 -0.378244
O26   O     O_2   0.157990 0.605970 0.356030 -0.366665
O27   O     O_2   0.657990 0.894030 0.856030 -0.377284
O28   O     O_2   0.657990 0.105970 0.356030 -0.360545
O29   O     O_3   0.027110 0.329490 0.059550 -0.326032
O30   O     O_3   0.027110 0.670510 0.559550 -0.324830
O31   O     O_3   0.527110 0.829490 0.059550 -0.327422
O32   O     O_3   0.527110 0.170510 0.559550 -0.309290
O33   O     O_2   0.156980 0.268550 0.990123 -0.388975
O34   O     O_2   0.160686 0.726936 0.496090 -0.372625
O35   O     O_2   0.657404 0.769561 0.989102 -0.391379
O36   O     O_2   0.661528 0.225907 0.494976 -0.377104
O37   O     O_3   0.248947 0.476312 0.720997 -0.554540
O38   O     O_3   0.249785 0.524843 0.221527 -0.591227
O39   O     O_3   0.749764 0.975316 0.720687 -0.590182
O40   O     O_3   0.750517 0.025840 0.227553 -0.585115
O41   O     O_3   0.052858 0.176215 0.059737 -0.533344
O42   O     O_3   0.058532 0.823432 0.549453 -0.522331
O43   O     O_3   0.554297 0.676665 0.057250 -0.531304
O44   O     O_3   0.559045 0.321821 0.546674 -0.562558
C5    C     C_3   0.973116 0.181102 0.077230 0.349233
C6    C     C_3   0.978152 0.822803 0.562551 0.469566
C7    C     C_3   0.475922 0.679544 0.083463 0.405659
C8    C     C_3   0.488048 0.329073 0.604298 0.266617
H13   H     H_    0.937694 0.210301 0.970869 0.099964
H14   H     H_    0.942348 0.792295 0.458703 0.090547
H15   H     H_    0.437322 0.708559 0.980653 0.073903
H16   H     H_    0.437918 0.305111 0.514294 0.117922
H17   H     H_    0.967276 0.210270 0.190177 0.020861
H18   H     H_    0.969370 0.797193 0.677225 -0.032732
H19   H     H_    0.472277 0.707614 0.199027 0.017895
H20   H     H_    0.490508 0.302256 0.723787 0.052691
C9    C     C_3   0.938711 0.104601 0.082887 -0.017625
C10   C     C_3   0.947870 0.900987 0.557414 -0.064610
C11   C     C_3   0.444492 0.602264 0.091484 -0.006724
C12   C     C_3   0.472983 0.410003 0.624958 -0.083342
H21   H     H_    0.379277 0.604938 0.089700 0.074845
H22   H     H_    0.467098 0.438471 0.506621 0.135046
H23   H     H_    0.872436 0.107516 0.058687 0.077527
H24   H     H_    0.882512 0.900006 0.553709 0.076510
H25   H     H_    0.956637 0.070220 0.987803 0.171893
H26   H     H_    0.959956 0.928489 0.447294 0.178748
H27   H     H_    0.454565 0.570734 0.984923 0.165147
H28   H     H_    0.524946 0.434142 0.709113 0.177153
C13   C     C_3   0.229256 0.454836 0.264726 0.396413
C14   C     C_3   0.228655 0.545189 0.771138 0.408475
C15   C     C_3   0.730492 0.952780 0.247013 0.404411
C16   C     C_3   0.730173 0.044943 0.767755 0.390642
H29   H     H_    0.220853 0.455867 0.391642 0.112092
H30   H     H_    0.227041 0.542716 0.901763 0.097449
H31   H     H_    0.734747 0.941786 0.378010 0.083293
H32   H     H_    0.730643 0.044491 0.899506 0.092879
H33   H     H_    0.175101 0.433497 0.182250 0.172958
H34   H     H_    0.171060 0.565263 0.699840 0.166705
H35   H     H_    0.670786 0.936681 0.178316 0.179575
H36   H     H_    0.671910 0.064556 0.698633 0.179684
C17   C     C_3   0.297134 0.403586 0.252004 -0.934887
C18   C     C_3   0.292174 0.599215 0.745487 -0.897880
C19   C     C_3   0.790024 0.905813 0.183999 -0.939097
C20   C     C_3   0.792694 0.097975 0.733732 -0.927679
H37   H     H_    0.354628 0.427556 0.313394 0.249052
H38   H     H_    0.351778 0.573620 0.774357 0.280080
H39   H     H_    0.850087 0.913188 0.258750 0.249849
H40   H     H_    0.852951 0.074372 0.771107 0.246545
H41   H     H_    0.288913 0.350483 0.309207 0.227989
H42   H     H_    0.291600 0.648055 0.822899 0.204689
H43   H     H_    0.772333 0.847938 0.186174 0.256890
H44   H     H_    0.789286 0.149877 0.799183 0.227442
H45   H     H_    0.299142 0.394936 0.122494 0.284250
H46   H     H_    0.280923 0.616224 0.616752 0.275035
H47   H     H_    0.792423 0.922462 0.058515 0.268938
H48   H     H_    0.782729 0.108723 0.602145 0.279786
Ba1   Ba    Ba6+2 1.000000 0.447380 0.844850 1.574688
Ba2   Ba    Ba6+2 1.000000 0.552620 0.344850 1.583823
Ba3   Ba    Ba6+2 0.500000 0.947380 0.844850 1.572113
Ba4   Ba    Ba6+2 0.500000 0.052620 0.344850 1.576142
C21   C     C_3   0.769942 0.543580 0.905066 0.367997
C22   C     C_3   0.770863 0.455283 0.411078 0.377399
C23   C     C_3   0.269628 0.043401 0.903918 0.378682
C24   C     C_3   0.270132 0.954624 0.419999 0.342974
H49   H     H_    0.761358 0.537719 0.771924 0.106906
H50   H     H_    0.771537 0.460398 0.280520 0.111965
H51   H     H_    0.257659 0.038054 0.770215 0.104010
H52   H     H_    0.272599 0.955662 0.289704 0.108736
H53   H     H_    0.831558 0.562259 0.956307 0.118040
H54   H     H_    0.829047 0.434368 0.478592 0.121415
H55   H     H_    0.332168 0.061138 0.949248 0.112128
H56   H     H_    0.327196 0.934029 0.493209 0.130222
C25   C     C_3   0.713097 0.601346 0.943937 -0.870498
C26   C     C_3   0.707276 0.400497 0.432841 -0.869686
C27   C     C_3   0.215494 0.101746 0.950226 -0.868059
C28   C     C_3   0.204937 0.902801 0.445774 -0.813479
H57   H     H_    0.654036 0.577065 0.945815 0.279002
H58   H     H_    0.647460 0.426087 0.403794 0.272965
H59   H     H_    0.155861 0.078700 0.952668 0.279234
H60   H     H_    0.145588 0.926147 0.393262 0.273681
H61   H     H_    0.705887 0.645681 0.852441 0.221269
H62   H     H_    0.708113 0.352636 0.352455 0.221019
H63   H     H_    0.209320 0.147749 0.862906 0.218913
H64   H     H_    0.211830 0.849393 0.388741 0.224905
H65   H     H_    0.736760 0.624899 0.065208 0.274841
H66   H     H_    0.718208 0.381962 0.560975 0.267877
H67   H     H_    0.240796 0.122603 0.073181 0.275978
H68   H     H_    0.208428 0.895111 0.577506 0.265101
O45   O     O_3   0.092100 0.536880 0.086720 -0.355835
O46   O     O_3   0.092100 0.463120 0.586720 -0.351876
O47   O     O_3   0.592100 0.036880 0.086720 -0.356061
O48   O     O_3   0.592100 0.963120 0.586720 -0.342784
P13   P     P_3+3 0.900018 0.737431 0.079111 0.436989
P14   P     P_3+3 0.900034 0.262105 0.576805 0.425630
P15   P     P_3+3 0.399650 0.237556 0.077490 0.446501
P16   P     P_3+3 0.398545 0.763186 0.577452 0.427926
C29   C     C_3   0.022371 0.179376 0.599482 0.379393
C30   C     C_3   0.986845 0.841400 0.010260 0.388187
C31   C     C_3   0.517653 0.675975 0.607791 0.445804
C32   C     C_3   0.521801 0.322484 0.107711 0.467509
H69   H     H_    0.021985 0.196418 0.472426 0.044348
H70   H     H_    0.941974 0.869396 0.916408 0.107384
H71   H     H_    0.519312 0.693580 0.481957 0.043184
H72   H     H_    0.527844 0.292352 0.996250 0.003678
H73   H     H_    0.509212 0.562479 0.538838 0.278171
H74   H     H_    0.508468 0.425996 0.981697 0.290027
H75   H     H_    0.025895 0.065011 0.533721 0.290703
H76   H     H_    0.079314 0.916870 0.974319 0.267905
C33   C     C_R   0.136742 0.677870 0.919798 0.105517
C34   C     C_R   0.137782 0.322789 0.418676 0.087117
C35   C     C_R   0.637513 0.177476 0.919340 0.098722
C36   C     C_R   0.638281 0.823053 0.418266 0.089128
C37   C     C_R   0.861072 0.323954 0.266439 -0.528521
C38   C     C_R   0.861140 0.676568 0.766254 -0.496782
C39   C     C_R   0.360652 0.824136 0.266745 -0.534386
C40   C     C_R   0.361970 0.177300 0.764931 -0.522250
C41   C     C_R   0.791902 0.211882 0.297224 -0.172741
C42   C     C_R   0.790169 0.787009 0.799458 -0.178167
C43   C     C_R   0.291678 0.711850 0.297444 -0.155008
C44   C     C_R   0.290921 0.287793 0.798571 -0.094729
C45   C     C_R   0.847399 0.265450 0.362233 0.215524
C46   C     C_R   0.846372 0.734047 0.863829 0.165560
C47   C     C_R   0.347125 0.765514 0.362271 0.205511
C48   C     C_R   0.347348 0.234907 0.862259 0.206739
C49   C     C_R   0.816382 0.333438 0.109607 0.293962
C50   C     C_R   0.816265 0.666754 0.609516 0.287873
C51   C     C_R   0.316175 0.833481 0.109758 0.299086
C52   C     C_R   0.316601 0.167090 0.608877 0.297467
C53   C     C_R   0.756113 0.281268 0.045034 -0.069469
C54   C     C_R   0.755911 0.718771 0.544992 -0.076776
C55   C     C_R   0.255846 0.781315 0.045311 -0.073981
C56   C     C_R   0.255957 0.218916 0.544841 -0.077941
C57   C     C_R   0.243481 0.719275 0.140687 -0.130909
C58   C     C_R   0.243420 0.280770 0.640768 -0.150186
C59   C     C_R   0.743742 0.219271 0.140528 -0.130466
C60   C     C_R   0.743127 0.780414 0.641179 -0.115519
C61   C     C_R   0.182289 0.667572 0.077329 0.166320
C62   C     C_R   0.182712 0.332676 0.576887 0.141312
C63   C     C_R   0.682667 0.167484 0.077255 0.145146
C64   C     C_R   0.682657 0.832554 0.577030 0.157111
C65   C     C_R   0.152758 0.735320 0.823087 0.159115
C66   C     C_R   0.153205 0.265040 0.322172 0.170340
C67   C     C_R   0.653512 0.234883 0.822512 0.160017
C68   C     C_R   0.653898 0.765443 0.321538 0.151228
C69   C     C_R   0.208634 0.788450 0.887854 -0.262213
C70   C     C_R   0.208573 0.211641 0.387337 -0.263982
C71   C     C_R   0.709073 0.288263 0.887293 -0.294739
C72   C     C_R   0.709082 0.711908 0.386815 -0.260332
H77   H     H_    0.286076 0.665517 0.372416 0.178991
H78   H     H_    0.284329 0.333333 0.875175 0.181952
H79   H     H_    0.786401 0.165458 0.371645 0.177619
H80   H     H_    0.783440 0.832329 0.875785 0.176380
H81   H     H_    0.715259 0.334292 0.811779 0.199492
H82   H     H_    0.714926 0.665664 0.311575 0.206439
H83   H     H_    0.214974 0.834447 0.812613 0.200404
H84   H     H_    0.214259 0.165253 0.312439 0.205382
H85   H     H_    0.903890 0.365010 0.318080 0.164553
H86   H     H_    0.904970 0.636324 0.816519 0.161134
H87   H     H_    0.403040 0.865484 0.318925 0.165769
H88   H     H_    0.405834 0.137093 0.815203 0.164626
O49   O     O_3   0.485170 0.567753 0.232512 -0.716337
H89   H     H_    0.446613 0.532942 0.265646 0.331693
O50   O     O_3   0.404785 0.420398 0.689777 -0.719644
H90   H     H_    0.358661 0.406770 0.603189 0.341814
O51   O     O_3   0.967554 0.072312 0.233996 -0.718849
H91   H     H_    0.929456 0.085367 0.303946 0.333944
O52   O     O_3   0.987398 0.939243 0.694053 -0.733423
H92   H     H_    0.954650 0.983149 0.702464 0.337023
O53   O     O_3   0.079462 0.628471 0.853118 -0.719491
H93   H     H_    0.036067 0.634910 0.912671 0.338173
O54   O     O_3   0.081265 0.372650 0.351857 -0.711316
H94   H     H_    0.036414 0.364592 0.407007 0.334846
O55   O     O_3   0.580281 0.128019 0.852776 -0.715130
H95   H     H_    0.536676 0.134852 0.911667 0.336714
O56   O     O_3   0.581962 0.873092 0.351449 -0.708797
H96   H     H_    0.536565 0.864445 0.404785 0.333957

loop_
_geom_bond_atom_site_label_1
_geom_bond_atom_site_label_2
_geom_bond_distance
_ccdc_geom_bond_type
C24   C28   1.514325 S    
P6    C61   1.874277 S    
C15   H31   1.107730 S    
C12   H28   1.109950 S    
C4    H74   1.106823 S    
P5    C62   1.875042 S    
C14   C18   1.518133 S    
C26   H58   1.109253 S    
C13   H33   1.110086 S    
P3    O19   1.747748 S    
O54   H94   0.986103 S    
C2    H10   1.111362 S    
P3    O7    1.582981 S    
C4    C32   1.519205 S    
C28   H60   1.109723 S    
O24   P15   1.748141 S    
C7    H19   1.112784 S    
C3    H11   1.108660 S    
C18   H42   1.108486 S    
C9    H23   1.113717 S    
C54   C60   1.432903 A    
C25   H61   1.109071 S    
O9    P14   1.747261 S    
O8    Ba3   2.832882 S    
C22   H50   1.104402 S    
C20   H44   1.107049 S    
P1    O17   1.748652 S    
O26   Ba2   2.860675 S    
C1    H7    1.110388 S    
P7    C64   1.876061 S    
C9    O51   1.398341 S    
O38   C13   1.397955 S    
C33   O53   1.368023 S    
C3    H5    1.111015 S    
P1    Ba1   3.416871 S    
O37   C14   1.398314 S    
C20   H48   1.102691 S    
P3    O3    1.535283 D    
O29   Ba1   2.794987 S    
P4    O20   1.746107 S    
O14   P13   1.544204 D    
P3    Ba3   3.416871 S    
Ba2   O45   2.946722 S    
C20   H40   1.105416 S    
C21   C25   1.520247 S    
C67   C71   1.395430 A    
O31   Ba3   2.794987 S    
O56   H96   0.986496 S    
C35   C67   1.391552 A    
C16   H32   1.106464 S    
P9    O29   1.753985 S    
C34   C66   1.392219 A    
C19   H43   1.104412 S    
O55   H95   0.985063 S    
C14   H34   1.108893 S    
C33   C65   1.391611 A    
C36   C68   1.392501 A    
C40   C52   1.395087 A    
P12   O32   1.754556 S    
C9    H25   1.109950 S    
P11   C68   1.852117 S    
O4    Ba4   2.860565 S    
C60   C64   1.433549 A    
P10   C65   1.849478 S    
P5    Ba1   3.420634 S    
C28   H68   1.106305 S    
C11   H27   1.109309 S    
P9    C66   1.851135 S    
P2    O18   1.748853 S    
P12   C67   1.849372 S    
C39   C51   1.394407 A    
O52   H92   0.992936 S    
C40   C48   1.390384 A    
O41   C5    1.406896 S    
P15   C48   1.849822 S    
C38   C50   1.395842 A    
P4    O8    1.585232 S    
O6    Ba1   2.832882 S    
C10   H26   1.110245 S    
O51   H91   0.993227 S    
C18   H38   1.106045 S    
C43   C47   1.398009 A    
C53   C71   1.411156 A    
P4    O4    1.535145 D    
O9    Ba1   2.794447 S    
C27   H63   1.109441 S    
C54   C72   1.412351 A    
H2    C30   1.114701 S    
P9    O41   1.750249 S    
O53   H93   0.984727 S    
O18   C22   1.398211 S    
C8    H20   1.111880 S    
P2    O2    1.535145 D    
P11   O43   1.748281 S    
C6    H18   1.110000 S    
C1    H75   1.104515 S    
C71   H81   1.074281 S    
C5    H17   1.112337 S    
C34   O54   1.368031 S    
C51   C55   1.430466 A    
P7    O48   1.590142 S    
Ba2   O46   2.832860 S    
O12   P15   1.749717 S    
C29   H69   1.112043 S    
P8    O47   1.587865 S    
C35   C63   1.406568 A    
C16   H36   1.108722 S    
P9    O33   1.545682 D    
P4    Ba4   3.418374 S    
C19   H47   1.107357 S    
P10   O30   1.755307 S    
C68   C72   1.396940 A    
O11   P16   1.749823 S    
O32   Ba4   2.793724 S    
O5    Ba2   2.829670 S    
P11   O35   1.544843 D    
O2    Ba2   2.860565 S    
P12   O36   1.543291 D    
C39   H87   1.078660 S    
C52   C56   1.431433 A    
C37   C45   1.389554 A    
C23   H55   1.110085 S    
Ba1   O46   2.946178 S    
C38   H86   1.077147 S    
C31   H71   1.112295 S    
C37   H85   1.078076 S    
C11   O49   1.399395 S    
O16   P15   1.544540 D    
C42   H80   1.070751 S    
P3    C51   1.864135 S    
O19   C23   1.398928 S    
P2    C50   1.867247 S    
C3    H73   1.104871 S    
C42   C46   1.398240 A    
C27   H59   1.109234 S    
C36   C64   1.406348 A    
O42   C6    1.404074 S    
O49   H89   0.997585 S    
P12   O44   1.744554 S    
C14   H30   1.105461 S    
O23   P16   1.745924 S    
P8    Ba4   3.419097 S    
C13   C17   1.517336 S    
O20   C24   1.396798 S    
C3    C31   1.516768 S    
O21   P14   1.748805 S    
C24   H52   1.105335 S    
C15   C19   1.512128 S    
P6    O26   1.534602 D    
P6    O45   1.587865 S    
P1    O5    1.582981 S    
O44   C8    1.404762 S    
P7    O39   1.748448 S    
C26   H66   1.109037 S    
C41   C45   1.397673 A    
O12   Ba4   2.795713 S    
O17   C21   1.398352 S    
C35   O55   1.367946 S    
O25   Ba1   2.863927 S    
O39   C16   1.398292 S    
C21   H49   1.104500 S    
P2    Ba2   3.418374 S    
C7    C11   1.521528 S    
H3    C31   1.112204 S    
O30   Ba2   2.793724 S    
C44   H78   1.074795 S    
H4    C32   1.111476 S    
P5    O37   1.748411 S    
Ba1   Ba2   4.626762 S    
P10   O34   1.543840 D    
P1    O1    1.535283 D    
C4    H12   1.107658 S    
P11   O31   1.754242 S    
C40   H88   1.077050 S    
Ba3   Ba4   4.626762 S    
P2    O6    1.585232 S    
Ba3   O47   2.829646 S    
C41   C59   1.412083 A    
C42   C60   1.414006 A    
C23   C27   1.519044 S    
Ba4   O48   2.832860 S    
P7    O27   1.534462 D    
C43   H77   1.073792 S    
C36   O56   1.368091 S    
C58   C62   1.432834 A    
P4    C52   1.868250 S    
C8    C12   1.522801 S    
O22   C30   1.404023 S    
C57   C61   1.432354 A    
C41   H79   1.071951 S    
P16   C47   1.845122 S    
C55   C69   1.410559 A    
Ba1   O45   2.829646 S    
C56   C70   1.411981 A    
P6    Ba2   3.419097 S    
C1    C29   1.518072 S    
P5    O46   1.590142 S    
C8    H16   1.112709 S    
C12   H22   1.110192 S    
P13   C46   1.857298 S    
P8    O40   1.750130 S    
C39   C47   1.389145 A    
C6    C10   1.523223 S    
O27   Ba3   2.863927 S    
C19   H39   1.099613 S    
C17   H41   1.107557 S    
P6    O38   1.750024 S    
C16   C20   1.515476 S    
C17   H37   1.105445 S    
C24   H56   1.110990 S    
C15   H35   1.107360 S    
C43   C57   1.412812 A    
O22   P13   1.746466 S    
C23   H51   1.105513 S    
C10   O52   1.397544 S    
O10   Ba2   2.795713 S    
C27   H67   1.104782 S    
C44   C48   1.398212 A    
O21   C29   1.406352 S    
C26   H62   1.109741 S    
O10   P13   1.742506 S    
C4    H6    1.109489 S    
O7    Ba4   2.829670 S    
P10   O42   1.748612 S    
O40   C15   1.400262 S    
C1    H9    1.106840 S    
C5    C9    1.525249 S    
C28   H64   1.107547 S    
C10   H24   1.114238 S    
C18   H46   1.105395 S    
O43   C7    1.405722 S    
C69   H83   1.073012 S    
C25   H65   1.105564 S    
C50   C54   1.431486 A    
C59   C63   1.431894 A    
P7    Ba3   3.420634 S    
C49   C53   1.430107 A    
C34   C62   1.406673 A    
P8    C63   1.874862 S    
C44   C58   1.414396 A    
C25   H57   1.108074 S    
C30   H70   1.110066 S    
C33   C61   1.407066 A    
C53   C59   1.432097 A    
C17   H45   1.108129 S    
H1    C29   1.112372 S    
O15   P16   1.543986 D    
O28   Ba4   2.860675 S    
C22   C26   1.519069 S    
C65   C69   1.395460 A    
C72   H82   1.075008 S    
C2    H76   1.109529 S    
O13   P14   1.545155 D    
O24   C32   1.405723 S    
P5    O25   1.534462 D    
C32   H72   1.111072 S    
C12   O50   1.399803 S    
C21   H53   1.109746 S    
P8    O28   1.534602 D    
C56   C58   1.433522 A    
C6    H14   1.110386 S    
O1    Ba1   2.857347 S    
O50   H90   0.991256 S    
C55   C57   1.432116 A    
C11   H21   1.115796 S    
C5    H13   1.111530 S    
P1    C49   1.863234 S    
C2    H8    1.108137 S    
O11   Ba3   2.794447 S    
C37   C49   1.394944 A    
C38   C46   1.390652 A    
O3    Ba3   2.857347 S    
C66   C70   1.396859 A    
C2    C30   1.518159 S    
C7    H15   1.112104 S    
Ba3   O48   2.946178 S    
P14   C45   1.847067 S    
C13   H29   1.105864 S    
C70   H84   1.074775 S    
Ba4   O47   2.946722 S    
O23   C31   1.404112 S    
C22   H54   1.111136 S    
