data_mof_unit_5888.cif
_audit_creation_date              2012-12-11T18:09:05-0500
_audit_creation_method            fapswitch 2.2
_symmetry_space_group_name_H-M    P1
_symmetry_Int_Tables_number       1
_space_group_crystal_system       triclinic
_cell_length_a                    8.256851
_cell_length_b                    12.672332
_cell_length_c                    19.097663
_cell_angle_alpha                 99.857669
_cell_angle_beta                  92.038435
_cell_angle_gamma                 98.137715
_cell_volume                      1945.26304727

loop_
_atom_site_label
_atom_site_type_symbol
_atom_type_description
_atom_site_fract_x
_atom_site_fract_y
_atom_site_fract_z
_atom_type_partial_charge
Ba1   Ba    Ba6+2 0.853180 0.547790 0.465300 1.653639
Ba2   Ba    Ba6+2 0.336650 0.452300 0.534710 1.647511
C1    C     C_3   0.567402 0.910517 0.257256 -0.418159
C2    C     C_R   0.022311 0.542995 0.725801 0.056048
C3    C     C_R   0.856448 0.413515 0.810819 -0.168948
C4    C     C_3   0.098750 0.793317 0.271899 0.352839
C5    C     C_R   0.789326 0.418880 0.743637 -0.004729
C6    C     C_R   0.328690 0.591425 0.191212 -0.160776
C7    C     C_R   0.404411 0.577990 0.255176 0.023799
C8    C     C_R   0.128502 0.436769 0.198431 -0.104148
C9    C     C_R   0.170552 0.453359 0.272634 0.060080
C10   C     C_R   0.987688 0.492501 0.844559 0.010153
C11   C     C_R   0.882244 0.472763 0.698668 -0.233035
C12   C     C_3   0.615605 0.832507 0.303813 0.346167
C13   C     C_R   0.199389 0.512043 0.155560 0.027277
C14   C     C_R   0.317044 0.517357 0.298666 -0.232786
C15   C     C_R   0.756936 0.451994 0.956108 -0.090860
C16   C     C_3   0.058767 0.842047 0.206335 -0.191018
C17   C     C_R   0.646087 0.402906 0.997345 -0.092286
C18   C     C_R   0.691021 0.402741 0.067392 -0.013121
C19   C     C_R   0.850017 0.447635 0.094096 -0.114426
C20   C     C_R   0.976273 0.475085 0.048897 0.014833
C21   C     C_R   0.926425 0.475013 0.975736 0.037587
C22   C     C_R   0.144695 0.507757 0.075695 -0.013657
C23   C     C_3   0.530493 0.261741 0.307558 0.275564
C24   C     C_R   0.259206 0.539478 0.024699 0.035117
C25   C     C_R   0.208756 0.530853 0.950599 0.019787
C26   C     C_R   0.041687 0.500074 0.924518 -0.014932
C27   C     C_R   0.428039 0.577456 0.043882 -0.080631
C28   C     C_3   0.321179 0.800906 0.676899 0.370319
C29   C     C_R   0.531489 0.624674 0.998339 -0.077755
C30   C     C_R   0.484526 0.608791 0.926909 -0.076425
C31   C     C_R   0.331845 0.551028 0.903154 -0.084306
C32   C     C_R   0.763645 0.182348 0.526262 -0.272602
C33   C     C_R   0.426233 0.808851 0.474159 -0.268792
C34   C     C_3   0.625032 0.213170 0.246063 -0.335271
C35   C     C_R   0.400971 0.983917 0.446121 -0.104615
C36   C     C_R   0.337218 0.876031 0.443615 -0.001335
C37   C     C_R   0.576423 0.849778 0.511330 0.042978
C38   C     C_R   0.641725 0.961282 0.517296 -0.059868
C39   C     C_R   0.552628 0.028412 0.482950 -0.055393
C40   C     C_3   0.389997 0.823836 0.754330 -0.376818
C41   C     C_R   0.615897 0.138896 0.487685 0.047647
C42   C     C_R   0.855767 0.116991 0.557164 -0.016290
C43   C     C_R   0.793047 0.007825 0.555175 -0.094451
C44   C     C_3   0.961260 0.211695 0.382181 0.283700
C45   C     C_3   0.043558 0.219757 0.727940 0.364762
C46   C     C_3   0.961554 0.090255 0.369144 -0.329732
C47   C     C_3   0.730158 0.701114 0.677882 0.310231
C48   C     C_3   0.792919 0.737526 0.755579 -0.423073
C49   C     C_3   0.052003 0.761501 0.136912 -0.487473
C50   C     C_3   0.485370 0.102170 0.830285 -0.392259
C51   C     C_1   0.566168 0.369191 0.112986 0.248086
C52   C     C_3   0.318589 0.906394 0.649086 -0.329103
C53   C     C_3   0.068352 0.189361 0.800849 -0.383624
C54   C     C_3   0.523542 0.182356 0.717480 0.356102
C55   C     C_3   0.600127 0.125623 0.772150 -0.233668
C56   C     C_R   0.061421 0.563931 0.800184 -0.152679
H1    H     H_    0.700431 0.878185 0.348710 0.061661
H2    H     H_    0.821817 0.658206 0.648648 0.034725
H3    H     H_    0.614046 0.644643 0.675555 0.073488
H4    H     H_    0.508789 0.974354 0.289591 0.112468
H5    H     H_    0.921519 0.778690 0.759034 0.134209
H6    H     H_    0.786184 0.666636 0.782796 0.068130
H7    H     H_    0.718150 0.794513 0.784438 0.117335
H8    H     H_    0.502102 0.798102 0.326578 -0.081822
H9    H     H_    0.479000 0.866242 0.213252 0.111257
H10   H     H_    0.418927 0.287766 0.285985 0.023255
H11   H     H_    0.606901 0.334799 0.337789 0.082489
H12   H     H_    0.410815 0.747499 0.771830 0.103406
H13   H     H_    0.539149 0.158649 0.204922 0.110908
H14   H     H_    0.694296 0.278117 0.222087 0.106426
H15   H     H_    0.713911 0.165097 0.265135 0.120706
H16   H     H_    0.676909 0.949049 0.234034 0.114106
H17   H     H_    0.104062 0.304598 0.730265 0.066289
H18   H     H_    0.909979 0.213354 0.714947 -0.079690
H19   H     H_    0.200561 0.203064 0.817245 0.144615
H20   H     H_    0.006237 0.240220 0.841318 0.070270
H21   H     H_    0.017801 0.102889 0.799208 0.115424
H22   H     H_    0.613902 0.194947 0.676569 -0.078210
H23   H     H_    0.507768 0.879147 0.760059 0.097209
H24   H     H_    0.417203 0.127764 0.688581 0.090650
H25   H     H_    0.713614 0.176257 0.797700 0.095403
H26   H     H_    0.635270 0.048831 0.744072 0.080909
H27   H     H_    0.022151 0.712885 0.268934 0.087299
H28   H     H_    0.152041 0.633183 0.821758 0.052514
H29   H     H_    0.797005 0.352154 0.837686 0.066504
H30   H     H_    0.378949 0.660624 0.168843 0.055909
H31   H     H_    0.039830 0.366950 0.175981 0.051726
H32   H     H_    0.837833 0.467049 0.643948 0.059835
H33   H     H_    0.365616 0.517324 0.352050 0.064173
H34   H     H_    0.302454 0.861768 0.789772 0.101593
H35   H     H_    0.704482 0.474316 0.909605 0.085272
H36   H     H_    0.519705 0.377348 0.977062 0.079704
H37   H     H_    0.230504 0.784168 0.273786 -0.068597
H38   H     H_    0.869286 0.464020 0.150329 0.120635
H39   H     H_    0.489958 0.565290 0.091255 0.082659
H40   H     H_    0.656549 0.659455 0.016441 0.077418
H41   H     H_    0.571881 0.631926 0.889247 0.081888
H42   H     H_    0.312680 0.521296 0.847337 0.130631
H43   H     H_    0.327660 0.032225 0.420795 0.108274
H44   H     H_    0.865306 0.960808 0.582266 0.122473
H45   H     H_    0.836343 0.228912 0.392816 -0.033330
H46   H     H_    0.812622 0.266810 0.528502 0.058463
H47   H     H_    0.373802 0.725039 0.472099 0.074006
H48   H     H_    0.937849 0.870561 0.211134 0.156931
H49   H     H_    0.152147 0.913634 0.204177 0.103870
H50   H     H_    0.398174 0.752920 0.641900 0.048741
H51   H     H_    0.006047 0.797582 0.092464 0.138234
H52   H     H_    0.176118 0.742641 0.125286 0.133969
H53   H     H_    0.967427 0.686302 0.139878 0.153859
H54   H     H_    0.365141 0.057915 0.806493 0.123852
H55   H     H_    0.540386 0.051662 0.863980 0.116443
H56   H     H_    0.045924 0.247583 0.429303 0.085693
H57   H     H_    0.467222 0.179006 0.864796 0.148777
H58   H     H_    0.256732 0.889483 0.594941 0.115484
H59   H     H_    0.249322 0.960725 0.684245 0.139330
H60   H     H_    0.445645 0.946819 0.645923 0.036062
H61   H     H_    0.878764 0.050752 0.322240 0.102798
H62   H     H_    0.920360 0.055595 0.416023 0.083921
H63   H     H_    0.087697 0.073597 0.358890 0.151188
N1    N     N_1   0.463073 0.342578 0.148510 -0.335001
O1    O     O_2   0.875110 0.423180 0.326290 -0.485269
O2    O     O_2   0.191249 0.121859 0.546371 -0.472139
O3    O     O_3   0.114082 0.149035 0.677483 -0.602415
O4    O     O_3   0.123410 0.433040 0.414950 -0.489015
O5    O     O_3   0.577950 0.634370 0.536140 -0.501651
O6    O     O_2   0.341900 0.231310 0.465740 -0.451584
O7    O     O_3   0.482807 0.181026 0.347759 -0.655883
O8    O     O_2   0.488120 0.486668 0.754849 -0.507143
O9    O     O_3   0.466757 0.276853 0.751653 -0.591411
O10   O     O_3   0.661010 0.625070 0.369680 -0.466330
O11   O     O_2   0.732005 0.548942 0.241915 -0.506232
O12   O     O_3   0.703439 0.791778 0.648600 -0.647835
O13   O     O_3   0.010242 0.250596 0.320763 -0.635857
O14   O     O_3   0.696821 0.754794 0.263034 -0.592957
O15   O     O_2   0.847800 0.768730 0.534310 -0.432188
O16   O     O_3   0.082250 0.684470 0.405440 -0.483094
O17   O     O_2   0.016606 0.877591 0.464656 -0.465488
O18   O     O_3   0.062694 0.864737 0.331772 -0.618525
O19   O     O_2   0.314600 0.576860 0.673750 -0.489246
O20   O     O_3   0.066300 0.567050 0.585060 -0.464451
O21   O     O_3   0.528700 0.375020 0.630330 -0.456435
O22   O     O_3   0.159567 0.748971 0.673365 -0.629201
O23   O     O_3   0.611760 0.365720 0.463870 -0.490058
O24   O     O_3   0.107460 0.315620 0.594570 -0.486039
P1    P     P_3+3 0.042930 0.392230 0.337410 0.973778
P2    P     P_3+3 0.672230 0.754900 0.555730 0.966206
P3    P     P_3+3 0.126594 0.824448 0.409952 0.961065
P4    P     P_3+3 0.146790 0.607860 0.662600 0.974807
P5    P     P_3+3 0.065775 0.175421 0.593008 0.958058
P6    P     P_3+3 0.622235 0.626380 0.280327 0.954542
P7    P     P_3+3 0.519242 0.229206 0.439469 0.927115
P8    P     P_3+3 0.568958 0.389006 0.721450 0.950868

loop_
_geom_bond_atom_site_label_1
_geom_bond_atom_site_label_2
_ccdc_geom_bond_type
Ba2   P4    S    
O7    P7    S    
C47   O12   S    
C7    P6    S    
Ba2   O24   S    
C48   H5    S    
C11   H32   S    
C48   H6    S    
O15   P2    D    
Ba1   O23   S    
C17   C18   A    
Ba1   O10   S    
C23   O7    S    
C16   H48   S    
C46   H62   S    
C50   H55   S    
C25   C31   A    
Ba2   O23   S    
C12   H1    S    
C28   C52   S    
C24   C25   A    
C15   C21   A    
C47   H2    S    
C10   C26   S    
C7    C14   A    
C22   C24   A    
C45   H18   S    
C51   N1    T    
C53   H19   S    
C1    H4    S    
C50   H54   S    
C40   H12   S    
C28   O22   S    
C54   C55   S    
Ba1   Ba2   S    
C29   H40   S    
C2    C11   A    
C1    H16   S    
C16   H49   S    
O22   P4    S    
Ba1   O20   S    
O3    P5    S    
C44   O13   S    
C2    P4    S    
C8    H31   S    
C6    C7    A    
C52   H58   S    
C37   P2    S    
O19   P4    D    
C55   H25   S    
O11   P6    D    
C36   P3    S    
C34   H13   S    
O5    P2    S    
C10   C56   A    
Ba2   O5    S    
C49   H51   S    
C19   C20   A    
C4    O18   S    
Ba2   O21   S    
C39   C41   A    
C23   H10   S    
C40   H23   S    
C56   H28   S    
O14   P6    S    
C16   C49   S    
C45   O3    S    
C46   H61   S    
O16   P3    S    
C38   C43   A    
C4    C16   S    
C44   C46   S    
C42   P5    S    
C47   H3    S    
C44   H56   S    
C33   C36   A    
C32   C42   A    
Ba1   O4    S    
C3    C10   A    
C34   H15   S    
C37   C38   A    
C3    C5    A    
C53   H20   S    
O21   P8    S    
O17   P3    D    
C32   H46   S    
C6    H30   S    
C33   C37   A    
Ba1   O1    S    
C35   C36   A    
C33   H47   S    
C53   H21   S    
C9    C14   A    
C29   C30   A    
C12   H8    S    
C55   H26   S    
O8    P8    D    
C21   C26   A    
C4    H27   S    
C17   H36   S    
O6    P7    D    
C14   H33   S    
Ba2   O4    S    
C38   C39   A    
O2    P5    D    
O1    P1    D    
C4    H37   S    
C6    C13   A    
O13   P1    S    
C8    C9    A    
C52   H60   S    
Ba2   O20   S    
C20   C22   A    
Ba1   P1    S    
C23   H11   S    
C46   H63   S    
Ba1   O15   S    
C42   C43   A    
C45   C53   S    
C50   H57   S    
C13   C22   S    
C49   H53   S    
C28   H50   S    
C43   H44   S    
O9    P8    S    
C1    H9    S    
C32   C41   A    
Ba1   O5    S    
C18   C51   S    
O4    P1    S    
C54   H24   S    
C19   H38   S    
C1    C12   S    
C49   H52   S    
O12   P2    S    
C44   H45   S    
C54   H22   S    
C30   H41   S    
C27   H39   S    
C8    C13   A    
C31   H42   S    
C30   C31   A    
O20   P4    S    
O23   P7    S    
C27   C29   A    
C35   H43   S    
C9    P1    S    
C5    P8    S    
C12   O14   S    
O10   P6    S    
C15   C17   A    
C40   H34   S    
C35   C39   A    
C48   H7    S    
C54   O9    S    
C50   C55   S    
C23   C34   S    
C45   H17   S    
O24   P5    S    
C3    H29   S    
C5    C11   A    
C15   H35   S    
C18   C19   A    
C24   C27   A    
C47   C48   S    
C52   H59   S    
C2    C56   A    
C25   C26   A    
Ba2   O19   S    
C20   C21   A    
C28   C40   S    
Ba1   P2    S    
C41   P7    S    
O18   P3    S    
Ba1   O16   S    
C34   H14   S    
Ba2   O6    S    
