data_mof_unit_62804.cif
_audit_creation_date              2012-12-10T19:45:55-0500
_audit_creation_method            fapswitch 2.2
_symmetry_space_group_name_H-M    P1
_symmetry_Int_Tables_number       1
_space_group_crystal_system       triclinic
_cell_length_a                    18.389861
_cell_length_b                    18.373726
_cell_length_c                    27.677181
_cell_angle_alpha                 90.000042
_cell_angle_beta                  90.000044
_cell_angle_gamma                 89.930906
_cell_volume                      9351.8432833

loop_
_atom_site_label
_atom_site_type_symbol
_atom_type_description
_atom_site_fract_x
_atom_site_fract_y
_atom_site_fract_z
_atom_type_partial_charge
C1    C     C_1   1.000000 0.500000 0.775509 -0.006013
C2    C     C_3   0.263991 0.203554 0.911416 -0.129324
C3    C     C_R   0.252750 0.801071 0.538658 -0.147870
C4    C     C_1   0.500000 0.000000 0.224519 -0.015135
C5    C     C_1   0.000000 0.500000 0.224517 -0.010145
C6    C     C_1   0.000000 0.500000 0.724519 -0.015141
C7    C     C_1   0.500000 1.000000 0.724517 -0.010138
C8    C     C_2   0.106117 0.785271 0.902141 0.656847
C9    C     C_2   0.246171 0.134179 0.884127 0.660473
C10   C     C_2   0.893910 0.214691 0.902164 0.656866
C11   C     C_2   0.753792 0.865788 0.884110 0.660462
C12   C     C_2   0.139654 0.251079 0.881027 0.604143
C13   C     C_3   0.819145 0.239488 0.917628 -0.089102
C14   C     C_2   0.219776 0.893171 0.899439 0.654350
C15   C     C_2   0.860320 0.748896 0.881015 0.604139
C16   C     C_2   0.780254 0.106792 0.899464 0.654348
C17   C     C_2   0.606143 0.285258 0.402123 0.656855
C18   C     C_2   0.746140 0.634151 0.384139 0.660477
C19   C     C_2   0.393854 0.714745 0.402121 0.656855
C20   C     C_2   0.253864 0.365852 0.384141 0.660480
C21   C     C_2   0.639620 0.751050 0.381041 0.604140
C22   C     C_2   0.719814 0.393143 0.399418 0.654337
C23   C     C_2   0.360381 0.248951 0.381042 0.604140
C24   C     C_3   0.735987 0.796420 0.911412 -0.129320
C25   C     C_2   0.280183 0.606860 0.399416 0.654337
C26   C     C_3   0.206905 0.264421 0.910999 -0.091661
C27   C     C_3   0.240986 0.818457 0.917478 -0.088600
C28   C     C_3   0.793077 0.735558 0.910995 -0.091656
C29   C     C_3   0.759038 0.181513 0.917488 -0.088594
C30   C     C_3   0.680898 0.260463 0.417611 -0.089093
C31   C     C_3   0.763967 0.703533 0.411419 -0.129329
C32   C     C_3   0.319099 0.739539 0.417610 -0.089093
C33   C     C_1   0.500000 1.000000 0.775512 0.003421
C34   C     C_3   0.236035 0.296469 0.411420 -0.129329
C35   C     C_3   0.706880 0.764399 0.411002 -0.091649
C36   C     C_3   0.741011 0.318432 0.417469 -0.088611
C37   C     C_3   0.293120 0.235602 0.411002 -0.091650
C38   C     C_3   0.258986 0.681570 0.417468 -0.088612
C39   C     C_R   0.500000 1.000000 0.870883 0.505178
C40   C     C_R   1.000000 0.500000 0.870872 0.499704
C41   C     C_R   1.000000 0.500000 0.370883 0.505165
C42   C     C_R   0.500000 1.000000 0.370872 0.499705
C43   C     C_R   0.500000 0.000000 0.129143 0.509544
C44   C     C_1   0.500000 1.000000 0.275509 -0.006003
C45   C     C_R   0.000000 0.500000 0.129133 0.509373
C46   C     C_R   1.000000 0.500000 0.629143 0.509543
C47   C     C_R   0.500000 1.000000 0.629133 0.509374
C48   C     C_R   0.640261 0.859911 0.000068 0.507248
C49   C     C_R   0.140069 0.640371 0.000117 0.504763
C50   C     C_R   0.359739 0.140089 0.000068 0.507244
C51   C     C_R   0.859930 0.359629 0.000116 0.504767
C52   C     C_R   0.640311 0.140093 0.000154 0.507249
C53   C     C_R   0.140262 0.359896 0.999900 0.506270
C54   C     C_R   0.359689 0.859907 0.000154 0.507246
C55   C     C_1   1.000000 0.500000 0.275512 0.003407
C56   C     C_R   0.859738 0.640104 0.999900 0.506264
C57   C     C_R   0.140261 0.359911 0.500068 0.507242
C58   C     C_R   0.640069 0.140371 0.500117 0.504762
C59   C     C_R   0.859739 0.640089 0.500068 0.507243
C60   C     C_R   0.359931 0.859629 0.500117 0.504762
C61   C     C_R   0.140311 0.640093 0.500154 0.507242
C62   C     C_R   0.640262 0.859896 0.499900 0.506269
C63   C     C_R   0.859689 0.359907 0.500154 0.507242
C64   C     C_R   0.359738 0.140104 0.499900 0.506269
C65   C     C_1   0.000000 0.500000 0.819052 0.044569
C66   C     C_1   0.500000 0.000000 0.180973 0.026371
C67   C     C_1   0.500000 1.000000 0.819058 0.056090
C68   C     C_1   0.500000 1.000000 0.319052 0.044580
C69   C     C_1   1.000000 0.500000 0.319058 0.056071
C70   C     C_R   0.241979 0.811430 0.971456 0.032739
C71   C     C_R   0.197787 0.251016 0.964225 0.010482
C72   C     C_R   0.758029 0.188561 0.971465 0.032734
C73   C     C_R   0.802205 0.748976 0.964219 0.010493
C74   C     C_R   0.250577 0.197149 0.964600 -0.032447
C75   C     C_R   0.188572 0.758539 0.971496 0.019739
C76   C     C_R   0.749414 0.802841 0.964593 -0.032433
C77   C     C_1   0.000000 0.500000 0.180967 0.028896
C78   C     C_R   0.811436 0.241452 0.971504 0.019743
C79   C     C_R   0.741988 0.311421 0.471449 0.032743
C80   C     C_R   0.697778 0.751007 0.464231 0.010488
C81   C     C_R   0.258011 0.688580 0.471448 0.032744
C82   C     C_R   0.302222 0.248993 0.464231 0.010486
C83   C     C_R   0.750568 0.697141 0.464605 -0.032456
C84   C     C_R   0.688579 0.258532 0.471489 0.019751
C85   C     C_R   0.249433 0.302860 0.464606 -0.032458
C86   C     C_R   0.311420 0.741468 0.471489 0.019750
C87   C     C_R   0.301078 0.807057 0.002965 0.013910
C88   C     C_1   1.000000 0.500000 0.680972 0.026368
C89   C     C_R   0.193831 0.301863 0.001638 0.025524
C90   C     C_R   0.698922 0.192942 0.002967 0.013912
C91   C     C_R   0.806170 0.698138 0.001637 0.025524
C92   C     C_R   0.301413 0.193311 0.001993 0.025057
C93   C     C_R   0.192858 0.699112 0.002891 0.010865
C94   C     C_R   0.698587 0.806689 0.001991 0.025060
C95   C     C_R   0.807142 0.300888 0.002891 0.010867
C96   C     C_R   0.801080 0.307056 0.502964 0.013909
C97   C     C_R   0.693830 0.801862 0.501639 0.025523
C98   C     C_R   0.198920 0.692944 0.502964 0.013909
C99   C     C_1   0.500000 1.000000 0.680967 0.028899
C100  C     C_R   0.306170 0.198137 0.501639 0.025523
C101  C     C_R   0.801413 0.693310 0.501993 0.025052
C102  C     C_R   0.692858 0.199112 0.502890 0.010864
C103  C     C_R   0.198587 0.306689 0.501993 0.025053
C104  C     C_R   0.307142 0.800888 0.502890 0.010864
C105  C     C_R   0.301051 0.752633 0.038711 -0.149411
C106  C     C_R   0.239990 0.293870 0.041797 -0.145376
C107  C     C_R   0.698941 0.247375 0.038706 -0.149412
C108  C     C_R   0.760021 0.706141 0.041801 -0.145374
C109  C     C_R   0.293632 0.239899 0.041941 -0.142232
C110  C     C_3   0.180879 0.760483 0.917619 -0.089099
C111  C     C_R   0.247258 0.698921 0.038653 -0.147870
C112  C     C_R   0.706378 0.760111 0.041944 -0.142230
C113  C     C_R   0.752734 0.301088 0.038648 -0.147871
C114  C     C_R   0.801044 0.252640 0.538715 -0.149412
C115  C     C_R   0.739997 0.793876 0.541795 -0.145377
C116  C     C_R   0.198957 0.747359 0.538716 -0.149412
C117  C     C_R   0.260002 0.206123 0.541795 -0.145377
C118  C     C_R   0.793639 0.739906 0.541939 -0.142232
C119  C     C_R   0.747251 0.198928 0.538657 -0.147871
C120  C     C_R   0.206360 0.260093 0.541939 -0.142233
H1    H     H_    0.198312 0.708642 0.900278 0.099106
H2    H     H_    0.819551 0.724244 0.403362 0.110544
H3    H     H_    0.301668 0.791386 0.400277 0.099103
H4    H     H_    0.180451 0.275760 0.403361 0.110545
H5    H     H_    0.730929 0.818813 0.403605 0.095984
H6    H     H_    0.792540 0.298749 0.400916 0.087532
H7    H     H_    0.269070 0.181189 0.403605 0.095985
H8    H     H_    0.207458 0.701253 0.400916 0.087531
H9    H     H_    0.344002 0.749711 0.065413 0.155296
H10   H     H_    0.236063 0.330481 0.072359 0.152721
H11   H     H_    0.655983 0.250305 0.065404 0.155296
H12   H     H_    0.319577 0.224267 0.903367 0.110539
H13   H     H_    0.763956 0.669538 0.072366 0.152718
H14   H     H_    0.330168 0.236066 0.072531 0.151755
H15   H     H_    0.250079 0.655862 0.065311 0.155972
H16   H     H_    0.669850 0.763952 0.072538 0.151752
H17   H     H_    0.749906 0.344153 0.065300 0.155974
H18   H     H_    0.843989 0.249724 0.565423 0.155293
H19   H     H_    0.736076 0.830494 0.572354 0.152727
H20   H     H_    0.156013 0.750275 0.565424 0.155294
H21   H     H_    0.263923 0.169505 0.572354 0.152725
H22   H     H_    0.830182 0.736079 0.572526 0.151760
H23   H     H_    0.801718 0.291322 0.900276 0.099111
H24   H     H_    0.750065 0.155875 0.565319 0.155971
H25   H     H_    0.169817 0.263919 0.572526 0.151759
H26   H     H_    0.249937 0.844123 0.565321 0.155972
H27   H     H_    0.022997 0.855896 0.911331 0.374546
H28   H     H_    0.153877 0.112026 0.921734 0.329570
H29   H     H_    0.977029 0.144071 0.911381 0.374543
H30   H     H_    0.846095 0.887963 0.921702 0.329599
H31   H     H_    0.096828 0.242406 0.814240 0.361915
H32   H     H_    0.196878 0.956091 0.841722 0.382539
H33   H     H_    0.903129 0.757551 0.814222 0.361899
H34   H     H_    0.680400 0.775700 0.903372 0.110533
H35   H     H_    0.803167 0.043850 0.841760 0.382569
H36   H     H_    0.523038 0.355907 0.411293 0.374562
H37   H     H_    0.653856 0.612008 0.421760 0.329571
H38   H     H_    0.476959 0.644096 0.411289 0.374563
H39   H     H_    0.346147 0.387990 0.421764 0.329568
H40   H     H_    0.596775 0.742359 0.314261 0.361914
H41   H     H_    0.696939 0.456049 0.341691 0.382517
H42   H     H_    0.403227 0.257643 0.314262 0.361916
H43   H     H_    0.303059 0.543956 0.341688 0.382514
H44   H     H_    0.230956 0.318836 0.903610 0.095982
H45   H     H_    0.292512 0.798785 0.900916 0.087543
H46   H     H_    0.769028 0.681139 0.903616 0.095978
H47   H     H_    0.707517 0.201180 0.900916 0.087554
H48   H     H_    0.698329 0.208617 0.400277 0.099103
O1    O     O_3   0.500000 0.000000 0.000010 -0.460354
O2    O     O_R   0.500000 0.939270 0.393740 -0.515964
O3    O     O_R   0.060730 0.500000 0.393740 -0.517874
O4    O     O_R   0.500000 0.060730 0.393740 -0.515965
O5    O     O_R   0.500000 0.939230 0.106280 -0.532804
O6    O     O_R   0.060770 0.500000 0.106280 -0.532146
O7    O     O_R   0.500000 0.060770 0.106280 -0.532803
O8    O     O_R   0.939230 0.500000 0.106280 -0.532145
O9    O     O_R   1.000000 0.439230 0.606280 -0.532805
O10   O     O_R   0.560770 0.000000 0.606280 -0.532145
O11   O     O_R   1.000000 0.560770 0.606280 -0.532804
O12   O     O_3   1.000000 0.500000 0.000010 -0.461623
O13   O     O_R   0.439230 0.000000 0.606280 -0.532146
O14   O     O_R   0.646160 0.914520 0.972140 -0.509350
O15   O     O_R   0.085480 0.646160 0.972140 -0.515908
O16   O     O_R   0.353840 0.085480 0.972140 -0.509359
O17   O     O_R   0.914520 0.353840 0.972140 -0.515915
O18   O     O_R   0.646160 0.085480 0.972140 -0.511469
O19   O     O_R   0.085480 0.353840 0.972140 -0.495495
O20   O     O_R   0.353840 0.914520 0.972140 -0.511458
O21   O     O_R   0.914520 0.646160 0.972140 -0.495499
O22   O     O_R   0.146160 0.414520 0.472140 -0.509364
O23   O     O_3   1.000000 0.500000 0.500010 -0.460355
O24   O     O_R   0.585480 0.146160 0.472140 -0.515894
O25   O     O_R   0.853840 0.585480 0.472140 -0.509363
O26   O     O_R   0.414520 0.853840 0.472140 -0.515894
O27   O     O_R   0.146160 0.585480 0.472140 -0.511442
O28   O     O_R   0.585480 0.853840 0.472140 -0.495496
O29   O     O_R   0.853840 0.414520 0.472140 -0.511444
O30   O     O_R   0.414520 0.146160 0.472140 -0.495495
O31   O     O_R   0.414550 0.146120 0.027860 -0.550939
O32   O     O_R   0.853880 0.414550 0.027860 -0.549363
O33   O     O_R   0.585450 0.853880 0.027860 -0.550938
O34   O     O_3   0.500000 0.000000 0.500010 -0.461626
O35   O     O_R   0.146120 0.585450 0.027860 -0.549365
O36   O     O_R   0.414550 0.853880 0.027860 -0.550769
O37   O     O_R   0.853880 0.585450 0.027860 -0.553168
O38   O     O_R   0.585450 0.146120 0.027860 -0.550769
O39   O     O_R   0.146120 0.414550 0.027860 -0.553169
O40   O     O_R   0.914550 0.646120 0.527860 -0.550938
O41   O     O_R   0.353880 0.914550 0.527860 -0.549366
O42   O     O_R   0.085450 0.353880 0.527860 -0.550938
O43   O     O_R   0.646120 0.085450 0.527860 -0.549366
O44   O     O_R   0.914550 0.353880 0.527860 -0.550772
O45   O     O_R   0.439270 0.000000 0.893740 -0.517876
O46   O     O_R   0.353880 0.085450 0.527860 -0.553171
O47   O     O_R   0.085450 0.646120 0.527860 -0.550772
O48   O     O_R   0.646120 0.914550 0.527860 -0.553170
O49   O     O_2   0.076080 0.754960 0.868295 -0.459271
O50   O     O_R   0.071518 0.842601 0.926273 -0.637611
O51   O     O_2   0.287640 0.113531 0.852540 -0.443306
O52   O     O_R   0.184150 0.092658 0.894037 -0.612475
O53   O     O_2   0.923948 0.244973 0.868307 -0.459261
O54   O     O_R   0.928508 0.157381 0.926317 -0.637620
O55   O     O_2   0.712314 0.886421 0.852524 -0.443306
O56   O     O_R   0.000000 0.439270 0.893740 -0.515979
O57   O     O_R   0.815812 0.907317 0.894006 -0.612553
O58   O     O_2   0.080759 0.240984 0.900341 -0.464559
O59   O     O_R   0.145211 0.251631 0.830688 -0.665565
O60   O     O_2   0.210751 0.943617 0.927668 -0.415593
O61   O     O_R   0.210986 0.904157 0.849836 -0.665341
O62   O     O_2   0.919219 0.759002 0.900321 -0.464571
O63   O     O_R   0.854750 0.748330 0.830676 -0.665565
O64   O     O_2   0.789274 0.056357 0.927703 -0.415654
O65   O     O_R   0.789056 0.095787 0.849864 -0.665323
O66   O     O_2   0.576110 0.254945 0.368277 -0.459328
O67   O     O_R   0.560730 0.000000 0.893740 -0.517875
O68   O     O_R   0.571548 0.342599 0.426246 -0.637579
O69   O     O_2   0.787601 0.613495 0.352550 -0.443310
O70   O     O_R   0.684121 0.592634 0.394061 -0.612418
O71   O     O_2   0.423887 0.745060 0.368276 -0.459329
O72   O     O_R   0.428449 0.657402 0.426242 -0.637579
O73   O     O_2   0.212405 0.386511 0.352552 -0.443310
O74   O     O_R   0.315884 0.407367 0.394065 -0.612410
O75   O     O_2   0.580731 0.740960 0.400364 -0.464595
O76   O     O_R   0.645163 0.751588 0.330702 -0.665564
O77   O     O_2   0.710785 0.443597 0.427640 -0.415542
O78   O     O_R   1.000000 0.560730 0.893740 -0.515953
O79   O     O_R   0.711041 0.404115 0.349813 -0.665361
O80   O     O_2   0.419270 0.259039 0.400365 -0.464593
O81   O     O_R   0.354839 0.248414 0.330702 -0.665565
O82   O     O_2   0.289212 0.556404 0.427637 -0.415535
O83   O     O_R   0.288957 0.595889 0.349810 -0.665363
O84   O     O_R   0.939270 0.500000 0.393740 -0.517874
Zn1   Zn    Zn3+2 0.500000 0.913210 0.039810 0.946299
Zn2   Zn    Zn3+2 1.000000 0.586760 0.960200 1.006670
Zn3   Zn    Zn3+2 0.413240 0.000000 0.960200 1.004007
Zn4   Zn    Zn3+2 1.000000 0.413240 0.960200 1.006658
Zn5   Zn    Zn3+2 0.086760 0.500000 0.460200 1.004009
Zn6   Zn    Zn3+2 0.500000 0.086760 0.460200 1.006671
Zn7   Zn    Zn3+2 0.913240 0.500000 0.460200 1.004009
Zn8   Zn    Zn3+2 0.500000 0.913240 0.460200 1.006672
Zn9   Zn    Zn3+2 0.086790 0.500000 0.039810 0.945950
Zn10  Zn    Zn3+2 0.500000 0.086790 0.039810 0.946297
Zn11  Zn    Zn3+2 0.913210 0.500000 0.039810 0.945951
Zn12  Zn    Zn3+2 1.000000 0.413210 0.539810 0.946292
Zn13  Zn    Zn3+2 0.586790 0.000000 0.539810 0.945950
Zn14  Zn    Zn3+2 1.000000 0.586790 0.539810 0.946293
Zn15  Zn    Zn3+2 0.413210 0.000000 0.539810 0.945949
Zn16  Zn    Zn3+2 0.586760 0.000000 0.960200 1.004005

loop_
_geom_bond_atom_site_label_1
_geom_bond_atom_site_label_2
_ccdc_geom_bond_type
C3    C104  A    
C59   O40   A    
H31   O59   S    
C49   O35   A    
C17   C30   S    
C64   O30   A    
C80   C97   A    
C36   C79   S    
C34   C37   S    
C84   C102  A    
C11   C24   S    
C52   C90   S    
C103  C120  A    
C32   H3    S    
O15   Zn2   S    
C62   O28   A    
C63   O44   A    
O29   Zn7   S    
C86   C104  A    
O17   Zn4   S    
O12   Zn4   S    
O10   Zn13  S    
C47   C99   S    
C58   O43   A    
C59   O25   A    
C20   O74   S    
O38   Zn10  S    
C114  H18   S    
C33   C67   T    
C56   O21   A    
C48   C94   S    
O46   Zn15  S    
C40   O56   A    
C4    C44   S    
C52   O38   A    
C101  C118  A    
C13   C29   S    
O9    Zn12  S    
O24   Zn6   S    
C90   C107  A    
H41   O79   S    
C47   O10   A    
C8    C110  S    
C3    C116  A    
O34   Zn6   S    
O7    Zn10  S    
C22   O79   S    
C39   O67   A    
O40   Zn14  S    
C92   C109  A    
C81   C98   A    
C28   C73   S    
C35   C80   S    
O43   Zn13  S    
C6    C88   T    
O41   Zn15  S    
O16   Zn3   S    
C74   C92   A    
C23   O80   D    
C35   H5    S    
O1    Zn3   S    
C107  C113  A    
C14   O61   S    
C72   C78   A    
C8    O49   D    
C42   O2    A    
C10   O53   D    
C76   C94   A    
C49   O15   A    
C43   O7    A    
C56   C91   S    
O14   Zn16  S    
C98   C116  A    
C61   C98   S    
C27   C110  S    
O5    Zn1   S    
C75   C110  S    
C87   C105  A    
C89   C106  A    
C38   C81   S    
C2    H12   S    
O21   Zn2   S    
C58   C102  S    
C32   C38   S    
C14   C27   S    
C97   C115  A    
C24   C28   S    
C60   O41   A    
C61   O27   A    
H39   O74   S    
O26   Zn8   S    
C114  C119  A    
C85   C103  A    
C18   O69   D    
C47   O13   A    
C21   O75   D    
C29   C72   S    
C20   C34   S    
C9    O51   D    
O23   Zn5   S    
C105  C111  A    
C32   C86   S    
C120  H25   S    
H30   O57   S    
O13   Zn15  S    
C117  C120  A    
C42   C68   S    
C26   C71   S    
C7    C33   S    
C46   O9    A    
C96   C114  A    
O27   Zn5   S    
C52   O18   A    
O31   Zn10  S    
C80   C83   A    
O39   Zn9   S    
C70   C87   A    
C91   C108  A    
C24   H34   S    
C46   C88   S    
O42   Zn12  S    
C20   O73   D    
C57   C103  S    
C79   C96   A    
C36   H6    S    
C57   O22   A    
C56   O37   A    
C60   O26   A    
C1    C6    S    
C59   C101  S    
O1    Zn1   S    
O3    Zn5   S    
C73   C91   A    
C107  H11   S    
C57   O42   A    
C45   O8    A    
C11   O55   D    
C54   O36   A    
O12   Zn11  S    
O12   Zn2   S    
C24   C76   S    
O32   Zn11  S    
C105  H9    S    
O37   Zn11  S    
C118  H22   S    
C16   C29   S    
C23   C37   S    
C63   C96   S    
C16   O64   D    
C63   O29   A    
C12   C26   S    
C34   C85   S    
O78   Zn2   S    
C117  H21   S    
C43   O5    A    
C14   O60   D    
C79   C84   A    
C51   O17   A    
O34   Zn8   S    
C25   C38   S    
C71   C74   A    
C62   C97   S    
C72   C90   A    
C25   O82   D    
O8    Zn11  S    
C1    C65   T    
C71   C89   A    
C78   C95   A    
C11   O57   S    
C115  C118  A    
C19   C32   S    
C41   O3    A    
O22   Zn5   S    
C31   C83   S    
C2    C26   S    
C19   O71   D    
H40   O76   S    
C37   H7    S    
C38   H8    S    
H28   O52   S    
C18   O70   S    
C55   C69   T    
C27   C70   S    
C7    C99   T    
C27   H45   S    
C21   O76   S    
C9    O52   S    
C50   C92   S    
C100  C117  A    
C93   C111  A    
O23   Zn7   S    
C40   C65   S    
C15   O62   D    
C58   O24   A    
C3    H26   S    
O23   Zn14  S    
C113  H17   S    
C37   C82   S    
C44   C68   T    
H29   O54   S    
O47   Zn14  S    
C5    C77   T    
O45   Zn3   S    
C12   O58   D    
O30   Zn6   S    
O56   Zn4   S    
C41   C69   S    
H32   O61   S    
O34   Zn15  S    
C17   O68   S    
O18   Zn16  S    
O67   Zn16  S    
C106  H10   S    
C13   C78   S    
O44   Zn12  S    
O1    Zn16  S    
C34   H4    S    
C83   C101  A    
C15   O63   S    
C109  H14   S    
C54   O20   A    
C62   O48   A    
C46   O11   A    
C5    C55   S    
O20   Zn3   S    
C50   O16   A    
C81   C86   A    
C31   H2    S    
C115  H19   S    
C12   O59   S    
C10   C13   S    
C2    C74   S    
C22   O77   D    
C40   O78   A    
C50   O31   A    
O35   Zn9   S    
C17   O66   D    
C21   C35   S    
C28   H46   S    
H42   O81   S    
C82   C85   A    
C22   C36   S    
C30   C36   S    
C82   C100  A    
C39   O45   A    
C49   C93   S    
O23   Zn12  S    
C29   H47   S    
H43   O83   S    
C53   O19   A    
C112  H16   S    
C30   H48   S    
C108  H13   S    
C110  H1    S    
H27   O50   S    
C19   O72   S    
C95   C113  A    
O6    Zn9   S    
C48   O14   A    
O36   Zn1   S    
C25   O83   S    
C43   C66   S    
C111  H15   S    
C15   C28   S    
C54   C87   S    
C16   O65   S    
H36   O68   S    
C75   C93   A    
O33   Zn1   S    
C48   O33   A    
C41   O84   A    
C94   C112  A    
O1    Zn10  S    
O25   Zn7   S    
O28   Zn8   S    
O12   Zn9   S    
C31   C35   S    
C13   H23   S    
C45   O6    A    
C30   C84   S    
O34   Zn13  S    
C39   C67   S    
O48   Zn13  S    
C26   H44   S    
C8    O50   S    
C51   O32   A    
C10   O54   S    
O11   Zn14  S    
C108  C112  A    
H37   O70   S    
C64   C100  S    
C73   C76   A    
C4    C66   T    
C64   O46   A    
C23   O81   S    
C51   C95   S    
C70   C75   A    
H35   O65   S    
H33   O63   S    
O2    Zn8   S    
C18   C31   S    
C61   O47   A    
C53   C89   S    
C45   C77   S    
O19   Zn4   S    
C60   C104  S    
C2    C9    S    
O4    Zn6   S    
C106  C109  A    
C102  C119  A    
C53   O39   A    
O84   Zn7   S    
H38   O72   S    
C116  H20   S    
C42   O4    A    
C119  H24   S    
