data_mof_unit_22617.cif
_audit_creation_date              2012-12-10T17:27:51-0500
_audit_creation_method            fapswitch 2.2
_symmetry_space_group_name_H-M    P1
_symmetry_Int_Tables_number       1
_space_group_crystal_system       triclinic
_cell_length_a                    10.779508
_cell_length_b                    12.00268
_cell_length_c                    12.868526
_cell_angle_alpha                 93.894679
_cell_angle_beta                  92.430377
_cell_angle_gamma                 85.430533
_cell_volume                      1654.69730953

loop_
_atom_site_label
_atom_site_type_symbol
_atom_type_description
_atom_site_fract_x
_atom_site_fract_y
_atom_site_fract_z
_atom_type_partial_charge
C1    C     C_R   0.504218 0.522463 0.700550 0.950453
C2    C     C_R   0.588317 0.623074 0.862185 -0.026860
C3    C     C_R   0.479670 0.453528 0.869200 -0.235132
C4    C     C_R   0.741439 0.499032 0.502589 1.000484
C5    C     C_R   0.502216 0.455050 0.975333 0.175520
C6    C     C_R   0.560544 0.545519 0.028025 0.098168
C7    C     C_R   0.577549 0.547882 0.136683 -0.087946
C8    C     C_R   0.485510 0.368056 0.135349 -0.202711
C9    C     C_R   0.469790 0.365037 0.028549 -0.175867
C10   C     C_R   0.399492 0.953096 0.389560 -0.280333
C11   C     C_R   0.407208 0.837397 0.401015 0.016039
C12   C     C_R   0.949674 0.393339 0.471455 0.050306
C13   C     C_R   0.539770 0.858389 0.551238 0.061403
C14   C     C_R   0.537711 0.975619 0.542173 -0.008673
C15   C     C_R   0.465148 0.023195 0.460086 0.068188
C16   C     C_R   0.510846 0.477579 0.300256 0.892051
C17   C     C_R   0.458813 0.140080 0.450827 -0.118376
C18   C     C_R   0.596095 0.162920 0.598538 0.416592
C19   C     C_R   0.603777 0.046875 0.612755 -0.169847
C20   C     C_R   0.260774 0.499302 0.489143 0.872772
C21   C     C_R   0.909434 0.283442 0.473033 -0.093738
C22   C     C_R   0.977704 0.191002 0.427464 -0.187731
C23   C     C_R   0.876424 0.495408 0.499852 -0.206449
C24   C     C_R   0.083750 0.205706 0.374629 -0.108539
C25   C     C_R   0.129287 0.311925 0.376021 0.032820
C26   C     C_R   0.070797 0.401970 0.438453 0.012644
C27   C     C_2   0.654756 0.702121 0.806026 0.432859
C28   C     C_2   0.679678 0.004232 0.702672 0.420521
C29   C     C_2   0.222285 0.331400 0.299045 0.394968
C30   C     C_2   0.647708 0.636353 0.194348 0.449424
C31   C     C_R   0.933612 0.597989 0.511999 0.435516
C32   C     C_R   0.059152 0.597767 0.502610 -0.231621
C33   C     C_R   0.128517 0.500106 0.470933 -0.205789
C34   C     C_R   0.528787 0.462781 0.189612 -0.084010
C35   C     C_R   0.521932 0.536367 0.812209 -0.070995
C36   C     C_R   0.602877 0.629049 0.970097 -0.284921
Cl1   Cl    Cl    0.858751 0.731051 0.545265 -0.486449
Cl2   Cl    Cl    0.688245 0.248821 0.681689 -0.628482
H1    H     H_    0.430270 0.293316 0.987790 0.160182
H2    H     H_    0.103141 0.674857 0.523067 0.205219
H3    H     H_    0.458611 0.298505 0.175864 0.219376
H4    H     H_    0.653701 0.696100 0.006958 0.124098
H5    H     H_    0.660389 0.787739 0.837828 0.067155
H6    H     H_    0.671072 0.047382 0.779205 0.098132
H7    H     H_    0.253899 0.414077 0.292960 0.048908
H8    H     H_    0.630785 0.723411 0.176627 0.049789
H9    H     H_    0.431417 0.385461 0.830197 0.166034
H10   H     H_    0.402624 0.177202 0.388916 0.178259
H11   H     H_    0.343094 0.987338 0.325874 0.159713
H12   H     H_    0.357482 0.783424 0.345941 0.132811
H13   H     H_    0.591018 0.818497 0.613902 0.200303
H14   H     H_    0.829834 0.263387 0.512716 0.219401
H15   H     H_    0.944846 0.108210 0.429102 0.175414
H16   H     H_    0.128929 0.134321 0.331340 0.172501
N1    N     N_R   0.523130 0.207800 0.519340 -0.131635
N2    N     N_R   0.476870 0.792180 0.480660 -0.114995
O1    O     O_R   0.506170 0.421690 0.658830 -0.569335
O2    O     O_2   0.757067 0.925054 0.691303 -0.492918
O3    O     O_2   0.259476 0.255848 0.237079 -0.624749
O4    O     O_2   0.726107 0.611820 0.261983 -0.549864
O5    O     O_R   0.491330 0.609320 0.646410 -0.622107
O6    O     O_R   0.690660 0.406170 0.506210 -0.625368
O7    O     O_R   0.675810 0.593790 0.493790 -0.521389
O8    O     O_R   0.508670 0.390680 0.353590 -0.637767
O9    O     O_R   0.493830 0.578310 0.341170 -0.625779
O10   O     O_R   0.324190 0.406210 0.506210 -0.621940
O11   O     O_R   0.309340 0.593830 0.493790 -0.632300
O12   O     O_2   0.711672 0.670167 0.728324 -0.506410
Zn1   Zn    Zn3+2 0.509910 0.374720 0.508290 0.998583
Zn2   Zn    Zn3+2 0.490090 0.625280 0.491710 1.014422

loop_
_geom_bond_atom_site_label_1
_geom_bond_atom_site_label_2
_ccdc_geom_bond_type
C2    C35   A    
O5    Zn2   S    
C1    O5    A    
C28   H6    S    
O7    Zn2   S    
C5    C9    A    
C6    C7    A    
C16   O9    A    
C28   O2    D    
C16   O8    A    
C17   N1    A    
C26   C33   A    
C36   H4    S    
C31   C32   A    
C4    O7    A    
C17   H10   S    
C3    C35   A    
C13   N2    A    
O1    Zn1   S    
C32   C33   A    
O11   Zn2   S    
C18   Cl2   S    
O8    Zn1   S    
C7    C30   S    
C8    C34   A    
C21   C22   A    
C24   C25   A    
C19   C28   S    
C12   C23   A    
N1    Zn1   S    
C18   N1    A    
C20   C33   S    
C12   C21   A    
C3    H9    S    
C12   C26   A    
C6    C36   A    
C4    C23   S    
C22   H15   S    
C1    O1    A    
C10   C15   A    
C32   H2    S    
C2    C27   S    
C25   C29   S    
C5    C6    A    
C7    C34   A    
C22   C24   A    
O10   Zn1   S    
C10   C11   A    
C24   H16   S    
O9    Zn2   S    
C4    O6    A    
C9    H1    S    
N2    Zn2   S    
C2    C36   A    
C8    H3    S    
C1    C35   S    
C31   Cl1   S    
C18   C19   A    
C20   O10   A    
C15   C17   A    
C27   H5    S    
C11   H12   S    
C14   C15   A    
C27   O12   D    
C20   O11   A    
C13   C14   A    
C16   C34   S    
C25   C26   A    
C13   H13   S    
C10   H11   S    
C14   C19   A    
C30   H8    S    
C21   H14   S    
C29   H7    S    
C11   N2    A    
C29   O3    D    
O6    Zn1   S    
C30   O4    D    
C8    C9    A    
C3    C5    A    
C23   C31   A    
