data_mof_unit_6161.cif
_audit_creation_date              2012-12-11T14:39:33-0500
_audit_creation_method            fapswitch 2.2
_symmetry_space_group_name_H-M    P1
_symmetry_Int_Tables_number       1
_space_group_crystal_system       triclinic
_cell_length_a                    7.22094
_cell_length_b                    14.023933
_cell_length_c                    16.383698
_cell_angle_alpha                 89.999982
_cell_angle_beta                  97.417561
_cell_angle_gamma                 90.0
_cell_volume                      1645.22717422

loop_
_atom_site_label
_atom_site_type_symbol
_atom_type_description
_atom_site_fract_x
_atom_site_fract_y
_atom_site_fract_z
_atom_type_partial_charge
O1    O     O_R   0.525340 0.338340 0.164530 -0.572865
O2    O     O_R   0.474660 0.661660 0.835470 -0.572865
O3    O     O_R   0.974660 0.838340 0.835470 -0.572866
O4    O     O_R   0.025340 0.161660 0.164530 -0.572867
O5    O     O_R   0.253520 0.352000 0.336710 -0.522494
O6    O     O_R   0.746480 0.648000 0.663290 -0.522494
O7    O     O_R   0.246480 0.852000 0.663290 -0.522494
O8    O     O_R   0.753520 0.148000 0.336710 -0.522494
O9    O     O_R   0.083330 0.168380 0.337300 -0.503716
O10   O     O_R   0.916670 0.831620 0.662700 -0.503715
O11   O     O_R   0.416670 0.668380 0.662700 -0.503715
O12   O     O_R   0.583330 0.331620 0.337300 -0.503715
C1    C     C_R   0.432391 0.369392 0.363202 0.946966
C2    C     C_R   0.567609 0.630608 0.636798 0.946966
C3    C     C_R   0.067609 0.869392 0.636798 0.946965
C4    C     C_R   0.932391 0.130608 0.363202 0.946965
O13   O     O_R   0.195840 0.349670 0.165140 -0.516207
O14   O     O_R   0.804160 0.650330 0.834860 -0.516207
O15   O     O_R   0.304160 0.849670 0.834860 -0.516206
O16   O     O_R   0.695840 0.150330 0.165140 -0.516207
C5    C     C_R   0.356843 0.371609 0.137365 0.681112
C6    C     C_R   0.643157 0.628391 0.862635 0.681111
C7    C     C_R   0.143157 0.871608 0.862635 0.681116
C8    C     C_R   0.856843 0.128391 0.137365 0.681116
O17   O     O_3   0.387830 0.193120 0.250910 -0.380223
O18   O     O_3   0.612170 0.806880 0.749090 -0.380223
O19   O     O_3   0.112170 0.693120 0.749090 -0.380222
O20   O     O_3   0.887830 0.306880 0.250910 -0.380222
V1    V     V_3+5 0.113010 0.264540 0.250910 1.660823
V2    V     V_3+5 0.886990 0.735460 0.749090 1.660823
V3    V     V_3+5 0.386990 0.764540 0.749090 1.660824
V4    V     V_3+5 0.613010 0.235460 0.250910 1.660824
C9    C     C_R   0.954847 0.198605 0.531008 0.616823
C10   C     C_R   0.045153 0.801395 0.468992 0.616823
C11   C     C_R   0.545153 0.698605 0.468992 0.616823
C12   C     C_R   0.454847 0.301395 0.531008 0.616823
C13   C     C_R   0.963366 0.231958 0.611294 -0.272985
C14   C     C_R   0.036634 0.768041 0.388706 -0.272985
C15   C     C_R   0.536633 0.731958 0.388706 -0.272987
C16   C     C_R   0.463367 0.268041 0.611294 -0.272987
C17   C     C_R   0.994087 0.169498 0.676934 -0.242038
C18   C     C_R   0.005913 0.830502 0.323066 -0.242038
C19   C     C_R   0.505913 0.669498 0.323066 -0.242037
C20   C     C_R   0.494087 0.330501 0.676934 -0.242036
C21   C     C_R   0.017038 0.072537 0.663497 0.575005
C22   C     C_R   0.982962 0.927463 0.336503 0.575005
C23   C     C_R   0.482963 0.572537 0.336503 0.575007
C24   C     C_R   0.517037 0.427463 0.663496 0.575007
C25   C     C_R   0.009023 0.035191 0.582171 -0.123914
C26   C     C_R   0.990977 0.964809 0.417829 -0.123914
C27   C     C_R   0.490978 0.535191 0.417829 -0.123915
C28   C     C_R   0.509022 0.464809 0.582171 -0.123915
C29   C     C_R   0.976860 0.099487 0.514483 -0.089097
C30   C     C_R   0.023140 0.900513 0.485517 -0.089097
C31   C     C_R   0.523140 0.599487 0.485517 -0.089097
C32   C     C_R   0.476860 0.400513 0.514483 -0.089097
C33   C     C_R   0.032313 0.936194 0.567239 -0.094644
C34   C     C_R   0.967687 0.063806 0.432761 -0.094644
C35   C     C_R   0.467687 0.436194 0.432761 -0.094644
C36   C     C_R   0.532313 0.563806 0.567239 -0.094644
C37   C     C_2   0.150994 0.942377 0.930429 0.501448
C38   C     C_2   0.849006 0.057623 0.069571 0.501448
C39   C     C_2   0.349007 0.442381 0.069574 0.501459
C40   C     C_2   0.650993 0.557619 0.930426 0.501459
C41   C     C_2   0.997445 0.964988 0.965920 -0.180399
C42   C     C_2   0.002554 0.035012 0.034080 -0.180399
C43   C     C_2   0.502552 0.464985 0.034077 -0.180397
C44   C     C_2   0.497448 0.535015 0.965922 -0.180397
H1    H     H_    0.999569 0.803465 0.260861 0.191275
H2    H     H_    0.000431 0.196535 0.739139 0.191275
H3    H     H_    0.500431 0.303465 0.739139 0.191275
H4    H     H_    0.499569 0.696535 0.260861 0.191275
F1    F     F_    0.925518 0.265295 0.470704 -0.694860
F2    F     F_    0.074482 0.734705 0.529296 -0.694860
F3    F     F_    0.574481 0.765295 0.529296 -0.694859
F4    F     F_    0.425519 0.234705 0.470704 -0.694859
H5    H     H_    0.945992 0.307296 0.622703 0.181313
H6    H     H_    0.054008 0.692703 0.377297 0.181313
H7    H     H_    0.554007 0.807296 0.377297 0.181313
H8    H     H_    0.445993 0.192703 0.622703 0.181313
F5    F     F_    0.046649 0.016789 0.731441 -0.725360
F6    F     F_    0.953351 0.983211 0.268559 -0.725361
F7    F     F_    0.453352 0.516789 0.268559 -0.725357
F8    F     F_    0.546647 0.483211 0.731441 -0.725357
H9    H     H_    0.135278 0.068952 0.055303 0.174971
H10   H     H_    0.864722 0.931048 0.944697 0.174971
H11   H     H_    0.364731 0.568966 0.944708 0.174963
H12   H     H_    0.635269 0.431034 0.055292 0.174963
F9    F     F_    0.682334 0.015661 0.042833 -0.610938
F10   F     F_    0.317666 0.984339 0.957167 -0.610938
F11   F     F_    0.817658 0.515645 0.957155 -0.610943
F12   F     F_    0.182342 0.484355 0.042845 -0.610943

loop_
_geom_bond_atom_site_label_1
_geom_bond_atom_site_label_2
_ccdc_geom_bond_type
O1    C5    A    
C19   H4    S    
O13   V1    S    
O3    C7    A    
O15   V3    S    
C42   H9    S    
C41   H10   S    
C11   F3    S    
C43   H12   S    
C26   C30   A    
C40   C44   D    
O20   V1    S    
O9    C4    A    
C14   C18   A    
O10   C3    A    
O4    C8    A    
O11   C2    A    
C38   F9    S    
C25   C33   A    
C20   H3    S    
C18   C22   A    
C28   C36   A    
C22   F6    S    
O16   C8    A    
C39   F12   S    
O2    C6    A    
C16   H8    S    
O14   V2    S    
C23   F7    S    
C12   F4    S    
C16   C20   A    
O5    C1    A    
O4    V1    S    
O9    V1    S    
O17   V4    S    
O7    C3    A    
O11   V3    S    
O18   V3    S    
O8    C4    A    
C10   C14   A    
C31   C36   A    
O12   V4    S    
O19   V2    S    
C3    C33   S    
O5    V1    S    
C9    C29   A    
C39   C43   D    
O7    V3    S    
C38   C42   D    
C11   C31   A    
C43   C44   S    
C26   C34   A    
C12   C16   A    
O15   C7    A    
C23   C27   A    
C14   H6    S    
C13   H5    S    
O1    V4    S    
O13   C5    A    
C24   F8    S    
O2    V3    S    
C15   H7    S    
O3    V2    S    
C11   C15   A    
C12   C32   A    
O6    C2    A    
O10   V2    S    
C21   C25   A    
C4    C34   S    
C10   F2    S    
C9    F1    S    
O6    V2    S    
C10   C30   A    
C27   C35   A    
C37   F10   S    
O16   V4    S    
C7    C37   S    
C8    C38   S    
O14   C6    A    
C21   F5    S    
C15   C19   A    
C29   C34   A    
C1    C35   S    
C2    C36   S    
C22   C26   A    
C32   C35   A    
O8    V4    S    
C28   C32   A    
C25   C29   A    
C27   C31   A    
C18   H1    S    
C13   C17   A    
C9    C13   A    
C5    C39   S    
C6    C40   S    
C37   C41   D    
C24   C28   A    
O12   C1    A    
C41   C42   S    
C44   H11   S    
C17   C21   A    
C40   F11   S    
C19   C23   A    
C20   C24   A    
C17   H2    S    
C30   C33   A    
