data_mof_unit_13281.cif
_audit_creation_date              2012-12-10T17:59:17-0500
_audit_creation_method            fapswitch 2.2
_symmetry_space_group_name_H-M    P1
_symmetry_Int_Tables_number       1
_space_group_crystal_system       triclinic
_cell_length_a                    10.87626
_cell_length_b                    9.750314
_cell_length_c                    11.036026
_cell_angle_alpha                 88.942071
_cell_angle_beta                  95.10912
_cell_angle_gamma                 89.176184
_cell_volume                      1165.33748247

loop_
_atom_site_label
_atom_site_type_symbol
_atom_type_description
_atom_site_fract_x
_atom_site_fract_y
_atom_site_fract_z
_atom_type_partial_charge
C1    C     C_R   0.263333 0.500834 0.501038 0.766856
C2    C     C_3   0.619677 0.508688 0.938234 0.184777
C3    C     C_R   0.069711 0.383325 0.527274 -0.238537
C4    C     C_R   0.062427 0.615168 0.449172 -0.178875
C5    C     C_R   0.942349 0.375508 0.507195 -0.009954
C6    C     C_R   0.933920 0.613894 0.432302 -0.042982
C7    C     C_R   0.870821 0.496402 0.473683 -0.203996
C8    C     C_R   0.129763 0.502094 0.497820 -0.040796
C9    C     C_R   0.408688 0.074968 0.435130 0.211520
C10   C     C_R   0.409001 0.928070 0.435789 0.266074
C11   C     C_R   0.592371 0.922952 0.564022 -0.042844
C12   C     C_R   0.586381 0.069391 0.573853 -0.065648
C13   C     C_R   0.491963 0.500385 0.260159 0.730570
C14   C     C_R   0.736435 0.499299 0.488966 0.809436
C15   C     C_R   0.486477 0.500210 0.737774 0.809030
C16   C     C_3   0.416499 0.643930 0.064841 0.006003
C17   C     C_3   0.399912 0.370573 0.067630 0.032082
C18   C     C_3   0.396190 0.634340 0.916741 0.014686
C19   C     C_3   0.411764 0.363928 0.922031 0.005055
C20   C     C_3   0.623490 0.480955 0.081727 0.166191
C21   C     C_3   0.484907 0.499543 0.121139 -0.044856
C22   C     C_3   0.478486 0.502061 0.876651 -0.115038
Cu1   Cu    Cu3+1 0.500020 0.640660 0.500000 1.047954
Cu2   Cu    Cu3+1 0.500020 0.359340 0.500000 1.003095
H1    H     H_    0.123055 0.292771 0.558686 0.174333
H2    H     H_    0.110723 0.702968 0.417533 0.174775
N1    N     N_R   0.500030 0.852070 0.500030 -0.206519
N2    N     N_R   0.500030 0.147930 0.500030 -0.194078
O1    O     O_R   0.319660 0.618740 0.499990 -0.550396
O2    O     O_R   0.319660 0.381260 0.499990 -0.627125
O3    O     O_R   0.499990 0.618790 0.317690 -0.532478
O4    O     O_R   0.499990 0.381210 0.317690 -0.583292
O5    O     O_R   0.680370 0.618830 0.500010 -0.528512
O6    O     O_R   0.680370 0.381170 0.500010 -0.514578
O7    O     O_R   0.500030 0.618780 0.682310 -0.518887
O8    O     O_R   0.500030 0.381220 0.682310 -0.557070
C23   C     C_2   0.478633 0.780447 0.102058 0.863189
O9    O     O_2   0.422581 0.887602 0.074315 -0.561062
O10   O     O_R   0.592169 0.789536 0.169056 -0.711562
H3    H     H_    0.624542 0.886294 0.168615 0.338455
C24   C     C_2   0.418799 0.221820 0.122224 0.897213
O11   O     O_2   0.337639 0.138864 0.096393 -0.566799
O12   O     O_R   0.522867 0.174950 0.194817 -0.701700
H4    H     H_    0.517585 0.075773 0.221911 0.341077
C25   C     C_2   0.703815 0.850221 0.622078 1.026829
O13   O     O_2   0.694353 0.757672 0.695539 -0.540219
O14   O     O_R   0.821152 0.896737 0.601104 -0.740369
H5    H     H_    0.889913 0.841149 0.647832 0.341947
C26   C     C_2   0.665962 0.126974 0.678993 0.930629
O15   O     O_2   0.705169 0.241786 0.676357 -0.560992
O16   O     O_R   0.699472 0.045930 0.783278 -0.723402
H6    H     H_    0.761461 0.091564 0.843138 0.374278
N3    N     N_3   0.294261 0.657545 0.114129 -0.590771
H7    H     H_    0.301378 0.662286 0.208724 0.238034
H8    H     H_    0.245010 0.745306 0.080777 0.253918
N4    N     N_3   0.271363 0.402484 0.093564 -0.572233
H9    H     H_    0.264873 0.403930 0.187557 0.199597
H10   H     H_    0.206065 0.332381 0.059170 0.258688
N5    N     N_3   0.262700 0.614677 0.876886 -0.539468
H11   H     H_    0.211677 0.706446 0.878638 0.242699
H12   H     H_    0.215046 0.553905 0.933815 0.304540
N6    N     N_3   0.286784 0.353812 0.857386 -0.580379
H13   H     H_    0.245107 0.261044 0.877696 0.268600
H14   H     H_    0.288470 0.360286 0.762944 0.253491
C27   C     C_2   0.421927 0.769947 0.845337 0.952694
O17   O     O_2   0.513904 0.837979 0.867329 -0.563792
O18   O     O_R   0.338522 0.812026 0.746393 -0.726934
H15   H     H_    0.366196 0.893921 0.699084 0.327627
C28   C     C_2   0.478592 0.231532 0.886983 0.952384
O19   O     O_2   0.574828 0.191019 0.941836 -0.521094
O20   O     O_R   0.421977 0.150005 0.795908 -0.765657
H16   H     H_    0.468948 0.062316 0.786077 0.357634
N7    N     N_3   0.710510 0.574429 0.146918 -0.538396
H17   H     H_    0.798881 0.559766 0.118354 0.224291
H18   H     H_    0.718894 0.551607 0.239941 0.218653
N8    N     N_3   0.671490 0.341866 0.115226 -0.469798
H19   H     H_    0.762345 0.328149 0.094151 0.230288
H20   H     H_    0.682668 0.331820 0.209954 0.278144
N9    N     N_3   0.672659 0.643609 0.911839 -0.499979
H21   H     H_    0.662233 0.714711 0.978756 0.299299
H22   H     H_    0.768367 0.636653 0.908139 0.235695
N10   N     N_3   0.697829 0.406924 0.881872 -0.504386
H23   H     H_    0.709976 0.441131 0.793588 0.262233
H24   H     H_    0.788337 0.409199 0.922334 0.203349
C29   C     C_2   0.893144 0.234991 0.504523 0.920075
O21   O     O_2   0.930156 0.151105 0.583667 -0.559667
O22   O     O_R   0.812922 0.195098 0.405918 -0.753889
H25   H     H_    0.786215 0.096734 0.414195 0.340821
C30   C     C_2   0.877605 0.726798 0.351816 0.868035
O23   O     O_2   0.928481 0.761149 0.261670 -0.594833
O24   O     O_R   0.773195 0.799340 0.379090 -0.706858
H26   H     H_    0.759174 0.886255 0.328189 0.330970
N11   N     N_3   0.304397 0.142869 0.371118 -0.576271
H27   H     H_    0.329693 0.235573 0.334410 0.267717
H28   H     H_    0.238456 0.159545 0.432561 0.228606
N12   N     N_3   0.311542 0.858866 0.368072 -0.540011
H29   H     H_    0.308914 0.892998 0.277619 0.252471
H30   H     H_    0.228685 0.889888 0.401096 0.220377

loop_
_geom_bond_atom_site_label_1
_geom_bond_atom_site_label_2
_ccdc_geom_bond_type
C10   N1    A    
O22   H25   S    
N11   H27   S    
C1    C8    S    
N7    H18   S    
C24   O11   D    
C13   O4    A    
C4    C8    A    
C14   O5    A    
C12   C26   S    
C25   O13   D    
C18   C27   S    
Cu2   O8    S    
C12   N2    A    
Cu1   O1    S    
C15   C22   S    
N8    H20   S    
C19   N6    S    
N4    H9    S    
C20   N8    S    
N7    H17   S    
C26   O16   S    
C28   O20   S    
C16   N3    S    
N6    H14   S    
C2    N9    S    
C7    C14   S    
Cu1   O5    S    
N12   H30   S    
C2    C22   S    
Cu1   Cu2   S    
Cu1   N1    S    
C30   O24   S    
C9    C10   A    
C16   C23   S    
C5    C29   S    
C29   O22   S    
N5    H11   S    
N11   H28   S    
C24   O12   S    
C15   O7    A    
C17   C24   S    
C25   O14   S    
N5    H12   S    
C2    C20   S    
O18   H15   S    
C3    H1    S    
C19   C22   S    
N8    H19   S    
C4    C6    A    
C3    C8    A    
O10   H3    S    
N9    H22   S    
C27   O18   S    
C10   N12   S    
C29   O21   D    
Cu2   O6    S    
O16   H6    S    
Cu1   O3    S    
O12   H4    S    
Cu2   O4    S    
C23   O9    D    
O14   H5    S    
C11   N1    A    
N12   H29   S    
N6    H13   S    
C1    O1    A    
C13   C21   S    
C17   N4    S    
C27   O17   D    
Cu1   O7    S    
C26   O15   D    
C2    N10   S    
N3    H8    S    
C9    N11   S    
C15   O8    A    
O24   H26   S    
C5    C7    A    
C19   C28   S    
C18   C22   S    
C13   O3    A    
Cu2   N2    S    
C3    C5    A    
C14   O6    A    
C4    H2    S    
C11   C12   A    
C16   C21   S    
N3    H7    S    
C6    C7    A    
C6    C30   S    
N10   H24   S    
O20   H16   S    
C23   O10   S    
C1    O2    A    
C17   C19   S    
N4    H10   S    
C20   N7    S    
C28   O19   D    
Cu2   O2    S    
C11   C25   S    
N9    H21   S    
C18   N5    S    
C20   C21   S    
C16   C18   S    
N10   H23   S    
C30   O23   D    
C9    N2    A    
C17   C21   S    
