data_mof_unit_60646.cif
_audit_creation_date              2012-10-26T17:43:34-0400
_audit_creation_method            fapswitch 2.2
_symmetry_space_group_name_H-M    P1
_symmetry_Int_Tables_number       1
_space_group_crystal_system       triclinic
_cell_length_a                    18.367985
_cell_length_b                    18.367985
_cell_length_c                    21.827165
_cell_angle_alpha                 90.00019
_cell_angle_beta                  90.00019
_cell_angle_gamma                 90.0
_cell_volume                      7364.1116362

loop_
_atom_site_label
_atom_site_type_symbol
_atom_type_description
_atom_site_fract_x
_atom_site_fract_y
_atom_site_fract_z
_atom_type_partial_charge
C1    C     C_R   0.000000 0.360087 0.000000 0.542669
C2    C     C_1   0.282528 0.000000 0.000000 -0.004784
C3    C     C_1   1.000000 0.717472 1.000000 -0.004784
C4    C     C_1   0.717472 1.000000 1.000000 -0.004785
C5    C     C_1   0.500000 0.782528 0.500000 -0.004784
C6    C     C_1   0.782528 0.500000 0.500000 -0.004784
C7    C     C_1   0.500000 0.217472 0.500000 -0.004784
C8    C     C_1   0.217472 0.500000 0.500000 -0.004785
C9    C     C_R   1.000000 0.500000 0.881223 0.520532
C10   C     C_R   0.500000 1.000000 0.881223 0.520532
C11   C     C_R   0.000000 0.500000 0.118777 0.520532
C12   C     C_R   0.360087 0.000000 0.000000 0.542668
C13   C     C_R   0.500000 0.000000 0.118777 0.520532
C14   C     C_R   0.500000 1.000000 0.381223 0.520532
C15   C     C_R   0.000000 0.500000 0.381223 0.520532
C16   C     C_R   0.500000 1.000000 0.618777 0.520532
C17   C     C_R   0.000000 0.500000 0.618777 0.520532
C18   C     C_R   0.086341 0.603938 0.812803 -0.121690
C19   C     C_R   0.603936 0.913656 0.812803 -0.121694
C20   C     C_R   0.913657 0.396063 0.812802 -0.121691
C21   C     C_R   0.396062 0.086340 0.812802 -0.121688
C22   C     C_R   0.086344 0.396063 0.187197 -0.121694
C23   C     C_R   1.000000 0.639913 1.000000 0.542668
C24   C     C_R   0.603937 0.086343 0.187198 -0.121691
C25   C     C_R   0.913660 0.603938 0.187197 -0.121688
C26   C     C_R   0.396062 0.913659 0.187196 -0.121691
C27   C     C_R   0.586341 0.103938 0.312803 -0.121690
C28   C     C_R   0.103937 0.413656 0.312803 -0.121694
C29   C     C_R   0.413657 0.896063 0.312802 -0.121691
C30   C     C_R   0.896062 0.586340 0.312802 -0.121688
C31   C     C_R   0.586344 0.896063 0.687197 -0.121694
C32   C     C_R   0.103937 0.586343 0.687198 -0.121691
C33   C     C_R   0.413660 0.103938 0.687197 -0.121688
C34   C     C_R   0.639913 1.000000 1.000000 0.542669
C35   C     C_R   0.896062 0.413659 0.687196 -0.121691
C36   C     C_R   0.136481 0.646705 0.781226 0.439206
C37   C     C_R   0.646704 0.863516 0.781225 0.439206
C38   C     C_R   0.863516 0.353297 0.781224 0.439205
C39   C     C_R   0.353296 0.136481 0.781225 0.439205
C40   C     C_R   0.136484 0.353296 0.218775 0.439206
C41   C     C_R   0.646703 0.136484 0.218776 0.439205
C42   C     C_R   0.863519 0.646704 0.218775 0.439205
C43   C     C_R   0.353295 0.863519 0.218774 0.439206
C44   C     C_R   0.636481 0.146705 0.281226 0.439206
C45   C     C_R   0.500000 0.860087 0.500000 0.542669
C46   C     C_R   0.146704 0.363516 0.281225 0.439206
C47   C     C_R   0.363516 0.853297 0.281224 0.439205
C48   C     C_R   0.853296 0.636481 0.281225 0.439205
C49   C     C_R   0.636484 0.853296 0.718775 0.439206
C50   C     C_R   0.146703 0.636484 0.718776 0.439205
C51   C     C_R   0.363519 0.146704 0.718775 0.439205
C52   C     C_R   0.853295 0.363519 0.718774 0.439206
C53   C     C_R   0.139637 0.000000 0.000000 0.553994
C54   C     C_R   1.000000 0.860363 1.000000 0.553994
C55   C     C_R   0.860363 1.000000 1.000000 0.553993
C56   C     C_R   0.860087 0.500000 0.500000 0.542668
C57   C     C_R   0.000000 0.139637 0.000000 0.553993
C58   C     C_R   0.639637 0.500000 0.500000 0.553994
C59   C     C_R   0.500000 0.360363 0.500000 0.553994
C60   C     C_R   0.360363 0.500000 0.500000 0.553993
C61   C     C_R   0.500000 0.639637 0.500000 0.553993
C62   C     C_R   0.049631 0.545151 0.717791 -0.052563
C63   C     C_R   0.545151 0.950368 0.717791 -0.052563
C64   C     C_R   0.950367 0.454850 0.717791 -0.052562
C65   C     C_R   0.454851 0.049632 0.717791 -0.052563
C66   C     C_R   0.049632 0.454849 0.282209 -0.052563
C67   C     C_R   0.500000 0.139913 0.500000 0.542668
C68   C     C_R   0.545150 0.049633 0.282209 -0.052562
C69   C     C_R   0.950368 0.545149 0.282209 -0.052563
C70   C     C_R   0.454849 0.950368 0.282208 -0.052563
C71   C     C_R   0.549631 0.045151 0.217791 -0.052563
C72   C     C_R   0.045151 0.450368 0.217791 -0.052563
C73   C     C_R   0.450367 0.954850 0.217791 -0.052562
C74   C     C_R   0.954851 0.549632 0.217791 -0.052563
C75   C     C_R   0.549632 0.954849 0.782209 -0.052563
C76   C     C_R   0.045150 0.549633 0.782209 -0.052562
C77   C     C_R   0.450368 0.045149 0.782209 -0.052563
C78   C     C_R   0.139913 0.500000 0.500000 0.542669
C79   C     C_R   0.954849 0.450368 0.782208 -0.052563
C80   C     C_R   1.000000 0.500000 0.685688 0.033213
C81   C     C_R   0.500001 1.000000 0.685688 0.033213
C82   C     C_R   0.000000 0.499999 0.314312 0.033213
C83   C     C_R   0.500000 0.000000 0.314312 0.033213
C84   C     C_R   0.500000 0.000000 0.185688 0.033213
C85   C     C_R   0.000001 0.500000 0.185688 0.033213
C86   C     C_R   0.500000 0.999999 0.814312 0.033213
C87   C     C_R   1.000000 0.500000 0.814312 0.033213
C88   C     C_1   0.000000 0.217212 0.000000 0.005058
C89   C     C_1   0.000000 0.282528 0.000000 -0.004784
C90   C     C_1   0.217212 0.000000 0.000000 0.005060
C91   C     C_1   1.000000 0.782788 1.000000 0.005060
C92   C     C_1   0.782788 1.000000 1.000000 0.005058
C93   C     C_1   0.500000 0.717212 0.500000 0.005058
C94   C     C_1   0.717212 0.500000 0.500000 0.005060
C95   C     C_1   0.500000 0.282788 0.500000 0.005060
C96   C     C_1   0.282788 0.500000 0.500000 0.005058
Cu1   Cu    Cu3+1 0.927460 0.500000 0.000000 1.054735
Cu2   Cu    Cu3+1 1.000000 1.000000 0.061780 1.094842
Cu3   Cu    Cu3+1 0.500000 0.500000 0.438220 1.094842
Cu4   Cu    Cu3+1 0.500000 0.500000 0.561780 1.094842
Cu5   Cu    Cu3+1 0.500000 0.072540 0.000000 1.054735
Cu6   Cu    Cu3+1 0.072540 0.500000 0.000000 1.054734
Cu7   Cu    Cu3+1 0.500000 0.927460 0.000000 1.054734
Cu8   Cu    Cu3+1 0.427460 0.000000 0.500000 1.054735
Cu9   Cu    Cu3+1 0.000000 0.572540 0.500000 1.054735
Cu10  Cu    Cu3+1 0.572540 0.000000 0.500000 1.054734
Cu11  Cu    Cu3+1 0.000000 0.427460 0.500000 1.054734
Cu12  Cu    Cu3+1 0.000000 1.000000 0.938220 1.094842
F1    F     F_    0.823847 0.302622 0.811695 -0.560314
F2    F     F_    0.802619 0.676149 0.311697 -0.560314
F3    F     F_    0.676149 0.197382 0.311699 -0.560314
F4    F     F_    0.197378 0.323846 0.311697 -0.560314
F5    F     F_    0.323851 0.197381 0.688303 -0.560314
F6    F     F_    0.802618 0.323851 0.688301 -0.560314
F7    F     F_    0.676154 0.802621 0.688303 -0.560314
F8    F     F_    0.197378 0.676153 0.688304 -0.560314
F9    F     F_    0.302619 0.176149 0.811697 -0.560314
F10   F     F_    0.176149 0.697382 0.811699 -0.560314
F11   F     F_    0.697378 0.823846 0.811697 -0.560314
F12   F     F_    0.823851 0.697381 0.188303 -0.560314
F13   F     F_    0.302618 0.823851 0.188301 -0.560314
F14   F     F_    0.176154 0.302621 0.188303 -0.560314
F15   F     F_    0.697378 0.176153 0.188304 -0.560314
F16   F     F_    0.323847 0.802622 0.311695 -0.560314
H1    H     H_    0.080050 0.614686 0.861165 0.168056
H2    H     H_    0.114682 0.419944 0.361164 0.168058
H3    H     H_    0.419946 0.885316 0.361163 0.168056
H4    H     H_    0.885313 0.580048 0.361164 0.168054
H5    H     H_    0.580056 0.885318 0.638836 0.168058
H6    H     H_    0.114684 0.580054 0.638837 0.168056
H7    H     H_    0.419951 0.114687 0.638836 0.168054
H8    H     H_    0.885314 0.419949 0.638835 0.168056
H9    H     H_    0.614682 0.919944 0.861164 0.168058
H10   H     H_    0.919946 0.385316 0.861163 0.168056
H11   H     H_    0.385313 0.080048 0.861164 0.168054
H12   H     H_    0.080056 0.385318 0.138836 0.168058
H13   H     H_    0.614684 0.080053 0.138837 0.168056
H14   H     H_    0.919951 0.614687 0.138836 0.168054
H15   H     H_    0.385314 0.919949 0.138835 0.168056
H16   H     H_    0.580051 0.114686 0.361165 0.168056
O1    O     O_R   0.938740 0.394190 0.000020 -0.496020
O2    O     O_R   0.894190 0.561260 0.500020 -0.496019
O3    O     O_R   0.561260 0.105810 0.500020 -0.496019
O4    O     O_R   0.105810 0.438740 0.500020 -0.496020
O5    O     O_R   0.438740 0.105810 0.499980 -0.496019
O6    O     O_R   0.894190 0.438740 0.499980 -0.496019
O7    O     O_R   0.561260 0.894190 0.499980 -0.496020
O8    O     O_R   0.105810 0.561260 0.499980 -0.496020
O9    O     O_R   0.938740 0.500000 0.909860 -0.509127
O10   O     O_R   0.500000 0.061260 0.909860 -0.509125
O11   O     O_R   0.061260 0.500000 0.909860 -0.509126
O12   O     O_R   0.394190 0.061260 0.000020 -0.496019
O13   O     O_R   0.500000 0.938740 0.909860 -0.509128
O14   O     O_R   0.938740 0.500000 0.090140 -0.509125
O15   O     O_R   0.500000 0.938740 0.090140 -0.509126
O16   O     O_R   0.061260 0.500000 0.090140 -0.509128
O17   O     O_R   0.500000 0.061260 0.090140 -0.509127
O18   O     O_R   0.438740 1.000000 0.409860 -0.509127
O19   O     O_R   1.000000 0.561260 0.409860 -0.509125
O20   O     O_R   0.561260 1.000000 0.409860 -0.509126
O21   O     O_R   0.000000 0.438740 0.409860 -0.509128
O22   O     O_R   0.438740 0.000000 0.590140 -0.509125
O23   O     O_R   0.061260 0.605810 0.000020 -0.496019
O24   O     O_R   0.000000 0.438740 0.590140 -0.509126
O25   O     O_R   0.561260 0.000000 0.590140 -0.509128
O26   O     O_R   0.000000 0.561260 0.590140 -0.509127
O27   O     O_R   0.105780 0.999970 0.947820 -0.493966
O28   O     O_R   0.999970 0.894220 0.947820 -0.493966
O29   O     O_R   0.894220 0.000030 0.947820 -0.493966
O30   O     O_R   0.000030 0.105780 0.947820 -0.493966
O31   O     O_R   0.105780 0.000030 0.052180 -0.493966
O32   O     O_R   0.999970 0.105780 0.052180 -0.493966
O33   O     O_R   0.894220 0.999970 0.052180 -0.493966
O34   O     O_R   0.605810 0.938740 0.000020 -0.496020
O35   O     O_R   0.000030 0.894220 0.052180 -0.493966
O36   O     O_R   0.605780 0.499970 0.447820 -0.493966
O37   O     O_R   0.499970 0.394220 0.447820 -0.493966
O38   O     O_R   0.394220 0.500030 0.447820 -0.493966
O39   O     O_R   0.500030 0.605780 0.447820 -0.493966
O40   O     O_R   0.605780 0.500030 0.552180 -0.493966
O41   O     O_R   0.499970 0.605780 0.552180 -0.493966
O42   O     O_R   0.394220 0.499970 0.552180 -0.493966
O43   O     O_R   0.500030 0.394220 0.552180 -0.493966
O44   O     O_R   0.938740 0.605810 0.999980 -0.496019
O45   O     O_R   0.394190 0.938740 0.999980 -0.496019
O46   O     O_R   0.061260 0.394190 0.999980 -0.496020
O47   O     O_R   0.605810 0.061260 0.999980 -0.496020
O48   O     O_R   0.438740 0.894190 0.500020 -0.496020

loop_
_geom_bond_atom_site_label_1
_geom_bond_atom_site_label_2
_ccdc_geom_bond_type
C20   C38   A    
C48   F2    S    
Cu12  O30   S    
C12   O12   A    
C39   C51   A    
C40   F14   S    
Cu7   O45   S    
C67   O3    A    
C32   H6    S    
C72   C85   A    
C33   C65   A    
Cu10  O3    S    
C1    O46   A    
C40   C46   A    
Cu9   Cu11  S    
C13   C84   S    
C9    O9    A    
Cu6   O46   S    
C21   C39   A    
C63   C81   A    
C62   C80   A    
C29   C70   A    
C46   F4    S    
C17   O26   A    
C18   H1    S    
Cu8   O22   S    
C61   C93   S    
C38   C52   A    
C60   O38   A    
Cu5   O10   S    
C26   C73   A    
Cu2   Cu12  S    
Cu9   O26   S    
C3    C91   T    
C25   C74   A    
C13   O17   A    
C2    C90   T    
Cu4   O43   S    
C13   O15   A    
C69   C82   A    
C19   C37   A    
C11   O14   A    
Cu1   O1    S    
C3    C23   S    
C27   C44   A    
C53   O27   A    
C30   H4    S    
C55   O33   A    
Cu3   O36   S    
Cu11  O21   S    
C66   C72   A    
Cu6   O23   S    
C6    C94   T    
C8    C96   T    
C67   O5    A    
C18   C76   A    
C15   O19   A    
C35   C64   A    
C27   C68   A    
Cu4   O41   S    
Cu4   O42   S    
C43   F13   S    
C73   C84   A    
Cu1   Cu6   S    
C78   O8    A    
Cu6   O11   S    
C57   O32   A    
C56   O2    A    
C33   H7    S    
C57   O30   A    
Cu12  O28   S    
C2    C12   S    
Cu5   Cu7   S    
Cu12  O29   S    
C8    C78   S    
C24   C41   A    
C64   C80   A    
C62   C76   A    
C59   C95   S    
C14   C83   S    
C31   C49   A    
C10   O13   A    
C22   C72   A    
C28   H2    S    
C26   C43   A    
C15   C82   S    
C23   O23   A    
Cu5   O17   S    
C60   O42   A    
Cu8   O48   S    
C4    C34   S    
C65   C77   A    
Cu10  O25   S    
C31   C63   A    
C59   O37   A    
Cu3   O38   S    
C26   H15   S    
Cu8   O18   S    
Cu9   O2    S    
Cu11  O6    S    
C16   O22   A    
C39   F9    S    
Cu9   O8    S    
C5    C45   S    
C17   C80   S    
Cu10  O7    S    
C14   O20   A    
C54   O35   A    
C28   C66   A    
C44   F3    S    
Cu3   O39   S    
C55   C92   S    
C34   O34   A    
C17   O24   A    
C78   O4    A    
C66   C82   A    
C37   C49   A    
C75   C86   A    
C65   C81   A    
Cu3   Cu4   S    
C37   F11   S    
C16   O25   A    
C22   C40   A    
C70   C73   A    
C69   C74   A    
C45   O48   A    
C42   C48   A    
Cu1   O14   S    
C88   C89   T    
C38   F1    S    
C59   O43   A    
C70   C83   A    
C76   C87   A    
C32   C50   A    
C79   C87   A    
C11   O16   A    
Cu2   O31   S    
C60   C96   S    
Cu7   O15   S    
C49   F7    S    
Cu12  O27   S    
C29   C47   A    
C77   C86   A    
C61   O39   A    
C29   H3    S    
C51   F5    S    
C64   C79   A    
C33   C51   A    
C21   C77   A    
Cu4   O40   S    
Cu6   O16   S    
C35   C52   A    
C30   C69   A    
C36   C50   A    
Cu1   O44   S    
C71   C84   A    
C30   C48   A    
Cu2   O33   S    
C9    O11   A    
C1    C89   S    
C20   C79   A    
C45   O7    A    
C68   C83   A    
Cu8   O5    S    
C15   O21   A    
C58   O36   A    
C6    C56   S    
C43   C47   A    
C14   O18   A    
C25   C42   A    
C5    C93   T    
C10   C86   S    
Cu3   O37   S    
Cu8   Cu10  S    
C52   F6    S    
C24   H13   S    
C19   H9    S    
C7    C95   T    
Cu5   O12   S    
C61   O41   A    
C27   H16   S    
C57   C88   S    
C28   C46   A    
C41   F15   S    
C19   C75   A    
C25   H14   S    
C58   C94   S    
Cu2   O32   S    
C23   O44   A    
C31   H5    S    
C10   O10   A    
Cu2   O35   S    
Cu7   O13   S    
C47   F16   S    
Cu9   O19   S    
C63   C75   A    
C11   C85   S    
C68   C71   A    
Cu10  O20   S    
C12   O45   A    
C16   C81   S    
C41   C44   A    
C55   O29   A    
C50   F8    S    
Cu7   O34   S    
C74   C85   A    
C56   O6    A    
C34   O47   A    
C1    O1    A    
C53   O31   A    
C7    C67   S    
C54   O28   A    
C54   C91   S    
Cu11  O24   S    
C22   H12   S    
C53   C90   S    
C42   F12   S    
Cu1   O9    S    
C58   O40   A    
C36   F10   S    
C32   C62   A    
C20   H10   S    
Cu11  O4    S    
Cu5   O47   S    
C18   C36   A    
C35   H8    S    
C21   H11   S    
C9    C87   S    
C24   C71   A    
C4    C92   T    
