data_mof_unit_14196.cif
_audit_creation_date              2012-12-11T14:44:08-0500
_audit_creation_method            fapswitch 2.2
_symmetry_space_group_name_H-M    P1
_symmetry_Int_Tables_number       1
_space_group_crystal_system       triclinic
_cell_length_a                    18.920815
_cell_length_b                    11.007201
_cell_length_c                    18.80493
_cell_angle_alpha                 89.857667
_cell_angle_beta                  89.552738
_cell_angle_gamma                 90.086557
_cell_volume                      3916.27677206

loop_
_atom_site_label
_atom_site_type_symbol
_atom_type_description
_atom_site_fract_x
_atom_site_fract_y
_atom_site_fract_z
_atom_type_partial_charge
Br1   Br    Br    0.623121 0.754107 0.580482 -0.501415
Br2   Br    Br    0.441036 0.385698 0.395606 -0.423874
Br3   Br    Br    0.948327 0.931254 0.568159 -0.469589
Br4   Br    Br    0.945364 0.890937 0.395795 -0.456142
Br5   Br    Br    0.386930 0.940180 0.386678 -0.472174
Br6   Br    Br    0.128425 0.246322 0.576828 -0.507529
Br7   Br    Br    0.888491 0.428832 0.388678 -0.492835
Br8   Br    Br    0.848203 0.141912 0.890095 -0.496816
Br9   Br    Br    0.151699 0.141661 0.109293 -0.475444
Br10  Br    Br    0.348202 0.641914 0.890093 -0.496928
Br11  Br    Br    0.651723 0.641686 0.109307 -0.483766
Br12  Br    Br    0.446940 0.430156 0.567358 -0.465683
C1    C     C_R   0.732582 0.384276 0.148789 0.557067
C2    C     C_R   0.996584 0.998754 0.036338 -0.077323
C3    C     C_R   0.998687 0.776966 0.037602 0.023626
C4    C     C_R   0.500532 0.055488 0.036507 -0.160290
C5    C     C_R   0.499562 0.055521 0.963683 -0.161358
C6    C     C_R   0.000527 0.555487 0.036509 -0.160457
C7    C     C_R   0.999557 0.555520 0.963685 -0.161306
C8    C     C_R   0.502856 0.498874 0.962980 -0.076693
C9    C     C_R   0.496589 0.498756 0.036333 -0.077163
C10   C     C_R   0.676603 0.938305 0.026478 -0.127355
C11   C     C_R   0.323611 0.939189 0.973697 -0.128073
C12   C     C_R   0.176602 0.438308 0.026478 -0.127300
C13   C     C_R   0.823612 0.439185 0.973697 -0.127972
C14   C     C_R   0.681937 0.913392 0.953668 -0.172123
C15   C     C_R   0.318313 0.914518 0.046607 -0.171081
C16   C     C_R   0.181937 0.413392 0.953668 -0.171978
C17   C     C_R   0.267464 0.384055 0.851281 0.545280
C18   C     C_R   0.818315 0.414514 0.046608 -0.171309
C19   C     C_R   0.742054 0.950006 0.915217 0.002111
C20   C     C_R   0.258127 0.950706 0.084874 0.005195
C21   C     C_R   0.242053 0.450007 0.915216 0.002342
C22   C     C_R   0.758131 0.450709 0.084876 0.004396
C23   C     C_R   0.786655 0.037442 0.946043 0.225204
C24   C     C_R   0.213494 0.037767 0.053762 0.225120
C25   C     C_R   0.286653 0.537446 0.946042 0.225436
C26   C     C_R   0.713503 0.537778 0.053767 0.224815
C27   C     C_R   0.786048 0.052568 0.019321 0.099243
C28   C     C_R   0.232581 0.884275 0.148789 0.560502
C29   C     C_R   0.213986 0.052468 0.980437 0.097562
C30   C     C_R   0.286046 0.552575 0.019319 0.099029
C31   C     C_R   0.713991 0.552477 0.980441 0.098272
C32   C     C_R   0.731448 0.999869 0.061522 -0.005470
C33   C     C_R   0.268685 0.000163 0.938436 -0.004282
C34   C     C_R   0.231446 0.499876 0.061521 -0.006508
C35   C     C_R   0.768687 0.500165 0.938437 -0.004332
C36   C     C_R   0.543756 0.072411 0.473491 -0.161554
C37   C     C_R   0.533438 0.077935 0.545746 -0.185731
C38   C     C_R   0.039220 0.569832 0.472624 -0.164956
C39   C     C_R   0.767463 0.884054 0.851281 0.546086
C40   C     C_R   0.029851 0.575359 0.544798 -0.183942
C41   C     C_R   0.496182 0.174699 0.574851 -0.004443
C42   C     C_R   0.515900 0.162650 0.428876 0.030574
C43   C     C_R   0.995153 0.674207 0.574499 -0.002567
C44   C     C_R   0.014155 0.662663 0.428389 0.034460
C45   C     C_R   0.531430 0.155525 0.146852 0.538201
C46   C     C_R   0.468560 0.155498 0.853140 0.523227
C47   C     C_R   0.031429 0.655525 0.146853 0.536979
C48   C     C_R   0.968560 0.655498 0.853141 0.523352
C49   C     C_R   0.475710 0.274288 0.530936 0.155453
C50   C     C_R   0.507281 0.389707 0.926159 -0.076704
C51   C     C_R   0.481976 0.264283 0.457270 0.170041
C52   C     C_R   0.976149 0.775321 0.531010 0.154096
C53   C     C_R   0.982593 0.766078 0.457241 0.166055
C54   C     C_R   0.781765 0.036507 0.477921 0.082058
C55   C     C_R   0.189084 0.910988 0.543635 0.053032
C56   C     C_R   0.276833 0.555422 0.482152 0.061830
C57   C     C_R   0.688244 0.415132 0.543250 0.048051
C58   C     C_R   0.779827 0.020440 0.550715 -0.119149
C59   C     C_R   0.181752 0.897009 0.471384 -0.150108
C60   C     C_R   0.278520 0.530470 0.554388 -0.115896
C61   C     C_R   0.492392 0.389461 0.073378 -0.075473
C62   C     C_R   0.681319 0.401738 0.470972 -0.155433
C63   C     C_R   0.743461 0.923750 0.580431 -0.002925
C64   C     C_R   0.240577 0.906533 0.425897 0.023815
C65   C     C_R   0.242628 0.430714 0.582309 0.003314
C66   C     C_R   0.740761 0.406366 0.426047 0.017792
C67   C     C_R   0.697616 0.852292 0.538209 0.139011
C68   C     C_R   0.308293 0.924716 0.452456 0.155882
C69   C     C_R   0.195158 0.364423 0.539394 0.126086
C70   C     C_R   0.808693 0.418554 0.453413 0.147275
C71   C     C_R   0.702838 0.860594 0.463806 0.065637
C72   C     C_R   0.007276 0.889707 0.926163 -0.076725
C73   C     C_R   0.316918 0.929922 0.526549 0.060830
C74   C     C_R   0.195448 0.384367 0.466070 0.065588
C75   C     C_R   0.816712 0.422678 0.527623 0.060518
C76   C     C_R   0.744501 0.953952 0.433589 0.059329
C77   C     C_R   0.255778 0.931541 0.571431 0.063937
C78   C     C_R   0.234965 0.482306 0.437292 0.070412
C79   C     C_R   0.755198 0.429880 0.571835 0.060803
C80   C     C_R   0.727902 0.020013 0.139642 0.558689
C81   C     C_R   0.272164 0.019999 0.860252 0.560273
C82   C     C_R   0.227901 0.520017 0.139643 0.561779
C83   C     C_R   0.992386 0.889458 0.073382 -0.076229
C84   C     C_R   0.772164 0.519999 0.860252 0.560129
C85   C     C_R   0.728915 0.377595 0.352574 0.588344
C86   C     C_R   0.268350 0.381119 0.649168 0.579391
C87   C     C_R   0.228861 0.877605 0.352519 0.589333
C88   C     C_R   0.768325 0.880316 0.648930 0.575423
C89   C     C_R   0.534479 0.156242 0.354598 0.598968
C90   C     C_R   0.467360 0.158774 0.646151 0.578691
C91   C     C_R   0.033923 0.656320 0.354330 0.588642
C92   C     C_R   0.967086 0.658730 0.646031 0.576778
C93   C     C_R   0.739391 0.980056 0.357664 0.595520
C94   C     C_R   0.002851 0.998874 0.962985 -0.076825
C95   C     C_R   0.260415 0.974383 0.644245 0.617182
C96   C     C_R   0.228965 0.515706 0.362232 0.588714
C97   C     C_R   0.760199 0.473669 0.644471 0.613136
C98   C     C_R   0.496793 0.164472 0.925417 0.006492
C99   C     C_R   0.503204 0.164433 0.074552 0.007378
C100  C     C_R   0.996789 0.664472 0.925419 0.006421
C101  C     C_R   0.003200 0.664432 0.074554 0.006346
C102  C     C_R   0.501142 0.277037 0.962148 0.025204
C103  C     C_R   0.498693 0.276967 0.037599 0.023779
C104  C     C_R   0.001137 0.777036 0.962151 0.025305
Cr1   Cr    Cr6+3 0.772000 0.169640 0.250110 1.071833
Cr2   Cr    Cr6+3 0.383330 0.010620 0.749160 1.072746
Cr3   Cr    Cr6+3 0.116670 0.510620 0.250840 1.093111
Cr4   Cr    Cr6+3 0.883330 0.510620 0.749160 1.072234
Cr5   Cr    Cr6+3 0.228000 0.169640 0.749890 1.072751
Cr6   Cr    Cr6+3 0.272000 0.669640 0.250110 1.069903
Cr7   Cr    Cr6+3 0.728000 0.669640 0.749890 1.071980
Cr8   Cr    Cr6+3 0.614960 0.323350 0.249260 1.086256
Cr9   Cr    Cr6+3 0.385040 0.323350 0.750740 1.094398
Cr10  Cr    Cr6+3 0.114960 0.823350 0.249260 1.084689
Cr11  Cr    Cr6+3 0.885040 0.823350 0.750740 1.094358
Cr12  Cr    Cr6+3 0.616670 0.010620 0.250840 1.096830
H1    H     H_    0.502618 0.967907 0.062825 0.150320
H2    H     H_    0.481835 0.395086 0.129774 0.155299
H3    H     H_    0.017948 0.895616 0.869779 0.147594
H4    H     H_    0.981828 0.895081 0.129778 0.154260
H5    H     H_    0.005508 0.084341 0.934487 0.160381
H6    H     H_    0.993973 0.084126 0.064672 0.160608
H7    H     H_    0.505511 0.584341 0.934481 0.160513
H8    H     H_    0.493978 0.584128 0.064667 0.160857
H9    H     H_    0.630894 0.905522 0.055657 0.180012
H10   H     H_    0.369283 0.906500 0.944613 0.180993
H11   H     H_    0.130894 0.405525 0.055657 0.179626
H12   H     H_    0.497542 0.967992 0.937539 0.149200
H13   H     H_    0.869282 0.406490 0.944612 0.180968
H14   H     H_    0.639776 0.864447 0.928046 0.139013
H15   H     H_    0.360434 0.865723 0.072424 0.142510
H16   H     H_    0.139777 0.364444 0.928047 0.138719
H17   H     H_    0.860435 0.365715 0.072423 0.142239
H18   H     H_    0.572997 0.995903 0.452412 0.191968
H19   H     H_    0.551592 0.003505 0.578611 0.187975
H20   H     H_    0.065913 0.491510 0.451263 0.169060
H21   H     H_    0.046710 0.499220 0.577099 0.183580
H22   H     H_    0.841579 0.190328 0.490624 0.229577
H23   H     H_    0.002613 0.467906 0.062828 0.150238
H24   H     H_    0.867964 0.100617 0.425930 0.316398
H25   H     H_    0.092444 0.967630 0.572724 0.314217
H26   H     H_    0.107411 0.816129 0.583823 0.226705
H27   H     H_    0.345188 0.697514 0.495348 0.233904
H28   H     H_    0.363297 0.609347 0.427217 0.317474
H29   H     H_    0.592066 0.478059 0.570178 0.310750
H30   H     H_    0.604298 0.326466 0.583430 0.230089
H31   H     H_    0.705925 0.733392 0.386644 0.244446
H32   H     H_    0.643503 0.704662 0.446188 0.281816
H33   H     H_    0.391433 0.847246 0.585070 0.245031
H34   H     H_    0.997537 0.467992 0.937541 0.149072
H35   H     H_    0.426013 0.925302 0.518533 0.278911
H36   H     H_    0.180946 0.213123 0.428844 0.274821
H37   H     H_    0.106052 0.297740 0.432695 0.267561
H38   H     H_    0.888027 0.333950 0.587228 0.242453
H39   H     H_    0.925818 0.408563 0.520948 0.276329
H40   H     H_    0.872406 0.059030 0.080540 0.252594
H41   H     H_    0.822134 0.185082 0.081543 0.258686
H42   H     H_    0.127497 0.056336 0.919376 0.250989
H43   H     H_    0.176775 0.183821 0.917626 0.260601
H44   H     H_    0.372407 0.559034 0.080536 0.252911
H45   H     H_    0.811247 0.079116 0.584318 0.162522
H46   H     H_    0.322134 0.685087 0.081543 0.258127
H47   H     H_    0.627501 0.556350 0.919383 0.251031
H48   H     H_    0.676783 0.683828 0.917629 0.260529
H49   H     H_    0.129571 0.877147 0.450941 0.163153
H50   H     H_    0.312740 0.583737 0.588251 0.166349
H51   H     H_    0.628794 0.386230 0.450131 0.165751
H52   H     H_    0.517952 0.395614 0.869775 0.147498
N1    N     N_3   0.822529 0.136168 0.449576 -0.554655
N2    N     N_3   0.156180 0.116941 0.950297 -0.601631
N3    N     N_3   0.343364 0.618657 0.049232 -0.599829
N4    N     N_3   0.656186 0.616954 0.950303 -0.601020
N5    N     N_3   0.128809 0.902748 0.589530 -0.572262
N6    N     N_3   0.321164 0.650379 0.453972 -0.576407
N7    N     N_3   0.627165 0.412080 0.588327 -0.568304
N8    N     N_3   0.667220 0.775516 0.417975 -0.564156
N9    N     N_3   0.386407 0.928891 0.557017 -0.559190
N10   N     N_3   0.159951 0.299759 0.420335 -0.552432
N11   N     N_3   0.885812 0.415696 0.558874 -0.558003
N12   N     N_3   0.843365 0.118651 0.049234 -0.599749
O1    O     O_R   0.787540 0.042690 0.170470 -0.522138
O2    O     O_R   0.454130 0.051100 0.669160 -0.490200
O3    O     O_R   0.045870 0.551100 0.330840 -0.492637
O4    O     O_R   0.954130 0.551100 0.669160 -0.491156
O5    O     O_R   0.681340 0.959300 0.325510 -0.477817
O6    O     O_R   0.318660 0.959300 0.674490 -0.491132
O7    O     O_R   0.181340 0.459300 0.325510 -0.456329
O8    O     O_R   0.818660 0.459300 0.674490 -0.488273
O9    O     O_3   0.667880 0.167870 0.250070 -0.314538
O10   O     O_3   0.332120 0.167870 0.749930 -0.296771
O11   O     O_3   0.167880 0.667870 0.250070 -0.331329
O12   O     O_R   0.212460 0.042690 0.829530 -0.529457
O13   O     O_3   0.832120 0.667870 0.749930 -0.297339
O14   O     O_R   0.765660 0.292160 0.175050 -0.540346
O15   O     O_R   0.234340 0.292160 0.824950 -0.547742
O16   O     O_R   0.265660 0.792160 0.175050 -0.540242
O17   O     O_R   0.734340 0.792160 0.824950 -0.546792
O18   O     O_R   0.670190 0.408980 0.168550 -0.458854
O19   O     O_R   0.329810 0.408980 0.831450 -0.461300
O20   O     O_R   0.170190 0.908980 0.168550 -0.456904
O21   O     O_R   0.829810 0.908980 0.831450 -0.460960
O22   O     O_R   0.556580 0.251450 0.175160 -0.506033
O23   O     O_R   0.287540 0.542690 0.170470 -0.516352
O24   O     O_R   0.443420 0.251450 0.824840 -0.511607
O25   O     O_R   0.056580 0.751450 0.175160 -0.504917
O26   O     O_R   0.943420 0.751450 0.824840 -0.511281
O27   O     O_R   0.545920 0.049510 0.170320 -0.518102
O28   O     O_R   0.454080 0.049510 0.829680 -0.527399
O29   O     O_R   0.045920 0.549510 0.170320 -0.518383
O30   O     O_R   0.954080 0.549510 0.829680 -0.527579
O31   O     O_R   0.681390 0.957840 0.176710 -0.462812
O32   O     O_R   0.318610 0.957840 0.823290 -0.467830
O33   O     O_R   0.181390 0.457840 0.176710 -0.455325
O34   O     O_R   0.712460 0.542690 0.829530 -0.529322
O35   O     O_R   0.818610 0.457840 0.823290 -0.467904
O36   O     O_R   0.787500 0.044280 0.330990 -0.465564
O37   O     O_R   0.212500 0.044280 0.669010 -0.434203
O38   O     O_R   0.287500 0.544280 0.330990 -0.454219
O39   O     O_R   0.712500 0.544280 0.669010 -0.436691
O40   O     O_R   0.765610 0.293630 0.323860 -0.447582
O41   O     O_R   0.234390 0.293630 0.676140 -0.457744
O42   O     O_R   0.265610 0.793630 0.323860 -0.464066
O43   O     O_R   0.734390 0.793630 0.676140 -0.459876
O44   O     O_R   0.670140 0.410570 0.329080 -0.512143
O45   O     O_R   0.556540 0.252920 0.323970 -0.477424
O46   O     O_R   0.329860 0.410570 0.670920 -0.469841
O47   O     O_R   0.170140 0.910570 0.329080 -0.503773
O48   O     O_R   0.829860 0.910570 0.670920 -0.468495
O49   O     O_R   0.443460 0.252920 0.676030 -0.456514
O50   O     O_R   0.056540 0.752920 0.323970 -0.476719
O51   O     O_R   0.943460 0.752920 0.676030 -0.456469
O52   O     O_R   0.545870 0.051100 0.330840 -0.478870

loop_
_geom_bond_atom_site_label_1
_geom_bond_atom_site_label_2
_ccdc_geom_bond_type
Cr6   O11   S    
C28   O16   A    
Cr1   O36   S    
C11   C33   A    
C75   C79   A    
C11   H10   S    
C60   H50   S    
C33   C81   S    
C5    C98   A    
C102  C103  A    
Cr9   O19   S    
Cr7   O34   S    
Cr8   O22   S    
C7    C100  A    
C64   C87   S    
C36   C42   A    
C10   H9    S    
Cr7   O13   S    
C82   O23   A    
Cr4   O4    S    
C63   C67   A    
C91   O3    A    
Br10  C25   S    
Cr3   O7    S    
Cr4   O13   S    
C20   C24   A    
C3    C83   A    
Cr5   O10   S    
C6    C7    A    
C70   C75   A    
C50   H52   S    
Br4   C53   S    
Cr9   O24   S    
Cr1   O9    S    
C85   O40   A    
C4    C5    A    
C42   C51   A    
C73   N9    S    
C44   C53   A    
C17   C21   S    
C31   N4    S    
C55   C77   A    
C91   O50   A    
Cr10  O20   S    
Cr6   O23   S    
C37   H19   S    
H38   N11   S    
C30   C34   A    
C93   O36   A    
C25   C30   A    
C49   C51   A    
C81   O12   A    
C66   C70   A    
Cr12  O5    S    
C42   C89   S    
C82   O33   A    
C61   H2    S    
C41   C49   A    
C94   H5    S    
C10   C32   A    
C62   H51   S    
C40   H21   S    
C36   H18   S    
Cr10  O50   S    
Br9   C24   S    
C38   C40   A    
C35   C84   S    
C3    C101  A    
Cr9   O49   S    
H40   N12   S    
C16   H16   S    
C11   C15   A    
C81   O32   A    
C47   O29   A    
C98   C102  A    
C9    H8    S    
C55   C59   A    
C69   C74   A    
C32   C80   S    
C40   C43   A    
C56   C60   A    
C87   O47   A    
C39   O21   A    
C93   O5    A    
C71   C76   A    
C56   N6    S    
Cr11  O48   S    
C72   C104  A    
Br6   C69   S    
C46   C98   S    
H42   N2    S    
C24   C29   A    
Cr2   O10   S    
C46   O28   A    
H36   N10   S    
Cr10  O47   S    
C90   O2    A    
C6    C101  A    
C17   O19   A    
H22   N1    S    
C72   C94   A    
C12   H11   S    
Cr6   O38   S    
H26   N5    S    
C13   H13   S    
Cr9   O10   S    
C74   N10   S    
Cr5   O37   S    
C18   C22   A    
C89   O45   A    
C84   O35   A    
Cr6   O16   S    
C57   C62   A    
Cr3   O11   S    
C89   O52   A    
C72   H3    S    
H33   N9    S    
Cr1   O14   S    
C47   O25   A    
Cr12  O27   S    
C3    C104  A    
C87   O42   A    
C73   C77   A    
Cr11  O21   S    
C96   O38   A    
C45   O27   A    
Cr5   O15   S    
Br3   C52   S    
C85   O44   A    
Cr2   O32   S    
C43   C92   S    
C21   C25   A    
C26   C31   A    
Br8   C23   S    
C84   O34   A    
H31   N8    S    
Br11  C26   S    
C23   C27   A    
C68   C73   A    
C48   C100  S    
C48   O26   A    
C95   O6    A    
C39   O17   A    
H43   N2    S    
C56   C78   A    
H39   N11   S    
C34   C82   S    
C65   C69   A    
C41   C90   S    
C47   C101  S    
Cr12  O31   S    
C43   C52   A    
C77   C95   S    
C66   C85   S    
H37   N10   S    
C92   O4    A    
Cr11  O51   S    
C65   C86   S    
H35   N9    S    
C90   O49   A    
C8    C9    A    
Br5   C68   S    
C4    H1    S    
Cr4   O35   S    
Cr7   O43   S    
C36   C37   A    
Cr6   O42   S    
C54   N1    S    
C16   C21   A    
C80   O1    A    
C57   C79   A    
Cr5   O41   S    
C95   O37   A    
Cr3   O29   S    
C74   C78   A    
C83   H4    S    
Cr12  O52   S    
Cr10  O11   S    
C19   C23   A    
C71   N8    S    
Cr5   O12   S    
C28   O20   A    
C64   C68   A    
H32   N8    S    
C6    H23   S    
Cr2   O6    S    
Cr1   O1    S    
C2    C83   A    
C100  C104  A    
C27   N12   S    
Br2   C51   S    
Cr3   O33   S    
C18   H17   S    
C75   N11   S    
C38   H20   S    
C13   C18   A    
H48   N4    S    
C57   N7    S    
C13   C35   A    
Cr4   O30   S    
Br12  C49   S    
C15   C20   A    
C22   C26   A    
Cr2   O28   S    
C14   C19   A    
C1    O18   A    
C80   O31   A    
C9    C61   A    
C12   C16   A    
C44   C91   S    
C19   C39   S    
C97   O8    A    
H27   N6    S    
C48   O30   A    
H46   N3    S    
C60   C65   A    
Cr10  O25   S    
C50   C102  A    
C27   C32   A    
C86   O46   A    
H28   N6    S    
C30   N3    S    
C92   O51   A    
C2    H6    S    
C54   C58   A    
Cr1   O40   S    
C17   O15   A    
Cr8   O18   S    
Cr8   O9    S    
Cr2   O2    S    
C12   C34   A    
C52   C53   A    
C79   C97   S    
C96   O7    A    
Cr11  O13   S    
C78   C96   S    
C1    C22   S    
H30   N7    S    
C61   C103  A    
C54   C76   A    
C67   C71   A    
Cr8   O45   S    
C97   O39   A    
H44   N3    S    
C59   H49   S    
C45   C99   S    
C86   O41   A    
H25   N5    S    
C15   H15   S    
Cr7   O17   S    
C63   C88   S    
Cr4   O8    S    
C76   C93   S    
C88   O48   A    
C5    H12   S    
Cr3   O3    S    
Cr12  O9    S    
C20   C28   S    
C8    H7    S    
C8    C50   A    
C29   N2    S    
C58   H45   S    
C38   C44   A    
C37   C41   A    
H29   N7    S    
C10   C14   A    
Cr8   O44   S    
C59   C64   A    
C2    C94   A    
Br7   C70   S    
Cr7   O39   S    
C45   O22   A    
Cr11  O26   S    
C62   C66   A    
C58   C63   A    
C29   C33   A    
C1    O14   A    
C88   O43   A    
C99   C103  A    
H41   N12   S    
H24   N1    S    
C14   H14   S    
C31   C35   A    
C7    H34   S    
Cr9   O46   S    
C55   N5    S    
C4    C99   A    
H47   N4    S    
Br1   C67   S    
C46   O24   A    
