data_mof_unit_36466.cif
_audit_creation_date              2012-10-26T20:50:49-0400
_audit_creation_method            fapswitch 2.2
_symmetry_space_group_name_H-M    P1
_symmetry_Int_Tables_number       1
_space_group_crystal_system       triclinic
_cell_length_a                    11.050613
_cell_length_b                    10.825157
_cell_length_c                    9.544417
_cell_angle_alpha                 89.93737
_cell_angle_beta                  102.58214
_cell_angle_gamma                 90.021191
_cell_volume                      1114.32719931

loop_
_atom_site_label
_atom_site_type_symbol
_atom_type_description
_atom_site_fract_x
_atom_site_fract_y
_atom_site_fract_z
_atom_type_partial_charge
C1    C     C_R   0.504078 0.262421 0.500516 0.566945
C2    C     C_R   0.441242 0.409956 0.059728 -0.024522
C3    C     C_R   0.441119 0.410162 0.910888 -0.020049
C4    C     C_R   0.262831 0.498894 0.441928 0.580847
C5    C     C_R   0.547713 0.597876 0.938077 0.157212
C6    C     C_3   0.677171 0.645453 0.964030 -0.278896
C7    C     C_3   0.677540 0.645296 0.123199 -0.276917
C8    C     C_R   0.500486 0.737272 0.499913 0.552069
C9    C     C_R   0.737189 0.499783 0.558210 0.541557
C10   C     C_2   0.127980 0.495284 0.409512 -0.110269
C11   C     C_2   0.067564 0.492961 0.516415 -0.129835
C12   C     C_R   0.505897 0.128727 0.497179 0.009351
C13   C     C_2   0.872106 0.498506 0.591378 -0.134545
C14   C     C_2   0.933054 0.489932 0.485449 -0.162916
C15   C     C_R   0.427030 0.064049 0.567409 0.073682
C16   C     C_3   0.662058 0.121892 0.329216 -0.271741
C17   C     C_3   0.777270 0.173041 0.430909 -0.403510
C18   C     C_2   0.286201 0.124476 0.730692 0.204025
C19   C     C_R   0.574125 0.061762 0.411194 -0.023620
C20   C     C_R   0.567779 0.932325 0.410493 -0.145049
C21   C     C_R   0.500129 0.870006 0.496816 -0.009847
C22   C     C_R   0.425806 0.937176 0.568870 -0.003808
C23   C     C_3   0.409875 0.930111 0.719875 -0.277978
C24   C     C_3   0.409473 0.071066 0.718725 -0.104611
C25   C     C_R   0.547746 0.597946 0.085398 0.164671
Cu1   Cu    Cu3+1 0.499990 0.499980 0.640670 0.952293
Cu2   Cu    Cu3+1 0.500010 0.500020 0.359330 0.934972
H1    H     H_    0.883639 0.481629 0.374323 0.143475
H2    H     H_    0.921862 0.505375 0.702687 0.100276
H3    H     H_    0.077826 0.494236 0.298044 0.090963
H4    H     H_    0.622187 0.879636 0.349865 0.119006
H5    H     H_    0.320008 0.886734 0.726527 0.138928
H6    H     H_    0.492348 0.890345 0.794172 0.125273
H7    H     H_    0.838540 0.217794 0.367777 0.148081
H8    H     H_    0.752024 0.242458 0.504780 0.162328
H9    H     H_    0.829316 0.096917 0.495426 0.157169
H10   H     H_    0.693978 0.053425 0.258320 0.123569
H11   H     H_    0.615070 0.194769 0.255570 0.172563
H12   H     H_    0.489770 0.112517 0.794941 0.094876
H13   H     H_    0.253504 0.110612 0.828797 0.090722
H14   H     H_    0.395502 0.335787 0.103871 0.117344
H15   H     H_    0.395095 0.336701 0.843748 0.137818
H16   H     H_    0.743116 0.577739 0.934805 0.151493
H17   H     H_    0.681677 0.739756 0.919254 0.119762
H18   H     H_    0.743500 0.577340 0.184688 0.142950
H19   H     H_    0.683011 0.739496 0.170200 0.115917
H20   H     H_    0.117376 0.494720 0.628067 0.166155
N1    N     N_R   0.500780 0.500930 0.148120 -0.232717
N2    N     N_R   0.500790 0.500890 0.852210 -0.234460
O1    O     O_R   0.500000 0.319640 0.618810 -0.496922
O2    O     O_R   0.500010 0.319680 0.381230 -0.515978
O3    O     O_R   0.320680 0.500000 0.575130 -0.484554
O4    O     O_R   0.320690 0.500040 0.337550 -0.496656
O5    O     O_R   0.499990 0.680320 0.618770 -0.502187
O6    O     O_R   0.500000 0.680360 0.381190 -0.502266
O7    O     O_R   0.679310 0.499960 0.662450 -0.505826
O8    O     O_R   0.679320 0.500000 0.424870 -0.505814
O9    O     O_2   0.223324 0.184614 0.633006 -0.500795

loop_
_geom_bond_atom_site_label_1
_geom_bond_atom_site_label_2
_ccdc_geom_bond_type
Cu2   N1    S    
C23   C24   S    
Cu2   O4    S    
C3    H15   S    
C6    C7    S    
C17   H9    S    
Cu1   O3    S    
C4    O4    A    
C1    O1    A    
C10   H3    S    
Cu2   O6    S    
C11   H20   S    
C19   C20   A    
C7    C25   S    
C12   C15   A    
C16   H10   S    
C14   H1    S    
C23   H5    S    
C2    C3    A    
C3    N2    A    
C9    O7    A    
C6    H17   S    
C21   C22   A    
C1    O2    A    
C25   N1    A    
C5    N2    A    
Cu1   Cu2   S    
C1    C12   S    
C4    O3    A    
C16   C19   S    
C18   C24   S    
Cu1   O5    S    
C8    O6    A    
C13   H2    S    
C15   C24   S    
Cu2   O2    S    
C8    C21   S    
C9    O8    A    
C6    H16   S    
Cu1   O1    S    
Cu2   O8    S    
C5    C6    S    
C11   C14   S    
C5    C25   A    
C17   H7    S    
C2    H14   S    
C4    C10   S    
C7    H19   S    
C7    H18   S    
C24   H12   S    
C20   C21   A    
C12   C19   A    
C10   C11   D    
Cu1   N2    S    
C8    O5    A    
C18   H13   S    
C22   C23   S    
C9    C13   S    
C17   H8    S    
C2    N1    A    
C13   C14   D    
C18   O9    D    
C15   C22   A    
C16   H11   S    
C16   C17   S    
C23   H6    S    
C20   H4    S    
Cu1   O7    S    
