data_mof_unit_61918.cif
_audit_creation_date              2012-12-10T19:17:22-0500
_audit_creation_method            fapswitch 2.2
_symmetry_space_group_name_H-M    P1
_symmetry_Int_Tables_number       1
_space_group_crystal_system       triclinic
_cell_length_a                    16.010174
_cell_length_b                    14.772228
_cell_length_c                    15.935014
_cell_angle_alpha                 89.987955
_cell_angle_beta                  89.975845
_cell_angle_gamma                 90.001051
_cell_volume                      3768.72505647

loop_
_atom_site_label
_atom_site_type_symbol
_atom_type_description
_atom_site_fract_x
_atom_site_fract_y
_atom_site_fract_z
_atom_type_partial_charge
C1    C     C_R   0.340888 0.499999 0.500058 0.809891
C2    C     C_3   0.592182 0.505152 0.951922 0.073953
C3    C     C_3   0.588491 0.498697 0.050791 1.003100
C4    C     C_1   0.499114 0.500213 0.824645 0.028792
C5    C     C_1   0.497904 0.500593 0.175376 0.147545
C6    C     C_1   0.499062 0.500143 0.250633 -0.109629
C7    C     C_R   0.955914 0.580675 0.485116 0.536300
C8    C     C_R   0.955895 0.419349 0.515157 0.532269
C9    C     C_R   0.912608 0.500012 0.500130 -0.182876
C10   C     C_R   0.043666 0.418758 0.515422 0.034031
C11   C     C_R   0.043687 0.581263 0.484855 0.029672
C12   C     C_R   0.087154 0.500009 0.500140 -0.051133
C13   C     C_1   0.823101 0.500007 0.500096 0.194864
C14   C     C_R   0.499960 0.500016 0.339926 0.819019
C15   C     C_1   0.176915 0.500001 0.500119 0.103401
C16   C     C_1   0.251881 0.499999 0.500092 -0.144347
C17   C     C_1   0.748127 0.500003 0.500058 -0.093941
C18   C     C_R   0.550213 0.952084 0.556573 0.510537
C19   C     C_R   0.550214 0.047890 0.556572 0.513004
C20   C     C_R   0.499934 0.902879 0.500070 -0.408332
C21   C     C_R   0.499935 0.097120 0.500071 -0.411195
C22   C     C_R   0.449641 0.952108 0.443583 0.506797
C23   C     C_R   0.449641 0.047914 0.443583 0.508637
C24   C     C_1   0.499959 0.802682 0.500049 0.434818
C25   C     C_1   0.499959 0.197317 0.500049 0.438724
C26   C     C_R   0.659106 0.500001 0.500017 0.812341
C27   C     C_R   0.499998 0.499993 0.660123 0.820137
C28   C     C_3   0.454384 0.590219 0.048971 -0.122559
C29   C     C_3   0.450549 0.414788 0.050301 -0.102629
C30   C     C_3   0.453240 0.410468 0.950632 0.212795
C31   C     C_3   0.448650 0.588147 0.949626 0.258188
C32   C     C_1   0.499614 0.500016 0.749390 -0.171747
C33   C     C_3   0.496263 0.501297 0.083084 -0.035905
C34   C     C_3   0.498298 0.500717 0.917100 0.136955
Cu1   Cu    Cu3+1 0.500000 0.589220 0.500020 1.046308
Cu2   Cu    Cu3+1 0.500000 0.410780 0.500020 1.053663
H1    H     H_    0.485883 0.356038 0.075915 0.196934
H2    H     H_    0.496738 0.646867 0.067317 0.209621
N1    N     N_1   0.499980 0.276710 0.500030 -0.152783
N2    N     N_1   0.499980 0.723290 0.500030 -0.154008
O1    O     O_R   0.380310 0.575320 0.500040 -0.567674
O2    O     O_R   0.380310 0.424680 0.500040 -0.566739
O3    O     O_R   0.500000 0.575380 0.379460 -0.566492
O4    O     O_R   0.500000 0.424620 0.379460 -0.558895
O5    O     O_R   0.619690 0.575360 0.500000 -0.556442
O6    O     O_R   0.619690 0.424640 0.500000 -0.556028
O7    O     O_R   0.500000 0.575310 0.620580 -0.571004
O8    O     O_R   0.500000 0.424690 0.620580 -0.564652
N3    N     N_3   0.361393 0.587001 0.918455 -0.557746
H3    H     H_    0.321399 0.550816 0.957468 0.271496
H4    H     H_    0.336902 0.652628 0.916817 0.220177
N4    N     N_3   0.368223 0.403427 0.915136 -0.575905
H5    H     H_    0.371667 0.395974 0.849984 0.251948
H6    H     H_    0.338797 0.344662 0.936660 0.219782
F1    F     F_    0.400292 0.907341 0.388148 -0.587633
F2    F     F_    0.400292 0.092704 0.388149 -0.583378
N5    N     N_3   0.373493 0.609298 0.089053 -0.579239
H7    H     H_    0.382452 0.619476 0.153313 0.246395
H8    H     H_    0.352024 0.671699 0.066785 0.232937
N6    N     N_3   0.366628 0.406441 0.087292 -0.541818
H9    H     H_    0.323652 0.449125 0.058405 0.279312
H10   H     H_    0.345623 0.339839 0.080254 0.233779
N7    N     N_3   0.499858 0.329066 0.923082 -0.549749
H11   H     H_    0.461480 0.271928 0.927053 0.227409
H12   H     H_    0.549637 0.314358 0.963086 0.274884
N8    N     N_3   0.488118 0.671383 0.917002 -0.546301
H13   H     H_    0.478255 0.676298 0.852263 0.246556
H14   H     H_    0.459726 0.728220 0.943921 0.227408
F3    F     F_    0.632756 0.569569 0.087093 -0.640490
F4    F     F_    0.626212 0.419346 0.078413 -0.656642
N9    N     N_3   0.632938 0.590898 0.927518 -0.510491
H15   H     H_    0.694849 0.591313 0.948539 0.275181
H16   H     H_    0.636096 0.595450 0.862095 0.227944
N10   N     N_3   0.643173 0.430314 0.918068 -0.542949
H17   H     H_    0.649818 0.437158 0.853105 0.231988
H18   H     H_    0.703547 0.433753 0.942998 0.275395
N11   N     N_3   0.089470 0.663487 0.469639 -0.524259
H19   H     H_    0.118053 0.657386 0.410905 0.235880
H20   H     H_    0.049390 0.719149 0.465986 0.297224
N12   N     N_3   0.089429 0.336532 0.530634 -0.521282
H21   H     H_    0.117846 0.342570 0.589430 0.226169
H22   H     H_    0.049355 0.280849 0.534139 0.296782
F5    F     F_    0.912494 0.658138 0.470349 -0.626113
F6    F     F_    0.912457 0.341887 0.529921 -0.626567
F7    F     F_    0.599558 0.092657 0.612011 -0.573652
F8    F     F_    0.599555 0.907293 0.612013 -0.577720

loop_
_geom_bond_atom_site_label_1
_geom_bond_atom_site_label_2
_ccdc_geom_bond_type
C27   O8    A    
C31   N8    S    
N8    H14   S    
N7    H12   S    
Cu2   O2    S    
Cu1   Cu2   S    
Cu1   O7    S    
C23   F2    S    
N11   H19   S    
C7    C11   A    
C18   F8    S    
N10   H18   S    
C17   C26   S    
C3    F3    S    
C5    C6    T    
N5    H8    S    
C3    C33   S    
C15   C16   T    
C29   C33   S    
N6    H10   S    
C18   C19   A    
C9    C13   S    
C30   N4    S    
C11   N11   S    
C26   O5    A    
C20   C24   S    
C8    C9    A    
N3    H4    S    
C5    C33   S    
C29   N6    S    
Cu2   O6    S    
Cu1   O3    S    
C2    N10   S    
C2    C34   S    
N8    H13   S    
C30   N7    S    
C31   N3    S    
N4    H6    S    
Cu2   O8    S    
N11   H20   S    
C4    C34   S    
N10   H17   S    
C30   C34   S    
C3    F4    S    
N12   H22   S    
N9    H16   S    
C10   N12   S    
C28   N5    S    
Cu2   N1    S    
N6    H9    S    
C29   C30   S    
C6    C14   S    
C12   C15   S    
C28   H2    S    
C31   C34   S    
C1    C16   S    
C4    C32   T    
C10   C12   A    
C1    O1    A    
C20   C22   A    
C28   C33   S    
C21   C23   A    
Cu2   O4    S    
C2    N9    S    
Cu1   O5    S    
N4    H5    S    
C14   O4    A    
C27   O7    A    
C7    C9    A    
C21   C25   S    
C19   C21   A    
C27   C32   S    
C8    F6    S    
C28   C31   S    
N12   H21   S    
C19   F7    S    
C11   C12   A    
C22   F1    S    
C13   C17   T    
C2    C3    S    
N9    H15   S    
C25   N1    T    
N5    H7    S    
C24   N2    T    
Cu1   N2    S    
C18   C20   A    
Cu1   O1    S    
C26   O6    A    
N7    H11   S    
C7    F5    S    
C1    O2    A    
C8    C10   A    
N3    H3    S    
C29   H1    S    
C22   C23   A    
C14   O3    A    
