data_mof_unit_37766.cif
_audit_creation_date              2012-12-10T17:31:04-0500
_audit_creation_method            fapswitch 2.2
_symmetry_space_group_name_H-M    P1
_symmetry_Int_Tables_number       1
_space_group_crystal_system       triclinic
_cell_length_a                    11.993546
_cell_length_b                    12.876784
_cell_length_c                    15.50951
_cell_angle_alpha                 86.993339
_cell_angle_beta                  115.50886
_cell_angle_gamma                 94.115009
_cell_volume                      2155.57820412

loop_
_atom_site_label
_atom_site_type_symbol
_atom_type_description
_atom_site_fract_x
_atom_site_fract_y
_atom_site_fract_z
_atom_type_partial_charge
C1    C     C_R   0.476246 0.299341 0.498238 0.906400
C2    C     C_R   0.666601 0.971559 0.554929 -0.239681
C3    C     C_R   0.341632 0.136097 0.452874 0.094598
C4    C     C_R   0.658303 0.863981 0.546794 0.093173
C5    C     C_R   0.566919 0.132165 0.531245 -0.296282
C6    C     C_R   0.433009 0.867863 0.468583 -0.295907
C7    C     C_R   0.558722 0.026047 0.521778 0.160086
C8    C     C_R   0.441198 0.974003 0.477960 0.160379
C9    C     C_R   0.009937 0.607582 0.418352 0.054664
C10   C     C_R   0.988964 0.390917 0.580040 0.046129
C11   C     C_R   0.129427 0.595802 0.425915 -0.014887
C12   C     C_R   0.523736 0.700667 0.501718 0.908936
C13   C     C_R   0.869903 0.403321 0.573111 -0.013726
C14   C     C_R   0.157143 0.452256 0.533588 -0.030238
C15   C     C_R   0.842741 0.547509 0.466223 -0.028059
C16   C     C_R   0.575838 0.492969 0.680310 0.876963
C17   C     C_R   0.423631 0.503424 0.319644 0.875911
C18   C     C_R   0.037060 0.459902 0.528791 0.006251
C19   C     C_R   0.962489 0.539384 0.470525 0.001499
C20   C     C_R   0.619514 0.474536 0.783101 -0.061436
C21   C     C_R   0.375631 0.490349 0.216731 -0.061864
C22   C     C_R   0.779064 0.438442 0.941010 -0.189691
C23   C     C_R   0.638669 0.419728 0.111747 -0.204510
C24   C     C_R   0.209064 0.458275 0.060527 -0.192569
C25   C     C_R   0.743887 0.459408 0.843859 -0.192406
C26   C     C_R   0.248738 0.479756 0.156899 -0.189850
C27   C     C_R   0.531076 0.465689 0.819275 -0.246672
C28   C     C_R   0.461449 0.478494 0.180118 -0.243136
C29   C     C_R   0.562989 0.440287 0.915007 0.094841
C30   C     C_R   0.424263 0.450139 0.086038 0.092045
C31   C     C_R   0.689736 0.430839 0.977304 0.173946
C32   C     C_R   0.296097 0.444536 0.024455 0.165456
C33   C     C_R   0.472490 0.431790 0.951059 0.060574
C34   C     C_R   0.343863 0.422851 0.890927 -0.198613
C35   C     C_R   0.512311 0.433666 0.050790 0.067446
C36   C     C_R   0.725515 0.416341 0.075024 -0.214230
C37   C     C_R   0.257137 0.427026 0.927696 -0.206606
C38   C     C_R   0.540255 0.812379 0.504448 -0.061013
C39   C     C_R   0.459686 0.187654 0.495383 -0.059542
C40   C     C_R   0.333320 0.028514 0.444731 -0.239874
H1    H     H_    0.821615 0.406576 0.123653 0.151172
H2    H     H_    0.110775 0.452410 0.014302 0.131940
H3    H     H_    0.672286 0.408691 0.188137 0.155305
H4    H     H_    0.307838 0.409900 0.815328 0.173785
H5    H     H_    0.342264 0.828109 0.434546 0.169728
H6    H     H_    0.657668 0.171899 0.565353 0.170093
H7    H     H_    0.242999 0.988097 0.411407 0.156084
H8    H     H_    0.756923 0.011995 0.588185 0.157332
H9    H     H_    0.783140 0.606988 0.422274 0.171387
H10   H     H_    0.216921 0.393028 0.577857 0.168644
H11   H     H_    0.817860 0.823502 0.656879 0.188308
H12   H     H_    0.159460 0.420349 0.879660 0.163694
H13   H     H_    0.823487 0.835990 0.549718 0.207435
H14   H     H_    0.182328 0.176726 0.342583 0.185797
H15   H     H_    0.176246 0.164118 0.449579 0.208552
H16   H     H_    0.833106 0.350541 0.612275 0.149919
H17   H     H_    0.165775 0.648035 0.386091 0.150569
H18   H     H_    0.558208 0.494007 0.225824 0.167414
H19   H     H_    0.437201 0.482770 0.772123 0.164015
H20   H     H_    0.180818 0.487731 0.184444 0.160005
H21   H     H_    0.813517 0.464664 0.816630 0.158199
H22   H     H_    0.875933 0.429543 0.987885 0.131447
I1    I     I_    0.908882 0.729626 0.326867 -0.434812
I2    I     I_    0.086674 0.264822 0.666937 -0.473412
N1    N     N_R   0.799120 0.480200 0.517090 -0.116641
N2    N     N_R   0.200880 0.519800 0.482910 -0.116191
N3    N     N_3   0.768955 0.807686 0.584209 -0.426208
N4    N     N_3   0.231012 0.192445 0.415290 -0.427187
O1    O     O_R   0.580150 0.341050 0.504560 -0.631650
O2    O     O_R   0.419850 0.658950 0.495440 -0.629739
O3    O     O_R   0.388090 0.353760 0.493600 -0.591940
O4    O     O_R   0.611910 0.646240 0.506400 -0.590661
O5    O     O_R   0.650890 0.490020 0.640860 -0.618290
O6    O     O_R   0.349110 0.509980 0.359140 -0.618583
O7    O     O_R   0.458830 0.502730 0.629890 -0.619217
O8    O     O_R   0.541170 0.497270 0.370110 -0.619494
Zn1   Zn    Zn3+2 0.628240 0.491510 0.507320 0.957170
Zn2   Zn    Zn3+2 0.371760 0.508490 0.492680 0.957525

loop_
_geom_bond_atom_site_label_1
_geom_bond_atom_site_label_2
_ccdc_geom_bond_type
C40   H7    S    
C21   C26   A    
C6    H5    S    
O2    Zn2   S    
C16   O7    A    
C24   H2    S    
C14   C18   A    
O1    Zn1   S    
C3    N4    S    
H11   N3    S    
H15   N4    S    
C7    C8    A    
C13   N1    A    
C15   C19   A    
C1    O3    A    
C30   C35   A    
C24   C26   A    
H14   N4    S    
C20   C25   A    
C34   C37   A    
C29   C33   A    
C23   H3    S    
C27   C29   A    
C18   C19   A    
C9    C19   A    
C2    C7    A    
C22   C25   A    
C17   O8    A    
C6    C38   A    
C11   N2    A    
C13   H16   S    
C12   O4    A    
C3    C39   A    
C36   H1    S    
N2    Zn2   S    
N1    Zn1   S    
C22   C31   A    
C16   O5    A    
C34   H4    S    
O8    Zn1   S    
C5    C7    A    
C37   H12   S    
C6    C8    A    
C2    H8    S    
C1    O1    A    
C2    C4    A    
C24   C32   A    
O4    Zn1   S    
C22   H22   S    
C16   C20   S    
C33   C34   A    
C14   N2    A    
C25   H21   S    
C32   C37   A    
C9    C11   A    
C21   C28   A    
C4    C38   A    
C3    C40   A    
C23   C35   A    
C5    C39   A    
C17   O6    A    
C12   O2    A    
C9    I1    S    
C10   I2    S    
C10   C13   A    
C4    N3    S    
C20   C27   A    
C28   H18   S    
C5    H6    S    
C28   C30   A    
C29   C31   A    
C27   H19   S    
C30   C32   A    
C14   H10   S    
C10   C18   A    
C33   C35   A    
C15   H9    S    
C12   C38   S    
H13   N3    S    
O7    Zn2   S    
C17   C21   S    
C1    C39   S    
C23   C36   A    
O6    Zn2   S    
O5    Zn1   S    
C31   C36   A    
C8    C40   A    
C11   H17   S    
C26   H20   S    
O3    Zn2   S    
C15   N1    A    
