data_mof_unit_42000.cif
_audit_creation_date              2012-12-10T17:10:22-0500
_audit_creation_method            fapswitch 2.2
_symmetry_space_group_name_H-M    P1
_symmetry_Int_Tables_number       1
_space_group_crystal_system       triclinic
_cell_length_a                    10.882521
_cell_length_b                    13.049984
_cell_length_c                    11.686578
_cell_angle_alpha                 100.971519
_cell_angle_beta                  93.837257
_cell_angle_gamma                 90.362576
_cell_volume                      1625.39287431

loop_
_atom_site_label
_atom_site_type_symbol
_atom_type_description
_atom_site_fract_x
_atom_site_fract_y
_atom_site_fract_z
_atom_type_partial_charge
C1    C     C_R   0.500304 0.298692 0.477913 0.985346
C2    C     C_R   0.497262 0.701147 0.522707 0.892886
C3    C     C_R   0.491093 0.815470 0.538977 -0.261535
C4    C     C_R   0.501398 0.184198 0.464537 -0.242930
C5    C     C_R   0.443236 0.012421 0.350755 0.410764
C6    C     C_R   0.538581 0.987258 0.656090 0.419784
C7    C     C_R   0.447681 0.121652 0.361281 0.282272
C8    C     C_R   0.540571 0.878122 0.643751 0.313079
C9    C     C_R   0.551062 0.136925 0.556478 0.372415
C10   C     C_R   0.435389 0.863007 0.450482 0.419276
C11   C     C_R   0.519217 0.031573 0.555424 -0.186903
C12   C     C_R   0.464455 0.968796 0.451493 -0.178628
C13   C     C_R   0.383894 0.402322 0.020480 -0.299490
C14   C     C_R   0.612661 0.600255 0.980239 -0.284364
C15   C     C_R   0.392783 0.412716 0.143221 0.595731
C16   C     C_R   0.602535 0.591103 0.857622 0.614977
C17   C     C_R   0.553459 0.540041 0.159009 0.623310
C18   C     C_R   0.456318 0.451873 0.840076 0.664589
C19   C     C_R   0.543988 0.534111 0.035061 -0.097963
C20   C     C_R   0.461470 0.461116 0.964555 -0.115262
C21   C     C_R   0.262689 0.512345 0.501194 0.832220
C22   C     C_R   0.737898 0.497386 0.498510 0.829446
C23   C     C_R   0.124463 0.657907 0.684393 0.279489
C24   C     C_R   0.879619 0.386826 0.301545 0.285757
C25   C     C_R   0.070865 0.756234 0.715552 0.302308
C26   C     C_R   0.913636 0.394616 0.188803 0.251002
C27   C     C_R   0.942257 0.764788 0.693267 0.353166
C28   C     C_R   0.022734 0.450821 0.178603 0.292702
C29   C     C_R   0.875010 0.678048 0.631095 -0.174001
C30   C     C_R   0.094123 0.495026 0.279659 -0.133748
C31   C     C_R   0.935203 0.587707 0.577769 -0.054902
C32   C     C_R   0.055892 0.490360 0.391745 -0.034135
C33   C     C_R   0.064804 0.585090 0.592029 -0.049517
C34   C     C_R   0.935130 0.456928 0.399101 -0.065234
C35   C     C_R   0.871742 0.507402 0.496222 -0.044487
C36   C     C_R   0.127670 0.528163 0.497727 -0.044353
Cu1   Cu    Cu3+1 0.509250 0.507730 0.615930 1.143337
Cu2   Cu    Cu3+1 0.490750 0.492270 0.384070 1.121025
H1    H     H_    0.313870 0.349970 0.970813 0.173611
H2    H     H_    0.673556 0.660124 0.031269 0.175289
H3    H     H_    0.777165 0.687093 0.614016 0.210316
H4    H     H_    0.174488 0.539874 0.268123 0.221307
N1    N     N_R   0.523180 0.519350 0.790130 -0.207931
N2    N     N_R   0.476820 0.480650 0.209870 -0.217455
O1    O     O_R   0.506570 0.354460 0.582000 -0.537046
O2    O     O_R   0.493430 0.645540 0.418000 -0.528734
O3    O     O_R   0.490940 0.341410 0.386200 -0.473581
O4    O     O_R   0.509060 0.658590 0.613800 -0.496957
O5    O     O_R   0.327470 0.506520 0.597900 -0.513752
O6    O     O_R   0.672530 0.493480 0.402100 -0.568846
O7    O     O_R   0.311840 0.493460 0.402100 -0.573603
O8    O     O_R   0.688160 0.506540 0.597900 -0.552544
O9    O     O_3   0.066377 0.461465 0.073151 -0.693201
H5    H     H_    0.031711 0.404790 0.010786 0.394790
O10   O     O_3   0.878094 0.854500 0.730520 -0.670127
H6    H     H_    0.928413 0.901970 0.792089 0.398801
S1    S     S_3+6 0.188805 0.609665 0.805641 0.070542
O11   O     O_2   0.178796 0.492625 0.783027 -0.248211
O12   O     O_2   0.320799 0.645466 0.829483 -0.259278
O13   O     O_3   0.111627 0.657377 0.923669 -0.473191
H7    H     H_    0.160222 0.636838 0.990145 0.391953
S2    S     S_3+6 0.838701 0.260977 0.323388 0.082388
O14   O     O_2   0.701711 0.249729 0.321645 -0.249047
O15   O     O_2   0.884802 0.179243 0.228035 -0.206079
O16   O     O_3   0.904119 0.241993 0.451850 -0.492309
H8    H     H_    0.884999 0.168100 0.454070 0.403448
S3    S     S_3+6 0.165408 0.864762 0.784044 0.063042
O17   O     O_2   0.146056 0.888896 0.912454 -0.215253
O18   O     O_2   0.298635 0.841153 0.767150 -0.251886
O19   O     O_3   0.127645 0.969113 0.724844 -0.502013
H9    H     H_    0.187630 0.024659 0.762835 0.381301
S4    S     S_3+6 0.816614 0.340270 0.063421 0.063820
O20   O     O_2   0.873122 0.242571 0.000369 -0.197352
O21   O     O_2   0.690719 0.314749 0.097010 -0.229364
O22   O     O_3   0.803809 0.427198 0.974163 -0.562363
H10   H     H_    0.761454 0.388749 0.900871 0.388387
S5    S     S_3+6 0.309734 0.798036 0.357845 0.079230
O23   O     O_2   0.244813 0.725381 0.420338 -0.372365
O24   O     O_2   0.218515 0.875990 0.326437 -0.197044
O25   O     O_3   0.363200 0.729439 0.235030 -0.458972
H11   H     H_    0.291552 0.687602 0.193998 0.355423
S6    S     S_3+6 0.668427 0.202226 0.660746 0.078414
O26   O     O_2   0.611308 0.249853 0.771531 -0.258090
O27   O     O_2   0.763166 0.125032 0.687166 -0.196921
O28   O     O_3   0.740378 0.297130 0.610780 -0.519985
H12   H     H_    0.800934 0.328553 0.675169 0.383631
O29   O     O_3   0.588296 0.831838 0.733499 -0.636073
H13   H     H_    0.645109 0.881739 0.786614 0.371272
O30   O     O_3   0.399771 0.168404 0.271925 -0.646396
H14   H     H_    0.335227 0.121854 0.224651 0.353870
O31   O     O_3   0.424681 0.947306 0.242742 -0.615757
H15   H     H_    0.448819 0.984855 0.181317 0.354576
O32   O     O_3   0.548575 0.050804 0.765356 -0.624018
H16   H     H_    0.520319 0.011400 0.823652 0.353229
O33   O     O_3   0.383290 0.377119 0.766759 -0.642283
H17   H     H_    0.380540 0.313509 0.800964 0.330155
O34   O     O_3   0.638549 0.605002 0.230876 -0.679188
H18   H     H_    0.715957 0.603767 0.190775 0.316919
O35   O     O_3   0.673664 0.652729 0.803720 -0.656911
H19   H     H_    0.728489 0.698732 0.863418 0.334127
O36   O     O_3   0.317856 0.354482 0.197955 -0.651878
H20   H     H_    0.261986 0.309277 0.138510 0.328738

loop_
_geom_bond_atom_site_label_1
_geom_bond_atom_site_label_2
_ccdc_geom_bond_type
O10   H6    S    
O36   H20   S    
C27   C29   A    
C26   S4    S    
C19   C20   A    
C25   S3    S    
O29   H13   S    
C21   O5    A    
O34   H18   S    
C21   C36   S    
S5    O23   D    
C2    O2    A    
C22   C35   S    
O32   H16   S    
C32   C36   A    
Cu1   Cu2   S    
C24   C26   A    
C15   N2    A    
S4    O22   S    
C27   O10   S    
S1    O12   D    
C7    O30   S    
C33   C36   A    
C34   C35   A    
S2    O15   D    
O33   H17   S    
C23   C33   A    
C31   C33   A    
O19   H9    S    
C13   C20   A    
C9    S6    S    
S4    O20   D    
C18   O33   S    
C4    C7    A    
C10   S5    S    
S5    O24   D    
C1    C4    S    
Cu2   O2    S    
S3    O17   D    
C5    C12   A    
S4    O21   D    
C3    C8    A    
C6    C11   A    
C5    C7    A    
Cu1   O8    S    
C1    O3    A    
S1    O13   S    
C6    C8    A    
Cu2   O7    S    
C2    O4    A    
O28   H12   S    
C24   C34   A    
O13   H7    S    
S3    O18   D    
C32   C34   A    
Cu1   N1    S    
O22   H10   S    
Cu2   N2    S    
S2    O14   D    
Cu1   O5    S    
O35   H19   S    
C11   C12   A    
C6    O32   S    
C15   O36   S    
Cu1   O4    S    
C9    C11   A    
C16   N1    A    
Cu2   O3    S    
C5    O31   S    
C10   C12   A    
O16   H8    S    
S6    O27   D    
C13   C15   A    
C14   C16   A    
Cu1   O1    S    
C21   O7    A    
C22   O8    A    
S5    O25   S    
C23   S1    S    
C24   S2    S    
S2    O16   S    
C29   H3    S    
C14   C19   A    
O25   H11   S    
C28   O9    S    
C16   O35   S    
O9    H5    S    
Cu2   O6    S    
C25   C27   A    
S6    O28   S    
C26   C28   A    
C22   O6    A    
C8    O29   S    
S3    O19   S    
C28   C30   A    
C2    C3    S    
C4    C9    A    
C17   N2    A    
C29   C31   A    
C3    C10   A    
C18   N1    A    
C30   C32   A    
C1    O1    A    
S1    O11   D    
C31   C35   A    
C17   C19   A    
C18   C20   A    
C23   C25   A    
C13   H1    S    
C14   H2    S    
S6    O26   D    
C30   H4    S    
O30   H14   S    
C17   O34   S    
O31   H15   S    
