data_mof_unit_32883.cif
_audit_creation_date              2012-12-11T14:23:12-0500
_audit_creation_method            fapswitch 2.2
_symmetry_space_group_name_H-M    P1
_symmetry_Int_Tables_number       1
_space_group_crystal_system       triclinic
_cell_length_a                    11.213328
_cell_length_b                    10.985462
_cell_length_c                    18.757045
_cell_angle_alpha                 89.765464
_cell_angle_beta                  90.31
_cell_angle_gamma                 59.941661
_cell_volume                      1999.73534895

loop_
_atom_site_label
_atom_site_type_symbol
_atom_type_description
_atom_site_fract_x
_atom_site_fract_y
_atom_site_fract_z
_atom_type_partial_charge
C1    C     C_R   0.284235 0.624008 0.616461 0.546357
C2    C     C_R   0.556081 0.185635 0.718141 0.197689
C3    C     C_R   0.567183 0.200902 0.789752 -0.101006
C4    C     C_R   0.654653 0.622152 0.601192 0.543501
C5    C     C_R   0.946162 0.061071 0.803753 -0.033454
C6    C     C_R   0.057448 0.013063 0.758260 -0.106600
C7    C     C_R   0.043326 0.992325 0.686208 -0.091970
C8    C     C_R   0.914279 0.033087 0.657726 -0.100528
C9    C     C_R   0.666025 0.155684 0.672470 -0.010579
C10   C     C_R   0.207794 0.643316 0.842507 0.003239
C11   C     C_R   0.203669 0.535995 0.802398 0.009796
C12   C     C_3   0.640645 0.624804 0.804821 -0.194875
C13   C     C_R   0.206664 0.541854 0.726892 0.014775
C14   C     C_R   0.289463 0.706916 0.737791 -0.175834
C15   C     C_R   0.265085 0.716760 0.810895 -0.159036
C16   C     C_R   0.628828 0.223399 0.601315 0.536696
C17   C     C_R   0.196800 0.423315 0.834995 -0.121087
C18   C     C_R   0.183776 0.324793 0.793898 -0.131059
C19   C     C_R   0.166294 0.343082 0.719937 0.062187
C20   C     C_R   0.167863 0.457310 0.688166 -0.070314
C21   C     C_R   0.250499 0.629822 0.693662 0.001645
C22   C     C_R   0.730221 0.701725 0.182232 -0.023814
C23   C     C_3   0.721845 0.705177 0.807553 0.036152
C24   C     C_R   0.801296 0.565230 0.213583 0.032777
C25   C     C_R   0.743828 0.541789 0.273338 0.020840
C26   C     C_R   0.624595 0.792713 0.296907 -0.134300
C27   C     C_R   0.649483 0.816487 0.226299 -0.132499
C28   C     C_R   0.286410 0.622707 0.392765 0.543426
C29   C     C_R   0.926211 0.450402 0.187920 -0.089294
C30   C     C_R   0.981981 0.317438 0.217719 -0.111543
C31   C     C_R   0.911263 0.293966 0.270574 -0.091241
C32   C     C_R   0.782382 0.401864 0.289540 -0.077967
C33   C     C_R   0.662488 0.655769 0.318933 -0.009822
C34   C     C_3   0.682196 0.655332 0.675170 0.024910
C35   C     C_R   0.664706 0.158934 0.176234 -0.020562
C36   C     C_R   0.532545 0.227527 0.204418 -0.001069
C37   C     C_R   0.516673 0.214494 0.277517 0.024829
C38   C     C_R   0.762865 0.111267 0.296101 -0.186386
C39   C     C_R   0.782219 0.103306 0.222934 0.018150
C40   C     C_R   0.641174 0.622873 0.391962 0.517278
C41   C     C_R   0.415704 0.296993 0.159808 -0.074395
C42   C     C_R   0.288514 0.326636 0.184258 -0.092180
C43   C     C_R   0.273397 0.299951 0.255005 -0.095144
C44   C     C_R   0.385599 0.242224 0.300731 -0.053393
C45   C     C_3   0.831419 0.626492 0.684411 -0.246128
C46   C     C_R   0.632454 0.173634 0.323640 -0.033537
C47   C     C_R   0.169832 0.654804 0.176880 0.039700
C48   C     C_R   0.272620 0.686546 0.195486 0.033427
C49   C     C_R   0.290845 0.703595 0.268170 0.010216
C50   C     C_R   0.143695 0.608004 0.299155 -0.112959
C51   C     C_R   0.100616 0.625055 0.229446 -0.127113
C52   C     C_R   0.613341 0.229796 0.395406 0.516739
C53   C     C_R   0.330370 0.734957 0.143794 -0.138288
C54   C     C_R   0.359948 0.839339 0.161905 -0.044817
C55   C     C_R   0.345374 0.883954 0.232152 0.250074
C56   C     C_3   0.659605 0.559181 0.730912 -0.040375
C57   C     C_R   0.327885 0.804986 0.286011 -0.075185
C58   C     C_R   0.243165 0.641977 0.318970 0.025481
C59   C     C_R   0.704368 0.099236 0.895403 0.525595
C60   C     C_R   0.754651 0.714775 0.883441 0.556090
C61   C     C_R   0.123223 0.701383 0.907710 0.524918
C62   C     C_R   0.679328 0.103976 0.104211 0.528230
C63   C     C_R   0.738136 0.718128 0.104710 0.564203
C64   C     C_3   0.627556 0.847200 0.768428 -0.247685
C65   C     C_R   0.097588 0.705595 0.110385 0.533438
C66   C     C_3   0.588699 0.814768 0.693423 -0.258252
C67   C     C_R   0.696102 0.148631 0.821516 -0.039637
C68   C     C_3   0.858902 0.634435 0.764821 -0.241008
C69   C     C_2   0.780691 0.408986 0.734899 0.541287
C70   C     C_2   0.169354 0.233237 0.672765 0.590554
C71   C     C_2   0.927652 0.040999 0.199980 0.601656
C72   C     C_R   0.814228 0.099375 0.777040 0.032896
C73   C     C_R   0.798247 0.095781 0.701779 -0.000906
Cr1   Cr    Cr6+3 0.392940 0.397950 0.502230 1.038535
Cr2   Cr    Cr6+3 0.398400 0.708500 0.501260 1.014505
Cr3   Cr    Cr6+3 0.708640 0.393530 0.496460 1.057469
Cr4   Cr    Cr6+3 0.937880 0.938320 0.007620 1.032112
Cr5   Cr    Cr6+3 0.625560 0.937220 0.994510 0.993732
Cr6   Cr    Cr6+3 0.938080 0.625010 0.001190 0.988814
H1    H     H_    0.683450 0.906104 0.762230 0.130076
H2    H     H_    0.532068 0.914783 0.798833 0.145920
H3    H     H_    0.210515 0.404951 0.891898 0.139430
H4    H     H_    0.282991 0.788811 0.842126 0.120199
H5    H     H_    0.184124 0.236735 0.820204 0.109466
H6    H     H_    0.138835 0.476276 0.632853 0.166654
H7    H     H_    0.569204 0.880584 0.332485 0.137654
H8    H     H_    0.987459 0.462872 0.148211 0.146432
H9    H     H_    0.605410 0.922898 0.206109 0.175389
H10   H     H_    0.080169 0.232892 0.199848 0.158575
H11   H     H_    0.956277 0.192636 0.296395 0.137920
H12   H     H_    0.926827 0.527948 0.786428 0.193269
H13   H     H_    0.479197 0.843028 0.692737 0.159301
H14   H     H_    0.718671 0.378948 0.322157 0.160474
H15   H     H_    0.849716 0.075061 0.332552 0.152437
H16   H     H_    0.423387 0.322769 0.104836 0.123749
H17   H     H_    0.203229 0.371053 0.147606 0.101734
H18   H     H_    0.174884 0.326676 0.276562 0.111703
H19   H     H_    0.366857 0.211320 0.352150 0.146662
H20   H     H_    0.092810 0.576895 0.338137 0.139542
H21   H     H_    0.330730 0.710347 0.087889 0.119785
H22   H     H_    0.009140 0.621505 0.217145 0.110684
H23   H     H_    0.906626 0.521942 0.663429 0.178224
H24   H     H_    0.601612 0.880038 0.652199 0.122475
H25   H     H_    0.382410 0.893710 0.120582 0.155539
H26   H     H_    0.326989 0.837474 0.339964 0.148255
H27   H     H_    0.913421 0.694936 0.771534 0.108991
H28   H     H_    0.846285 0.704940 0.653855 0.113369
H29   H     H_    0.666901 0.547705 0.849139 0.187629
H30   H     H_    0.529125 0.699129 0.813309 0.089153
H31   H     H_    0.566375 0.553522 0.716492 0.081224
H32   H     H_    0.928341 0.256403 0.679141 0.362934
H33   H     H_    0.464853 0.117032 0.657532 0.349700
H34   H     H_    0.964331 0.080217 0.857854 0.175024
H35   H     H_    0.301696 0.070793 0.736340 0.295559
H36   H     H_    0.066779 0.051933 0.136206 0.332089
H37   H     H_    0.323446 0.028852 0.297567 0.305714
H38   H     H_    0.476362 0.232259 0.821692 0.167478
H39   H     H_    0.155012 0.993375 0.779528 0.123276
H40   H     H_    0.130312 0.955414 0.651264 0.208766
H41   H     H_    0.904610 0.021996 0.600967 0.131833
H42   H     H_    0.332367 0.766641 0.714885 0.123974
O1    O     O_R   0.507340 0.255690 0.581430 -0.495311
O2    O     O_R   0.837290 0.593240 0.915240 -0.493002
O3    O     O_R   0.065320 0.635310 0.931580 -0.529082
O4    O     O_R   0.280360 0.527380 0.578910 -0.493249
O5    O     O_R   0.068470 0.828620 0.091850 -0.487588
O6    O     O_R   0.799150 0.057200 0.079350 -0.449510
O7    O     O_R   0.585220 0.080180 0.076770 -0.532851
O8    O     O_R   0.627170 0.809480 0.067050 -0.497567
O9    O     O_R   0.816200 0.596410 0.076500 -0.513955
O10   O     O_R   0.045770 0.638240 0.081070 -0.559936
O11   O     O_3   0.833840 0.833520 0.001110 -0.299671
O12   O     O_R   0.524510 0.695820 0.424050 -0.537829
O13   O     O_R   0.260600 0.739610 0.584580 -0.523107
O14   O     O_R   0.532370 0.695050 0.573830 -0.519595
O15   O     O_R   0.744850 0.503430 0.576380 -0.439760
O16   O     O_R   0.699080 0.276500 0.571950 -0.451649
O17   O     O_R   0.498860 0.256520 0.419860 -0.544686
O18   O     O_R   0.272490 0.528150 0.429140 -0.499482
O19   O     O_R   0.252110 0.740440 0.423010 -0.517731
O20   O     O_2   0.841856 0.357573 0.791080 -0.561929
O21   O     O_R   0.830023 0.332663 0.673180 -0.640908
O22   O     O_3   0.438922 0.189285 0.694887 -0.699021
O23   O     O_R   0.736370 0.504260 0.414810 -0.516725
O24   O     O_2   0.112749 0.265981 0.614365 -0.506098
O25   O     O_R   0.247777 0.090636 0.690204 -0.723897
O26   O     O_2   0.018036 0.944822 0.234858 -0.547921
O27   O     O_R   0.963736 0.101313 0.144354 -0.659349
O28   O     O_3   0.346739 0.005686 0.246665 -0.735055
O29   O     O_R   0.691220 0.277270 0.422180 -0.527361
O30   O     O_3   0.499990 0.499990 0.499980 -0.297998
O31   O     O_R   0.089570 0.825450 0.930590 -0.532995
O32   O     O_R   0.818700 0.054260 0.929860 -0.504981
O33   O     O_R   0.606310 0.077010 0.915520 -0.539687
O34   O     O_R   0.646730 0.806540 0.917560 -0.506855

loop_
_geom_bond_atom_site_label_1
_geom_bond_atom_site_label_2
_ccdc_geom_bond_type
C71   O26   D    
C34   C56   S    
C41   C42   A    
C57   H26   S    
C16   O16   A    
C28   O19   A    
Cr5   O7    S    
C34   C66   S    
Cr3   O15   S    
Cr2   O13   S    
C7    C8    A    
C41   H16   S    
C53   C54   A    
C1    C21   S    
Cr1   O17   S    
C12   C23   S    
C50   H20   S    
C68   H27   S    
C61   O3    A    
C42   H17   S    
C14   C21   A    
C54   H25   S    
C36   C37   A    
Cr5   O8    S    
C1    O4    A    
C17   H3    S    
C5    C72   A    
Cr2   O19   S    
C30   C31   A    
Cr2   O14   S    
Cr5   O34   S    
Cr1   O4    S    
C69   O20   D    
C46   C52   S    
C68   H12   S    
C49   C57   A    
C67   C72   A    
C63   O9    A    
Cr5   O11   S    
C24   C29   A    
H37   O28   S    
C16   O1    A    
C3    H38   S    
H32   O21   S    
Cr4   O32   S    
C22   C63   S    
C44   H19   S    
C19   C20   A    
Cr2   O30   S    
C18   H5    S    
C70   O25   S    
Cr4   O6    S    
C4    O15   A    
C59   C67   S    
C25   C32   A    
C71   O27   S    
C14   H42   S    
C2    O22   S    
C64   H1    S    
C36   C41   A    
C23   C60   S    
C28   O18   A    
C9    C73   A    
C30   H10   S    
Cr4   O31   S    
C56   H31   S    
C12   H30   S    
C65   O10   A    
C59   O33   A    
C55   O28   S    
C53   H21   S    
C59   O32   A    
C48   C53   A    
C4    C34   S    
C33   C40   S    
C38   C46   A    
C50   C58   A    
C7    H40   S    
C38   C39   A    
C24   C25   A    
H35   O25   S    
C45   H23   S    
C12   H29   S    
Cr5   O33   S    
C66   H13   S    
Cr3   O30   S    
C50   C51   A    
C69   O21   S    
Cr3   O16   S    
Cr6   O9    S    
Cr6   O2    S    
H36   O27   S    
C49   C58   A    
Cr4   O11   S    
C64   C66   S    
C23   C68   S    
C60   O2    A    
C35   C39   A    
C43   C44   A    
C29   C30   A    
C26   C33   A    
C52   O17   A    
C47   C48   A    
Cr3   O29   S    
C26   H7    S    
C31   H11   S    
Cr6   O10   S    
C20   H6    S    
C38   H15   S    
C45   C68   S    
C17   C18   A    
C26   C27   A    
C13   C21   A    
C70   O24   D    
C12   C56   S    
C34   C45   S    
C4    O14   A    
Cr3   O23   S    
C48   C49   A    
Cr1   O1    S    
C22   C27   A    
C55   C57   A    
C23   C64   S    
C22   C24   A    
Cr1   O30   S    
C10   C61   S    
C42   C43   A    
C1    O13   A    
C8    H41   S    
Cr6   O3    S    
C40   O12   A    
C54   C55   A    
C11   C17   A    
C13   C20   A    
C5    H34   S    
C66   H24   S    
C9    C16   S    
C31   C32   A    
C3    C67   A    
C43   H18   S    
C72   C73   A    
C47   C51   A    
Cr2   O12   S    
C6    C7    A    
C28   C58   S    
C51   H22   S    
Cr1   O18   S    
C10   C15   A    
C65   O5    A    
C37   C44   A    
C40   O23   A    
C2    C3    A    
C60   O34   A    
C62   O7    A    
C11   C13   A    
C5    C6    A    
H33   O22   S    
C15   H4    S    
Cr6   O11   S    
C8    C73   A    
C47   C65   S    
C32   H14   S    
C35   C62   S    
C63   O8    A    
C27   H9    S    
C61   O31   A    
C64   H2    S    
C29   H8    S    
C10   C11   A    
C62   O6    A    
C52   O29   A    
C56   C69   S    
C18   C19   A    
C39   C71   S    
C14   C15   A    
C19   C70   S    
C35   C36   A    
C37   C46   A    
C2    C9    A    
C6    H39   S    
Cr4   O5    S    
C45   H28   S    
C25   C33   A    
