data_mof_unit_43780.cif
_audit_creation_date              2012-12-10T18:04:43-0500
_audit_creation_method            fapswitch 2.2
_symmetry_space_group_name_H-M    P1
_symmetry_Int_Tables_number       1
_space_group_crystal_system       triclinic
_cell_length_a                    19.492996
_cell_length_b                    17.672832
_cell_length_c                    12.638301
_cell_angle_alpha                 89.686302
_cell_angle_beta                  99.651711
_cell_angle_gamma                 89.991027
_cell_volume                      4292.15465297

loop_
_atom_site_label
_atom_site_type_symbol
_atom_type_description
_atom_site_fract_x
_atom_site_fract_y
_atom_site_fract_z
_atom_type_partial_charge
C1    C     C_R   0.408936 0.100542 0.442067 0.914950
C2    C     C_R   0.774686 0.776640 0.642322 0.156893
C3    C     C_R   0.284318 0.708285 0.647131 0.157740
C4    C     C_R   0.189258 0.186625 0.571987 0.164645
C5    C     C_R   0.350476 0.739776 0.672358 -0.249614
C6    C     C_R   0.218484 0.115085 0.566915 -0.251092
C7    C     C_R   0.837865 0.254174 0.665805 -0.245236
C8    C     C_R   0.844372 0.755976 0.655563 -0.239000
C9    C     C_R   0.378771 0.778534 0.593981 -0.145658
C10   C     C_R   0.272013 0.104645 0.508463 -0.154361
C11   C     C_R   0.867566 0.283794 0.582642 -0.143015
C12   C     C_R   0.411597 0.896439 0.444218 0.883916
C13   C     C_R   0.869846 0.721148 0.572175 -0.147460
C14   C     C_R   0.668590 0.198109 0.517007 -0.216772
C15   C     C_R   0.668068 0.800960 0.520828 -0.230894
C16   C     C_R   0.180127 0.686560 0.518552 -0.226033
C17   C     C_R   0.185821 0.319366 0.525900 -0.214030
C18   C     C_R   0.677601 0.156165 0.701320 -0.198586
C19   C     C_R   0.685229 0.853368 0.699578 -0.197018
C20   C     C_R   0.186377 0.643225 0.701557 -0.204453
C21   C     C_R   0.108707 0.270259 0.640800 -0.200389
C22   C     C_R   0.364004 0.833351 0.410688 -0.252494
C23   C     C_R   0.908973 0.600492 0.442409 0.906040
C24   C     C_R   0.357229 0.159158 0.405416 -0.257141
C25   C     C_R   0.854033 0.345524 0.406191 -0.255291
C26   C     C_R   0.848670 0.648528 0.404910 -0.257354
C27   C     C_R   0.643071 0.984397 0.135511 -0.304524
C28   C     C_R   0.143741 0.487741 0.135744 -0.334550
C29   C     C_R   0.378661 0.993245 0.760624 0.036890
C30   C     C_R   0.878700 0.493295 0.760910 0.031905
C31   C     C_R   0.353521 0.979452 0.854990 -0.266613
C32   C     C_R   0.853879 0.478766 0.855364 -0.257015
C33   C     C_R   0.590740 0.899877 0.557949 0.841116
C34   C     C_R   0.910475 0.398016 0.443362 0.908501
C35   C     C_R   0.590201 0.100709 0.557314 0.873212
C36   C     C_R   0.089239 0.397601 0.556500 0.841616
C37   C     C_R   0.091027 0.600343 0.557510 0.841966
C38   C     C_R   0.400275 0.975785 0.950694 -0.144020
C39   C     C_R   0.900894 0.474659 0.950802 -0.131154
C40   C     C_R   0.472037 0.989632 0.952513 0.020773
C41   C     C_R   0.972595 0.488914 0.952394 0.008440
C42   C     C_R   0.495412 0.996380 0.853635 0.229318
C43   C     C_R   0.995698 0.496024 0.853447 0.217801
C44   C     C_R   0.521680 0.993108 0.047634 0.004872
C45   C     C_R   0.729091 0.240065 0.541868 0.108299
C46   C     C_R   0.022364 0.492860 0.047426 0.016023
C47   C     C_R   0.593692 0.987961 0.041809 0.161951
C48   C     C_R   0.094383 0.489152 0.041756 0.167081
C49   C     C_R   0.615486 0.989041 0.942522 -0.285460
C50   C     C_R   0.116039 0.490009 0.942342 -0.283963
C51   C     C_R   0.566823 0.996393 0.849725 -0.218425
C52   C     C_R   0.067165 0.496280 0.849433 -0.212182
C53   C     C_R   0.503258 0.006190 0.148276 0.189167
C54   C     C_R   0.003810 0.505705 0.147832 0.131262
C55   C     C_R   0.620659 0.988312 0.233679 -0.012015
C56   C     C_R   0.730317 0.761501 0.543678 0.114172
C57   C     C_R   0.121030 0.491400 0.233902 0.005771
C58   C     C_R   0.740630 0.194067 0.727264 -0.199536
C59   C     C_R   0.750149 0.818561 0.722241 -0.198647
C60   C     C_R   0.252464 0.675171 0.727766 -0.200217
C61   C     C_R   0.139025 0.198949 0.637834 -0.199263
C62   C     C_R   0.644211 0.154799 0.594290 -0.065221
C63   C     C_R   0.646518 0.847815 0.596156 -0.057195
C64   C     C_R   0.150827 0.647887 0.595763 -0.066428
C65   C     C_R   0.131399 0.330102 0.582476 -0.063448
C66   C     C_R   0.335811 0.824681 0.301290 0.605008
C67   C     C_R   0.249143 0.710077 0.539415 0.113051
C68   C     C_R   0.372430 0.214698 0.332764 0.602338
C69   C     C_R   0.816621 0.353901 0.301761 0.630710
C70   C     C_R   0.804248 0.628969 0.309715 0.601770
C71   C     C_R   0.286511 0.769178 0.269392 -0.277243
C72   C     C_R   0.327012 0.274513 0.304603 -0.271561
C73   C     C_R   0.747036 0.334063 0.280484 -0.272395
C74   C     C_R   0.734342 0.647100 0.295704 -0.262053
C75   C     C_R   0.259335 0.726193 0.345581 0.009638
C76   C     C_R   0.269696 0.284697 0.356124 0.012186
C77   C     C_R   0.714461 0.304205 0.361663 -0.006017
C78   C     C_R   0.210414 0.246934 0.510185 0.116302
C79   C     C_R   0.707034 0.684417 0.375967 0.003898
C80   C     C_R   0.282359 0.739773 0.456923 0.074465
C81   C     C_R   0.258259 0.233679 0.439212 0.079450
C82   C     C_R   0.755511 0.281435 0.461428 0.076086
C83   C     C_R   0.752931 0.715154 0.465438 0.075808
C84   C     C_R   0.342253 0.784525 0.487609 -0.032015
C85   C     C_R   0.296151 0.165192 0.451155 -0.019436
C86   C     C_R   0.826310 0.302474 0.482790 -0.029309
C87   C     C_R   0.824426 0.696363 0.479573 -0.027550
C88   C     C_R   0.768678 0.231801 0.646498 0.157694
F1    F     F_    0.356136 0.869221 0.224386 -0.690754
F2    F     F_    0.431675 0.212006 0.289724 -0.678057
F3    F     F_    0.844117 0.390102 0.223834 -0.672121
F4    F     F_    0.824812 0.581826 0.237567 -0.679144
H1    H     H_    0.658626 0.122597 0.762263 0.155324
H2    H     H_    0.843118 0.494778 0.685408 0.151691
H3    H     H_    0.379566 0.958243 0.020852 0.205551
H4    H     H_    0.880417 0.456775 0.021030 0.218362
H5    H     H_    0.298578 0.969560 0.853665 0.156401
H6    H     H_    0.798985 0.468754 0.854330 0.167241
H7    H     H_    0.586287 0.000271 0.775811 0.204413
H8    H     H_    0.086584 0.499879 0.775468 0.211943
H9    H     H_    0.379244 0.736975 0.753484 0.152745
H10   H     H_    0.201687 0.067770 0.611121 0.140096
H11   H     H_    0.870215 0.244204 0.743132 0.147729
H12   H     H_    0.668719 0.890195 0.758709 0.149031
H13   H     H_    0.880041 0.770715 0.727818 0.146794
H14   H     H_    0.769577 0.189382 0.808098 0.142960
H15   H     H_    0.782857 0.828596 0.799044 0.139905
H16   H     H_    0.279379 0.672124 0.809980 0.141245
H17   H     H_    0.121510 0.152948 0.683667 0.139335
H18   H     H_    0.644086 0.191167 0.434791 0.195111
H19   H     H_    0.639499 0.803135 0.440124 0.184760
H20   H     H_    0.148130 0.696806 0.441456 0.173742
H21   H     H_    0.206978 0.368726 0.492480 0.167821
H22   H     H_    0.268448 0.760030 0.184610 0.170505
H23   H     H_    0.164364 0.612950 0.762569 0.152923
H24   H     H_    0.337020 0.314331 0.243527 0.171139
H25   H     H_    0.716627 0.348322 0.203124 0.178077
H26   H     H_    0.699748 0.625082 0.226650 0.177807
H27   H     H_    0.430227 0.802087 0.617286 0.177881
H28   H     H_    0.293491 0.048312 0.507051 0.154258
H29   H     H_    0.923165 0.293689 0.598002 0.155124
H30   H     H_    0.925438 0.711530 0.582248 0.153492
H31   H     H_    0.657705 0.983681 0.307415 0.145727
H32   H     H_    0.158015 0.489399 0.307852 0.149788
H33   H     H_    0.413974 0.002635 0.210425 0.268099
H34   H     H_    0.065799 0.277744 0.684250 0.152912
H35   H     H_    0.442453 0.091470 0.183505 0.261342
H36   H     H_    0.916637 0.501430 0.210338 0.329153
H37   H     H_    0.944023 0.590773 0.183527 0.237736
H38   H     H_    0.621146 0.274794 0.276252 0.207852
H39   H     H_    0.623412 0.361616 0.332118 0.206308
H40   H     H_    0.617714 0.625286 0.371764 0.201515
H41   H     H_    0.609360 0.706388 0.299182 0.190590
H42   H     H_    0.241575 0.627126 0.266308 0.190656
H43   H     H_    0.171747 0.684968 0.255802 0.187597
H44   H     H_    0.201135 0.330730 0.235365 0.206065
H45   H     H_    0.670321 0.986939 0.936731 0.149446
H46   H     H_    0.246951 0.393804 0.318935 0.170075
H47   H     H_    0.170883 0.488722 0.936504 0.155437
H48   H     H_    0.698091 0.978555 0.132781 0.150882
H49   H     H_    0.198938 0.483905 0.133293 0.144236
H50   H     H_    0.343251 0.994102 0.685061 0.135457
N1    N     N_R   0.552340 0.000000 0.237260 -0.115870
N2    N     N_3   0.220348 0.342278 0.315950 -0.457030
N3    N     N_R   0.052340 0.500000 0.237260 -0.120478
N4    N     N_R   0.448170 0.000000 0.762060 -0.131749
N5    N     N_R   0.948170 0.500000 0.762060 -0.134100
N6    N     N_3   0.436273 0.035775 0.156855 -0.466025
N7    N     N_3   0.937237 0.535251 0.155935 -0.407796
N8    N     N_3   0.639877 0.305545 0.345576 -0.444909
N9    N     N_3   0.633074 0.681980 0.371746 -0.466387
N10   N     N_3   0.214497 0.663970 0.309039 -0.460100
O1    O     O_R   0.448200 0.076800 0.373930 -0.584383
O2    O     O_R   0.585240 0.076800 0.457600 -0.608632
O3    O     O_R   0.085240 0.423200 0.457600 -0.602208
O4    O     O_R   0.085240 0.576800 0.457600 -0.609973
O5    O     O_R   0.551780 0.923190 0.626070 -0.638975
O6    O     O_R   0.551780 0.076810 0.626070 -0.631468
O7    O     O_R   0.051780 0.423190 0.626070 -0.639589
O8    O     O_R   0.051780 0.576810 0.626070 -0.637449
O9    O     O_R   0.448200 0.923200 0.373930 -0.564207
O10   O     O_R   0.948200 0.576800 0.373930 -0.603916
O11   O     O_R   0.948200 0.423200 0.373930 -0.561606
O12   O     O_R   0.414750 0.076790 0.542400 -0.615208
O13   O     O_R   0.414750 0.923210 0.542400 -0.636818
O14   O     O_R   0.914750 0.576790 0.542400 -0.613305
O15   O     O_R   0.914750 0.423210 0.542400 -0.624472
O16   O     O_R   0.585240 0.923200 0.457600 -0.622902
Zn1   Zn    Zn3+2 0.522330 0.000000 0.387520 0.971088
Zn2   Zn    Zn3+2 0.022330 0.500000 0.387520 0.965352
Zn3   Zn    Zn3+2 0.477660 0.000000 0.612480 0.925308
Zn4   Zn    Zn3+2 0.977660 0.500000 0.612480 0.924227

loop_
_geom_bond_atom_site_label_1
_geom_bond_atom_site_label_2
_ccdc_geom_bond_type
O13   Zn3   S    
C83   C87   A    
C10   C85   A    
O14   Zn4   S    
C8    C13   A    
C13   H30   S    
C49   H45   S    
C45   C82   A    
H41   N9    S    
C35   O2    A    
C80   C84   A    
C61   H17   S    
C8    H13   S    
C17   H21   S    
C30   N5    A    
C39   C41   A    
C28   C57   A    
H40   N9    S    
C5    C9    A    
C37   O8    A    
C38   C40   A    
C57   N3    A    
C27   C55   A    
C43   C52   A    
C23   C26   S    
C11   C86   A    
H43   N10   S    
C14   C62   A    
C12   C22   S    
C32   C39   A    
O4    Zn2   S    
O11   Zn2   S    
C22   C66   A    
C36   O7    A    
C12   O9    A    
C44   C53   A    
C18   C58   A    
H38   N8    S    
C7    C88   A    
C1    O12   A    
C19   C63   A    
C26   C87   A    
C49   C51   A    
C38   H3    S    
C70   C74   A    
C50   C52   A    
C41   C46   A    
C69   C73   A    
C20   C60   A    
C75   C80   A    
C21   C61   A    
C60   H16   S    
C44   C47   A    
C68   C72   A    
H35   N6    S    
C23   O10   A    
O9    Zn1   S    
C3    C60   A    
C40   C42   A    
C70   F4    S    
C7    H11   S    
N4    Zn3   S    
C41   C43   A    
C37   O4    A    
C13   C87   A    
C11   H29   S    
C33   O5    A    
C66   F1    S    
C55   H31   S    
C51   H7    S    
C74   H26   S    
C5    H9    S    
C55   N1    A    
O7    Zn4   S    
C30   C32   A    
C15   H19   S    
C45   C88   A    
C73   H25   S    
N1    Zn1   S    
C47   C49   A    
C34   O11   A    
C29   N4    A    
C2    C59   A    
C18   C62   A    
O12   Zn3   S    
C19   C59   A    
C82   C86   A    
C4    C61   A    
C52   H8    S    
C53   N6    S    
C59   H15   S    
C71   H22   S    
C53   N1    A    
C22   C84   A    
C77   N8    S    
C7    C11   A    
C4    C78   A    
C23   O14   A    
C19   H12   S    
C68   F2    S    
C66   C71   A    
O10   Zn2   S    
C75   N10   S    
C33   C63   S    
H42   N10   S    
C46   C54   A    
O8    Zn4   S    
C72   C76   A    
C16   C67   A    
C1    O1    A    
O15   Zn4   S    
C54   N3    A    
C76   N2    S    
C4    C6    A    
O16   Zn1   S    
C74   C79   A    
C9    H27   S    
C33   O16   A    
C25   C69   A    
O1    Zn1   S    
C34   O15   A    
C42   N4    A    
C31   H5    S    
C12   O13   A    
C37   C64   S    
N5    Zn4   S    
C16   H20   S    
C56   C83   A    
C79   N9    S    
C24   C85   A    
C27   C47   A    
C14   H18   S    
C72   H24   S    
N3    Zn2   S    
C28   C48   A    
C15   C63   A    
C21   C65   A    
C50   H47   S    
C2    C8    A    
C67   C80   A    
C3    C5    A    
H33   N6    S    
C58   C88   A    
C76   C81   A    
C6    C10   A    
C20   H23   S    
C14   C45   A    
C42   C51   A    
C25   C34   S    
C17   C65   A    
C27   H48   S    
C31   C38   A    
C17   C78   A    
C15   C56   A    
C36   C65   S    
C21   H34   S    
C35   O6    A    
C29   C31   A    
C2    C56   A    
O5    Zn3   S    
C57   H32   S    
C71   C75   A    
C20   C64   A    
C78   C81   A    
C3    C67   A    
C77   C82   A    
C26   C70   A    
C29   H50   S    
C48   C50   A    
C25   C86   A    
C32   H6    S    
C35   C62   S    
C6    H10   S    
O6    Zn3   S    
C39   H4    S    
C43   N5    A    
C24   C68   A    
C9    C84   A    
C79   C83   A    
C46   C48   A    
O3    Zn2   S    
H36   N7    S    
C40   C44   A    
O2    Zn1   S    
C1    C24   S    
H44   N2    S    
C30   H2    S    
C18   H1    S    
C73   C77   A    
H39   N8    S    
H46   N2    S    
C28   H49   S    
C16   C64   A    
C58   H14   S    
H37   N7    S    
C69   F3    S    
C10   H28   S    
C81   C85   A    
C54   N7    S    
C36   O3    A    
