data_mof_unit_39837.cif
_audit_creation_date              2012-12-10T17:07:09-0500
_audit_creation_method            fapswitch 2.2
_symmetry_space_group_name_H-M    P1
_symmetry_Int_Tables_number       1
_space_group_crystal_system       triclinic
_cell_length_a                    17.162209
_cell_length_b                    11.022183
_cell_length_c                    9.813526
_cell_angle_alpha                 111.256598
_cell_angle_beta                  93.229293
_cell_angle_gamma                 92.076148
_cell_volume                      1724.12775889

loop_
_atom_site_label
_atom_site_type_symbol
_atom_type_description
_atom_site_fract_x
_atom_site_fract_y
_atom_site_fract_z
_atom_type_partial_charge
C1    C     C_R   0.494417 0.254186 0.441252 0.844328
C2    C     C_R   0.505586 0.745814 0.558747 0.844432
C3    C     C_2   0.491428 0.114704 0.408125 -0.365992
C4    C     C_2   0.508584 0.885296 0.591873 -0.365976
C5    C     C_2   0.501387 0.069601 0.516298 -0.154960
C6    C     C_2   0.498637 0.930398 0.483696 -0.154952
C7    C     C_2   0.505926 0.511764 0.080432 -0.075140
C8    C     C_2   0.494073 0.488236 0.919567 -0.075150
C9    C     C_R   0.352076 0.503588 0.521365 0.773638
C10   C     C_R   0.647923 0.496405 0.478634 0.773698
C11   C     C_R   0.268539 0.508667 0.539398 -0.104772
C12   C     C_R   0.731455 0.491247 0.460578 -0.104696
C13   C     C_R   0.230196 0.620734 0.540256 0.102578
C14   C     C_R   0.769727 0.379036 0.459427 0.102568
C15   C     C_R   0.149207 0.621900 0.553228 -0.165670
C16   C     C_R   0.850706 0.377753 0.446346 -0.165761
C17   C     C_R   0.107777 0.514817 0.564038 0.070274
C18   C     C_R   0.892197 0.484873 0.435753 0.069793
C19   C     C_R   0.146503 0.407978 0.570611 -0.210219
C20   C     C_R   0.853543 0.591889 0.429526 -0.209941
C21   C     C_R   0.226937 0.402757 0.557332 0.132663
C22   C     C_R   0.773118 0.597212 0.442884 0.132729
C23   C     C_2   0.022332 0.512687 0.563748 0.099671
C24   C     C_2   0.977638 0.486873 0.435989 0.099405
Cu1   Cu    Cu3+1 0.513640 0.521550 0.643210 0.931887
Cu2   Cu    Cu3+1 0.486360 0.478450 0.356790 0.931874
H1    H     H_    0.113304 0.326356 0.580528 0.135946
H2    H     H_    0.886789 0.673541 0.419776 0.135850
H3    H     H_    0.883062 0.295865 0.447993 0.146761
H4    H     H_    0.116800 0.703669 0.551352 0.146715
H5    H     H_    0.488370 0.864436 0.370057 0.182517
H6    H     H_    0.511659 0.135563 0.629937 0.182524
H7    H     H_    0.518907 0.951538 0.705299 0.152035
H8    H     H_    0.481100 0.048462 0.294699 0.152048
H9    H     H_    0.450526 0.413745 0.852241 0.160146
H10   H     H_    0.549473 0.586256 0.147757 0.160090
H11   H     H_    0.574670 0.624971 0.925084 0.192509
H12   H     H_    0.425330 0.375029 0.074916 0.192510
N1    N     N_2   0.465840 0.446060 0.141630 -0.284501
N2    N     N_2   0.534160 0.553940 0.858370 -0.284488
O1    O     O_R   0.507280 0.332200 0.576490 -0.578120
O2    O     O_R   0.492720 0.667800 0.423510 -0.578090
O3    O     O_R   0.484240 0.295800 0.334620 -0.574014
O4    O     O_R   0.515760 0.704200 0.665380 -0.574025
O5    O     O_R   0.399260 0.520290 0.634950 -0.565826
O6    O     O_R   0.600740 0.479710 0.365050 -0.565847
O7    O     O_R   0.376220 0.483890 0.393080 -0.577496
O8    O     O_R   0.623780 0.516110 0.606920 -0.577500
C25   C     C_3   0.277250 0.735835 0.527111 -0.371184
C26   C     C_3   0.231879 0.855511 0.537752 -0.872802
H13   H     H_    0.186034 0.830772 0.445810 0.246436
H14   H     H_    0.205118 0.894234 0.644451 0.252436
H15   H     H_    0.272637 0.933163 0.530410 0.252416
H16   H     H_    0.325368 0.767969 0.615558 0.197568
H17   H     H_    0.304127 0.702551 0.420266 0.217578
C27   C     C_3   0.722608 0.263916 0.472389 -0.371235
C28   C     C_3   0.767921 0.144159 0.461644 -0.872761
H18   H     H_    0.794662 0.105443 0.354924 0.252420
H19   H     H_    0.813775 0.168802 0.553560 0.246460
H20   H     H_    0.727127 0.066540 0.468959 0.252420
H21   H     H_    0.695714 0.297137 0.579218 0.217531
H22   H     H_    0.674503 0.231904 0.383916 0.197615
C29   C     C_3   0.734645 0.718990 0.442959 -0.396407
C30   C     C_3   0.725810 0.721741 0.288550 -0.828183
H23   H     H_    0.691728 0.632811 0.213355 0.253399
H24   H     H_    0.694499 0.808707 0.290461 0.236236
H25   H     H_    0.784095 0.727029 0.246546 0.245689
H26   H     H_    0.676206 0.726880 0.487185 0.195628
H27   H     H_    0.770700 0.806837 0.515789 0.193739
C31   C     C_3   0.265475 0.281114 0.557541 -0.396307
C32   C     C_3   0.274191 0.278507 0.712026 -0.828153
H28   H     H_    0.308186 0.367529 0.787248 0.253392
H29   H     H_    0.215868 0.273141 0.753860 0.245669
H30   H     H_    0.305543 0.191634 0.710318 0.236213
H31   H     H_    0.229510 0.193169 0.484675 0.193697
H32   H     H_    0.323965 0.273304 0.513516 0.195680
C33   C     C_3   0.011665 0.456893 0.288406 -0.404654
C34   C     C_3   0.030858 0.314116 0.221468 -0.833583
H33   H     H_    0.076814 0.291096 0.290776 0.253651
H34   H     H_    0.977658 0.249464 0.209222 0.247390
H35   H     H_    0.052558 0.294311 0.111423 0.239157
H36   H     H_    0.968441 0.476194 0.211050 0.203136
H37   H     H_    0.064317 0.521326 0.297012 0.204327
C35   C     C_3   0.988292 0.542717 0.711326 -0.404757
C36   C     C_3   0.969528 0.685678 0.778539 -0.833661
H38   H     H_    0.022978 0.749911 0.791286 0.247475
H39   H     H_    0.923909 0.709290 0.709102 0.253536
H40   H     H_    0.947568 0.705440 0.888377 0.239210
H41   H     H_    0.935435 0.478700 0.702650 0.204480
H42   H     H_    0.031370 0.522894 0.788523 0.203048

loop_
_geom_bond_atom_site_label_1
_geom_bond_atom_site_label_2
_ccdc_geom_bond_type
C14   C27   S    
C9    O5    A    
C7    H10   S    
C7    C8    S    
C36   H38   S    
C17   C23   S    
C18   C24   S    
C19   C21   A    
H11   N2    S    
Cu1   N2    S    
C5    C6    S    
C34   H34   S    
Cu2   N1    S    
C28   H19   S    
C33   H37   S    
C25   H16   S    
C12   C22   A    
C27   C28   S    
C22   C29   S    
C4    H7    S    
C1    O3    A    
C29   H27   S    
C2    O4    A    
C10   O6    A    
C26   H14   S    
C23   C24   D    
C31   C32   S    
C19   H1    S    
C18   C20   A    
C33   C34   S    
C5    H6    S    
C6    H5    S    
C35   H42   S    
Cu1   O4    S    
Cu2   O3    S    
C36   H39   S    
C26   H15   S    
C23   C35   S    
C30   H25   S    
C35   C36   S    
C4    C6    D    
Cu1   O1    S    
C32   H29   S    
C34   H33   S    
C28   H20   S    
C20   H2    S    
C3    H8    S    
C16   H3    S    
C25   H17   S    
C11   C21   A    
C1    C3    S    
C8    H9    S    
C30   H24   S    
C2    C4    S    
C26   H13   S    
C9    C11   S    
Cu1   O8    S    
C10   C12   S    
Cu2   O7    S    
C13   C25   S    
C1    O1    A    
C20   C22   A    
C9    O7    A    
C13   C15   A    
C10   O8    A    
C14   C16   A    
C35   H41   S    
Cu1   O5    S    
Cu2   O2    S    
C15   H4    S    
C36   H40   S    
C15   C17   A    
C29   H26   S    
C12   C14   A    
C3    C5    D    
C32   H30   S    
C21   C31   S    
C30   H23   S    
Cu1   Cu2   S    
C32   H28   S    
C31   H32   S    
C11   C13   A    
C34   H35   S    
C28   H18   S    
H12   N1    S    
C33   H36   S    
C2    O2    A    
C17   C19   A    
C27   H22   S    
Cu2   O6    S    
C29   C30   S    
C24   C33   S    
C16   C18   A    
C25   C26   S    
C31   H31   S    
C7    N1    D    
C27   H21   S    
C8    N2    D    
