data_mof_unit_50777.cif
_audit_creation_date              2012-12-10T19:51:55-0500
_audit_creation_method            fapswitch 2.2
_symmetry_space_group_name_H-M    P1
_symmetry_Int_Tables_number       1
_space_group_crystal_system       triclinic
_cell_length_a                    27.831204
_cell_length_b                    10.808622
_cell_length_c                    26.468243
_cell_angle_alpha                 89.594455
_cell_angle_beta                  89.554818
_cell_angle_gamma                 90.049843
_cell_volume                      7961.65331065

loop_
_atom_site_label
_atom_site_type_symbol
_atom_type_description
_atom_site_fract_x
_atom_site_fract_y
_atom_site_fract_z
_atom_type_partial_charge
C1    C     C_R   0.499902 0.262285 0.500139 0.835899
C2    C     C_R   0.500122 0.737716 0.499865 0.835791
C3    C     C_R   0.253451 0.500535 0.495824 0.309463
C4    C     C_R   0.746465 0.498381 0.503912 0.312638
C5    C     C_R   0.101767 0.499774 0.495394 -0.045060
C6    C     C_R   0.898078 0.497669 0.503879 -0.044880
C7    C     C_R   0.127482 0.387843 0.492907 -0.016777
C8    C     C_R   0.872511 0.609043 0.509859 -0.017107
C9    C     C_R   0.102502 0.275921 0.492107 -0.147050
C10   C     C_R   0.897650 0.720048 0.514529 -0.147246
C11   C     C_R   0.127313 0.612261 0.496175 -0.023442
C12   C     C_R   0.872386 0.385953 0.499694 -0.023869
C13   C     C_R   0.354293 0.499630 0.500518 -0.043150
C14   C     C_R   0.645669 0.500269 0.499452 -0.042302
C15   C     C_R   0.974382 0.384479 0.496616 0.043614
C16   C     C_R   0.025394 0.613064 0.501001 0.043762
C17   C     C_R   0.974409 0.612182 0.504943 0.043188
C18   C     C_R   0.025497 0.384757 0.495774 0.043324
C19   C     C_R   0.949180 0.498090 0.501855 0.067146
C20   C     C_R   0.050662 0.499198 0.497340 0.066955
C21   C     C_R   0.947279 0.274139 0.492187 -0.203944
C22   C     C_R   0.052273 0.724413 0.500250 -0.203860
C23   C     C_R   0.407316 0.499107 0.500255 0.814804
C24   C     C_R   0.592671 0.500919 0.499744 0.814786
C25   C     C_R   0.897408 0.275151 0.493780 -0.147387
C26   C     C_R   0.102128 0.723702 0.498075 -0.147103
C27   C     C_R   0.052637 0.274085 0.493621 -0.205163
C28   C     C_R   0.947495 0.721840 0.512281 -0.205767
C29   C     C_R   0.345830 0.225423 0.445740 -0.108161
C30   C     C_R   0.654062 0.774372 0.554693 -0.108022
C31   C     C_R   0.382042 0.162175 0.471539 -0.183518
C32   C     C_R   0.617987 0.837989 0.528826 -0.185091
C33   C     C_R   0.425662 0.135405 0.447044 0.105048
C34   C     C_R   0.574263 0.864579 0.553147 0.105359
C35   C     C_R   0.432734 0.172937 0.396626 -0.072641
C36   C     C_R   0.566981 0.826669 0.603488 -0.072222
C37   C     C_R   0.396829 0.238566 0.371336 -0.124208
C38   C     C_R   0.602752 0.760705 0.628846 -0.124383
C39   C     C_R   0.353358 0.264537 0.395844 -0.109780
C40   C     C_R   0.646305 0.734782 0.604490 -0.108580
C41   C     C_R   0.463344 0.935478 0.473819 0.126693
C42   C     C_R   0.536675 0.064527 0.526217 0.127142
C43   C     C_R   0.500036 0.871634 0.499707 -0.131483
C44   C     C_R   0.499988 0.128369 0.500316 -0.131364
C45   C     C_R   0.514227 0.721748 0.055189 -0.203653
C46   C     C_R   0.485703 0.278332 0.944813 -0.203663
C47   C     C_R   0.536335 0.934785 0.526168 -0.043875
C48   C     C_R   0.463666 0.065217 0.473901 -0.043909
C49   C     C_R   0.506961 0.607413 0.188049 0.540925
C50   C     C_R   0.493003 0.392653 0.811952 0.540926
C51   C     C_R   0.492488 0.390314 0.188575 0.535210
C52   C     C_R   0.507574 0.609711 0.811424 0.535169
C53   C     C_R   0.533678 0.429546 0.296027 -0.226960
C54   C     C_R   0.466380 0.570643 0.703970 -0.227122
C55   C     C_R   0.533160 0.431324 0.348984 0.030631
C56   C     C_R   0.466894 0.568850 0.651014 0.030363
C57   C     C_R   0.466399 0.566989 0.349057 0.050330
C58   C     C_R   0.533563 0.432889 0.650944 0.050404
C59   C     C_R   0.465593 0.567543 0.296125 -0.233930
C60   C     C_R   0.534374 0.432348 0.703876 -0.234060
C61   C     C_R   0.499635 0.498502 0.268936 0.358597
C62   C     C_R   0.500377 0.501540 0.731063 0.358582
C63   C     C_R   0.499840 0.499347 0.107801 -0.042023
C64   C     C_R   0.500174 0.500700 0.892200 -0.042032
C65   C     C_R   0.506970 0.609699 0.134674 -0.026620
C66   C     C_R   0.492997 0.390366 0.865327 -0.026623
C67   C     C_R   0.177909 0.390334 0.491890 0.530300
C68   C     C_R   0.822082 0.606859 0.510906 0.531022
C69   C     C_R   0.514111 0.720007 0.107804 -0.146314
C70   C     C_R   0.485808 0.280077 0.892197 -0.146332
C71   C     C_R   0.492625 0.388663 0.135196 -0.023008
C72   C     C_R   0.507435 0.611363 0.864804 -0.022981
C73   C     C_R   0.507346 0.612949 0.972719 0.041586
C74   C     C_R   0.492687 0.387090 0.027281 0.041589
C75   C     C_R   0.492756 0.387438 0.973240 0.041791
C76   C     C_R   0.507238 0.612616 0.026760 0.041790
C77   C     C_R   0.500092 0.500362 0.946289 0.069539
C78   C     C_R   0.499922 0.499684 0.053711 0.069542
C79   C     C_R   0.514503 0.722405 0.943785 -0.204261
C80   C     C_R   0.485594 0.277607 0.056214 -0.204252
C81   C     C_R   0.514559 0.721314 0.891170 -0.146615
C82   C     C_R   0.485549 0.278693 0.108829 -0.146614
C83   C     C_R   0.177764 0.610666 0.495406 0.541648
C84   C     C_R   0.821941 0.387896 0.500695 0.541832
C85   C     C_R   0.280669 0.549796 0.455931 -0.119770
C86   C     C_R   0.719308 0.447225 0.543434 -0.119460
C87   C     C_R   0.330613 0.549387 0.458249 -0.277342
C88   C     C_R   0.669357 0.448331 0.541277 -0.277594
C89   C     C_R   0.326687 0.449075 0.541095 0.108952
C90   C     C_R   0.673238 0.552614 0.459232 0.109493
C91   C     C_R   0.276440 0.450795 0.538130 -0.115417
C92   C     C_R   0.723488 0.550643 0.462123 -0.117137
Cu1   Cu    Cu3+1 0.500000 0.500020 0.550150 0.943577
Cu2   Cu    Cu3+1 0.500000 0.499980 0.449850 0.943740
H1    H     H_    0.440778 0.622636 0.630287 0.132256
H2    H     H_    0.559320 0.377674 0.369709 0.132675
H3    H     H_    0.963281 0.184660 0.486654 0.135538
H4    H     H_    0.036022 0.814683 0.500673 0.134836
H5    H     H_    0.036670 0.183422 0.493785 0.134997
H6    H     H_    0.963714 0.811315 0.517142 0.136117
H7    H     H_    0.325484 0.314856 0.376186 0.138208
H8    H     H_    0.674071 0.684172 0.624194 0.139070
H9    H     H_    0.312034 0.244897 0.464529 0.180327
H10   H     H_    0.687930 0.754994 0.536034 0.180817
H11   H     H_    0.375988 0.132853 0.510274 0.142701
H12   H     H_    0.624222 0.867717 0.490174 0.142771
H13   H     H_    0.466167 0.152400 0.377229 0.138929
H14   H     H_    0.533471 0.847088 0.622761 0.138748
H15   H     H_    0.402639 0.268843 0.332698 0.149890
H16   H     H_    0.596769 0.730091 0.667413 0.150082
H17   H     H_    0.520236 0.807954 0.871155 0.186237
H18   H     H_    0.479922 0.192033 0.128844 0.186231
H19   H     H_    0.520267 0.811608 0.960446 0.135951
H20   H     H_    0.479893 0.188379 0.039553 0.135928
H21   H     H_    0.439975 0.619872 0.369788 0.120263
H22   H     H_    0.559958 0.379911 0.630213 0.120263
H23   H     H_    0.438583 0.620921 0.276437 0.151801
H24   H     H_    0.561354 0.378868 0.723564 0.151854
H25   H     H_    0.519667 0.806433 0.127419 0.186213
H26   H     H_    0.480202 0.193671 0.872582 0.186210
H27   H     H_    0.254742 0.412965 0.568710 0.147934
H28   H     H_    0.745190 0.589999 0.431868 0.146061
H29   H     H_    0.121453 0.188472 0.490606 0.186742
H30   H     H_    0.878846 0.806779 0.519862 0.186835
H31   H     H_    0.519962 0.811191 0.038120 0.135813
H32   H     H_    0.479905 0.188914 0.961882 0.135825
H33   H     H_    0.439606 0.624891 0.723743 0.155781
H34   H     H_    0.560490 0.375428 0.276252 0.155840
H35   H     H_    0.649135 0.407989 0.572426 0.161003
H36   H     H_    0.350833 0.588306 0.426801 0.161587
H37   H     H_    0.736970 0.406946 0.575926 0.151504
H38   H     H_    0.263062 0.588041 0.423004 0.153438
H39   H     H_    0.878487 0.188063 0.490077 0.186414
H40   H     H_    0.120901 0.811577 0.497982 0.185975
N1    N     N_R   0.201951 0.500650 0.493680 -0.460619
N2    N     N_R   0.797932 0.497450 0.505874 -0.461214
N3    N     N_R   0.499699 0.498713 0.214111 -0.452315
N4    N     N_R   0.500314 0.501332 0.785889 -0.452290
N5    N     N_R   0.500000 0.499970 0.374520 -0.167642
N6    N     N_R   0.500000 0.500030 0.625480 -0.167538
O1    O     O_R   0.500000 0.319660 0.542350 -0.579000
O2    O     O_R   0.500000 0.680340 0.457650 -0.578900
O3    O     O_R   0.500000 0.319630 0.457650 -0.583954
O4    O     O_R   0.500000 0.680370 0.542350 -0.584114
O5    O     O_R   0.430260 0.500030 0.542340 -0.586114
O6    O     O_R   0.569740 0.499970 0.457660 -0.586114
O7    O     O_R   0.430270 0.500010 0.457650 -0.584515
O8    O     O_R   0.569730 0.499990 0.542350 -0.584414
O9    O     O_2   0.515431 0.715632 0.785355 -0.549503
O10   O     O_2   0.484681 0.284370 0.214644 -0.549384
O11   O     O_2   0.202771 0.283381 0.489117 -0.554758
O12   O     O_2   0.797324 0.713175 0.516839 -0.554878
O13   O     O_2   0.797059 0.281465 0.495789 -0.535471
O14   O     O_2   0.202461 0.718052 0.497212 -0.536158
O15   O     O_2   0.514676 0.713090 0.213592 -0.538250
O16   O     O_2   0.485238 0.286998 0.786410 -0.538293
C93   C     C_3   0.423806 0.863926 0.447387 -0.818731
H41   H     H_    0.393693 0.922132 0.434082 0.240574
H42   H     H_    0.438943 0.816918 0.413773 0.235008
H43   H     H_    0.407945 0.794090 0.473612 0.214066
C94   C     C_3   0.576206 0.136082 0.552653 -0.819792
H44   H     H_    0.606309 0.077876 0.565980 0.240462
H45   H     H_    0.592079 0.205888 0.526423 0.214030
H46   H     H_    0.561058 0.183121 0.586254 0.235026
C95   C     C_3   0.349338 0.389258 0.586722 -0.807388
H47   H     H_    0.322093 0.344358 0.611680 0.223698
H48   H     H_    0.375094 0.316646 0.574652 0.233032
H49   H     H_    0.368110 0.460096 0.609430 0.244640
C96   C     C_3   0.650518 0.614409 0.414080 -0.808289
H50   H     H_    0.677719 0.660651 0.389482 0.223758
H51   H     H_    0.631813 0.544524 0.390828 0.245482
H52   H     H_    0.624663 0.686206 0.426706 0.232175

loop_
_geom_bond_atom_site_label_1
_geom_bond_atom_site_label_2
_ccdc_geom_bond_type
Cu2   O6    S    
C56   H1    S    
C38   C40   A    
C63   C65   A    
Cu1   Cu2   S    
C22   H4    S    
C49   N3    A    
C36   H14   S    
C2    O4    A    
C64   C77   A    
C15   C18   A    
C29   H9    S    
C30   H10   S    
C94   H44   S    
C42   C94   S    
C50   O16   S    
C57   H21   S    
C5    C20   A    
C15   C19   A    
C6    C19   A    
C23   O5    A    
C27   H5    S    
C95   H47   S    
C49   C65   A    
C45   C76   A    
C52   C72   A    
Cu2   O3    S    
C87   H36   S    
C3    C91   A    
C35   C37   A    
C76   C78   A    
C5    C11   A    
C10   H30   S    
C85   H38   S    
C6    C12   A    
C56   N6    A    
C86   C88   A    
C86   H37   S    
C57   C59   A    
C4    C86   A    
C58   C60   A    
C83   O14   S    
C55   N5    A    
C12   C84   A    
Cu1   O8    S    
C60   C62   A    
C96   H50   S    
C14   C24   S    
C14   C90   A    
C22   C26   A    
C26   H40   S    
C33   C35   A    
C53   C61   A    
C93   H41   S    
C81   H17   S    
C51   O10   S    
C70   H26   S    
C16   C17   A    
C52   N4    A    
C31   C33   A    
C60   H24   S    
C89   C91   A    
C25   H39   S    
C37   H15   S    
C72   C81   A    
C4    N2    S    
C71   C82   A    
C28   H6    S    
C64   C66   A    
C53   C55   A    
C59   H23   S    
C74   C80   A    
C58   H22   S    
Cu2   N5    S    
C41   C43   A    
C13   C87   A    
C95   H48   S    
C51   C71   A    
C88   H35   S    
C46   C75   A    
C94   H45   S    
C13   C23   S    
C49   O15   S    
C39   H7    S    
C85   C87   A    
C54   C56   A    
C59   C61   A    
C74   C75   A    
C45   C69   A    
Cu2   O2    S    
C68   N2    A    
C35   H13   S    
C80   C82   A    
C24   O8    A    
C45   H31   S    
C5    C7    A    
C52   O9    S    
C6    C8    A    
C54   C62   A    
C11   C26   A    
C11   C83   A    
C23   O7    A    
C69   H25   S    
C32   C34   A    
C67   N1    A    
C68   O12   S    
C53   H34   S    
C92   H28   S    
C21   H3    S    
C84   O13   S    
C1    C44   S    
C90   C92   A    
C2    C43   S    
C16   C20   A    
C29   C39   A    
C50   N4    A    
C73   C79   A    
C30   C40   A    
C62   N4    S    
Cu1   O5    S    
C75   C77   A    
C89   C95   S    
Cu1   O4    S    
C41   C93   S    
C51   N3    A    
C8    C10   A    
C80   H20   S    
C8    C68   A    
C95   H49   S    
C79   H19   S    
C91   H27   S    
C2    O2    A    
C96   H52   S    
C10   C28   A    
C3    C85   A    
C38   H16   S    
C17   C19   A    
C94   H46   S    
Cu1   O1    S    
C9    C27   A    
C79   C81   A    
C96   H51   S    
C58   N6    A    
Cu2   O7    S    
C7    C9    A    
C21   C25   A    
C84   N2    A    
C16   C22   A    
C13   C89   A    
C29   C31   A    
C17   C28   A    
C83   N1    A    
C46   H32   S    
C18   C27   A    
C63   C71   A    
C55   H2    S    
C18   C20   A    
C50   C66   A    
C1    O3    A    
C93   H43   S    
C54   H33   S    
C74   C78   A    
C12   C25   A    
C36   C38   A    
C42   C44   A    
C14   C88   A    
C37   C39   A    
Cu1   N6    S    
C24   O6    A    
C30   C32   A    
C61   N3    S    
C66   C70   A    
C67   O11   S    
C65   C69   A    
C90   C96   S    
C9    H29   S    
C41   C48   A    
C3    N1    S    
C42   C47   A    
C64   C72   A    
C46   C70   A    
C57   N5    A    
C1    O1    A    
C40   H8    S    
C15   C21   A    
C73   C76   A    
C34   C36   A    
C93   H42   S    
C31   H11   S    
C7    C67   A    
C33   C48   S    
C73   C77   A    
C32   H12   S    
C34   C47   S    
C43   C47   A    
C44   C48   A    
C82   H18   S    
C4    C92   A    
C63   C78   A    
