data_mof_unit_34080.cif
_audit_creation_date              2012-12-11T15:38:59-0500
_audit_creation_method            fapswitch 2.2
_symmetry_space_group_name_H-M    P1
_symmetry_Int_Tables_number       1
_space_group_crystal_system       triclinic
_cell_length_a                    14.29996
_cell_length_b                    14.784057
_cell_length_c                    33.212129
_cell_angle_alpha                 97.912678
_cell_angle_beta                  90.366819
_cell_angle_gamma                 118.810466
_cell_volume                      6072.28274296

loop_
_atom_site_label
_atom_site_type_symbol
_atom_type_description
_atom_site_fract_x
_atom_site_fract_y
_atom_site_fract_z
_atom_type_partial_charge
C1    C     C_R   0.617467 0.909482 0.437234 0.541982
C2    C     C_R   0.740182 0.419609 0.187538 0.065397
C3    C     C_R   0.693413 0.914890 0.660698 0.003536
C4    C     C_R   0.628516 0.808738 0.665047 0.038972
C5    C     C_R   0.631810 0.869686 0.588568 0.009749
C6    C     C_R   0.052764 0.781610 0.063671 0.541561
C7    C     C_R   0.744370 0.487509 0.066431 0.546164
C8    C     C_R   0.742716 0.789718 0.066497 0.544293
C9    C     C_R   0.020409 0.731093 0.946922 0.542514
C10   C     C_R   0.712052 0.437101 0.949132 0.536645
C11   C     C_R   0.710563 0.739125 0.950050 0.542813
C12   C     C_R   0.832997 0.446558 0.166420 0.109857
C13   C     C_R   0.830887 0.460327 0.125634 -0.133858
C14   C     C_R   0.739607 0.320489 0.243695 0.158666
C15   C     C_R   0.736334 0.314099 0.285467 -0.114138
C16   C     C_R   0.731706 0.391062 0.313908 -0.009471
C17   C     C_R   0.735047 0.479577 0.301082 0.139333
C18   C     C_R   0.741637 0.487907 0.259607 -0.084194
C19   C     C_R   0.741950 0.408935 0.230962 0.049905
C20   C     C_R   0.606897 0.342722 0.367700 -0.133150
C21   C     C_R   0.594127 0.205680 0.456621 0.542534
C22   C     C_R   0.571507 0.295746 0.402166 -0.139462
C23   C     C_R   0.743528 0.305746 0.414853 -0.111216
C24   C     C_R   0.780509 0.354379 0.380530 0.005962
C25   C     C_R   0.709511 0.368649 0.355722 0.037991
C26   C     C_R   0.637832 0.272619 0.424983 0.007220
C27   C     C_R   0.235699 0.873766 0.393683 0.039120
C28   C     C_R   0.222472 0.955231 0.380234 -0.017348
C29   C     C_R   0.200064 0.950423 0.338612 -0.096728
C30   C     C_R   0.186138 0.865395 0.310443 0.008990
C31   C     C_R   0.183223 0.778889 0.323697 -0.100751
C32   C     C_R   0.293310 0.891746 0.434472 0.536930
C33   C     C_R   0.205423 0.780579 0.365098 -0.013023
C34   C     C_R   0.195980 0.806792 0.162860 -0.160055
C35   C     C_R   0.168994 0.786439 0.120975 -0.140558
C36   C     C_R   0.091761 0.901381 0.129557 -0.120887
C37   C     C_R   0.118475 0.922221 0.171801 0.157116
C38   C     C_R   0.166466 0.870401 0.188507 0.060485
C39   C     C_1   0.173998 0.871122 0.231698 -0.008547
C40   C     C_1   0.178521 0.868568 0.267646 -0.037691
C41   C     C_R   0.111879 0.829457 0.104218 -0.005872
C42   C     C_R   0.636685 0.877189 0.395401 0.031560
C43   C     C_R   0.613971 0.905745 0.551721 0.540933
C44   C     C_R   0.546972 0.819064 0.366863 -0.149299
C45   C     C_R   0.559345 0.808585 0.325336 -0.132395
C46   C     C_R   0.661499 0.854976 0.311678 0.015504
C47   C     C_R   0.752026 0.904806 0.339505 -0.094414
C48   C     C_R   0.740985 0.916187 0.381610 -0.004997
C49   C     C_R   0.760070 0.931922 0.173152 -0.142173
C50   C     C_R   0.776334 0.920115 0.131534 -0.017489
C51   C     C_R   0.625182 0.743044 0.123079 -0.131085
C52   C     C_R   0.607870 0.756430 0.164231 0.151079
C53   C     C_R   0.679887 0.849215 0.189636 0.045111
C54   C     C_R   0.590130 0.200202 0.570837 0.548426
C55   C     C_1   0.677208 0.855786 0.232974 -0.003560
C56   C     C_1   0.672145 0.856303 0.269014 -0.029642
C57   C     C_R   0.712701 0.821257 0.106652 0.005214
C58   C     C_R   0.626033 0.255812 0.613178 -0.004810
C59   C     C_R   0.557884 0.281618 0.636321 -0.142555
C60   C     C_R   0.579330 0.312033 0.678402 -0.161064
C61   C     C_R   0.669921 0.318837 0.697890 0.060029
C62   C     C_R   0.744801 0.303424 0.674755 0.155698
C63   C     C_R   0.721337 0.270403 0.632452 -0.123147
C64   C     C_R   0.759312 0.337827 0.844377 -0.083702
C65   C     C_R   0.289241 0.887004 0.548784 0.558317
C66   C     C_R   0.765079 0.355295 0.887490 0.139896
C67   C     C_R   0.602435 0.369916 0.882977 -0.156245
C68   C     C_R   0.597534 0.351173 0.840654 -0.135957
C69   C     C_R   0.678237 0.339700 0.821412 0.004536
C70   C     C_1   0.679229 0.333658 0.777996 -0.036356
C71   C     C_1   0.677380 0.328768 0.741561 -0.005364
C72   C     C_R   0.689239 0.379016 0.906864 0.020663
C73   C     C_R   0.058402 0.745564 0.905885 0.036251
C74   C     C_R   0.099178 0.842547 0.891452 -0.006308
C75   C     C_R   0.113212 0.845006 0.849787 -0.101113
C76   C     C_R   0.738952 0.451791 0.106096 -0.032678
C77   C     C_R   0.088005 0.753385 0.822823 0.016360
C78   C     C_R   0.053054 0.659167 0.837395 -0.132342
C79   C     C_R   0.039160 0.655404 0.878574 -0.139073
C80   C     C_R   0.173374 0.745787 0.757726 -0.001267
C81   C     C_R   0.177885 0.754713 0.716374 -0.125623
C82   C     C_R   0.103706 0.772873 0.696144 0.014667
C83   C     C_R   0.020758 0.778758 0.716897 0.146154
C84   C     C_R   0.016225 0.769829 0.758327 -0.100525
C85   C     C_R   0.092858 0.755546 0.778922 0.002791
C86   C     C_R   0.176007 0.903260 0.650324 -0.120089
C87   C     C_R   0.646539 0.423324 0.127116 -0.131295
C88   C     C_R   0.223062 0.934761 0.614375 0.121633
C89   C     C_R   0.157648 0.751981 0.585818 -0.143620
C90   C     C_R   0.109776 0.720541 0.621584 -0.005602
C91   C     C_R   0.123811 0.797587 0.654730 0.013019
C92   C     C_R   0.219126 0.858585 0.582584 0.027045
C93   C     C_R   0.661668 0.740599 0.911276 0.022269
C94   C     C_R   0.586981 0.646270 0.886998 -0.130171
C95   C     C_R   0.560669 0.644755 0.846269 -0.123879
C96   C     C_R   0.608279 0.737542 0.829694 0.030477
C97   C     C_R   0.675701 0.832695 0.854755 -0.125046
C98   C     C_R   0.646108 0.406472 0.167533 0.113156
C99   C     C_R   0.702470 0.834276 0.895265 -0.128964
C100  C     C_R   0.550166 0.792797 0.772354 -0.143577
C101  C     C_R   0.556552 0.812145 0.732423 -0.129521
C102  C     C_R   0.610766 0.776493 0.705395 0.007568
C103  C     C_R   0.652408 0.715235 0.717601 -0.102205
C104  C     C_R   0.646741 0.695235 0.757855 0.011672
C105  C     C_R   0.596780 0.736569 0.785658 0.038201
C106  C     C_R   0.571843 0.733633 0.630702 -0.134141
C107  C     C_R   0.572546 0.763981 0.592756 -0.134719
C108  C     C_R   0.695057 0.943891 0.622278 -0.108631
Cr1   Cr    Cr6+3 0.424820 0.846020 0.489780 1.000712
Cr2   Cr    Cr6+3 0.657880 0.078580 0.505700 0.999858
Cr3   Cr    Cr6+3 0.417280 0.075360 0.504550 1.003801
Cr4   Cr    Cr6+3 0.903360 0.812540 0.006510 0.996907
Cr5   Cr    Cr6+3 0.914630 0.587050 0.006280 1.019890
Cr6   Cr    Cr6+3 0.673560 0.582680 0.008540 1.003109
H1    H     H_    0.575076 0.416881 0.112568 0.128404
H2    H     H_    0.489950 0.271762 0.409405 0.120498
H3    H     H_    0.796486 0.290556 0.432821 0.122212
H4    H     H_    0.185754 0.730895 0.102136 0.128815
H5    H     H_    0.233652 0.767324 0.175521 0.098222
H6    H     H_    0.166737 0.710954 0.301418 0.100925
H7    H     H_    0.048160 0.935336 0.117072 0.115615
H8    H     H_    0.903443 0.483781 0.110055 0.134573
H9    H     H_    0.196825 0.014970 0.327844 0.111711
H10   H     H_    0.812669 0.004400 0.193164 0.113961
H11   H     H_    0.831015 0.938259 0.328326 0.113598
H12   H     H_    0.466488 0.788069 0.376373 0.129966
H13   H     H_    0.572556 0.668367 0.104430 0.123975
H14   H     H_    0.488929 0.768649 0.303807 0.113956
H15   H     H_    0.818405 0.324944 0.828250 0.106342
H16   H     H_    0.775490 0.252124 0.614980 0.113550
H17   H     H_    0.484313 0.271931 0.622361 0.136446
H18   H     H_    0.533503 0.350970 0.822927 0.107007
H19   H     H_    0.542474 0.385934 0.896795 0.128794
H20   H     H_    0.522010 0.324776 0.696036 0.105485
H21   H     H_    0.007000 0.580013 0.888550 0.151305
H22   H     H_    0.733950 0.247248 0.296213 0.126299
H23   H     H_    0.241690 0.751147 0.699984 0.119898
H24   H     H_    0.141369 0.917834 0.837983 0.106218
H25   H     H_    0.952851 0.774068 0.774721 0.117488
H26   H     H_    0.186169 0.962134 0.675948 0.106853
H27   H     H_    0.032699 0.587818 0.816624 0.104358
H28   H     H_    0.151283 0.692651 0.561092 0.129906
H29   H     H_    0.554610 0.572885 0.898587 0.122299
H30   H     H_    0.759748 0.908001 0.913378 0.121682
H31   H     H_    0.523260 0.858800 0.723006 0.119863
H32   H     H_    0.513026 0.825777 0.793524 0.109217
H33   H     H_    0.507302 0.570956 0.827261 0.101839
H34   H     H_    0.693524 0.687472 0.696245 0.128953
H35   H     H_    0.522040 0.652249 0.633775 0.108519
H36   H     H_    0.522931 0.705630 0.567105 0.117904
H37   H     H_    0.712506 0.905013 0.842275 0.106222
H38   H     H_    0.740538 0.025949 0.619394 0.126877
H39   H     H_    0.746422 0.556323 0.249306 0.128164
H40   H     H_    0.551396 0.352322 0.348740 0.114281
O1    O     O_R   0.318160 0.824460 0.443680 -0.525391
O2    O     O_R   0.645130 0.163230 0.552140 -0.505503
O3    O     O_R   0.498360 0.178430 0.555780 -0.503783
O4    O     O_R   0.328690 0.978040 0.538950 -0.465294
O5    O     O_3   0.499990 0.999990 0.500010 -0.229453
O6    O     O_R   0.828710 0.851830 0.052170 -0.519906
O7    O     O_R   0.005980 0.823990 0.047210 -0.504679
O8    O     O_R   0.031900 0.688850 0.050170 -0.516414
O9    O     O_R   0.830940 0.518420 0.048680 -0.502046
O10   O     O_R   0.668160 0.499860 0.053480 -0.519480
O11   O     O_R   0.689170 0.693840 0.050110 -0.504163
O12   O     O_R   0.525040 0.857250 0.449830 -0.506866
O13   O     O_R   0.803860 0.812940 0.962540 -0.520468
O14   O     O_R   0.982950 0.787950 0.964120 -0.500128
O15   O     O_R   0.007050 0.649970 0.960540 -0.510609
O16   O     O_R   0.807910 0.482370 0.965590 -0.477182
O17   O     O_R   0.643310 0.460980 0.963840 -0.526442
O18   O     O_R   0.666140 0.657800 0.967020 -0.502133
O19   O     O_3   0.830520 0.660760 0.007110 -0.232821
O20   O     O_R   0.684760 0.998800 0.456360 -0.515706
O21   O     O_R   0.647540 0.166310 0.470260 -0.501255
O22   O     O_R   0.500960 0.181750 0.467450 -0.529794
O23   O     O_R   0.331100 0.981120 0.457080 -0.507340
O24   O     O_R   0.315560 0.821140 0.532010 -0.527310
O25   O     O_R   0.522630 0.854180 0.531710 -0.494559
O26   O     O_R   0.682160 0.995480 0.544690 -0.524747
N1    N     N_2   0.929339 0.461859 0.186250 -0.512828
H41   H     H_    0.977767 0.444849 0.167404 0.242351
C109  C     C_3   0.987920 0.557614 0.215255 -0.289776
H42   H     H_    0.066548 0.608794 0.204169 0.125696
H43   H     H_    0.002126 0.538020 0.244962 0.151115
H44   H     H_    0.943780 0.602398 0.220125 0.157603
C110  C     C_3   0.195732 0.681836 0.377206 -0.385650
H45   H     H_    0.276137 0.690584 0.383483 0.148046
H46   H     H_    0.149407 0.663157 0.404438 0.144435
H47   H     H_    0.152360 0.613596 0.352571 0.104768
C111  C     C_3   0.232488 0.048868 0.408743 -0.384396
H48   H     H_    0.199346 0.091336 0.393797 0.097896
H49   H     H_    0.186564 0.023433 0.435649 0.133988
H50   H     H_    0.317913 0.104961 0.418408 0.169667
N2    N     N_2   0.088470 0.987753 0.197498 -0.511615
H51   H     H_    0.024537 0.992210 0.185293 0.246576
C112  C     C_3   0.176734 0.089846 0.213670 -0.317263
H52   H     H_    0.147152 0.133521 0.234853 0.138296
H53   H     H_    0.212623 0.134714 0.188444 0.128962
H54   H     H_    0.239126 0.082772 0.230880 0.154427
C113  C     C_3   0.862318 0.012857 0.115268 -0.384561
H55   H     H_    0.893351 0.085640 0.137948 0.113368
H56   H     H_    0.930910 0.000181 0.107863 0.146801
H57   H     H_    0.829171 0.025710 0.087626 0.145219
C114  C     C_3   0.840591 0.971329 0.410664 -0.389969
H58   H     H_    0.912043 0.978961 0.395126 0.113701
H59   H     H_    0.856083 0.051248 0.423278 0.154663
H60   H     H_    0.831242 0.926166 0.435861 0.134330
N3    N     N_2   0.522884 0.673180 0.180469 -0.512544
H61   H     H_    0.499416 0.599854 0.164220 0.237682
C115  C     C_3   0.432569 0.689258 0.189433 -0.315310
H62   H     H_    0.394144 0.692590 0.160881 0.131456
H63   H     H_    0.458181 0.762850 0.211117 0.155874
H64   H     H_    0.372720 0.623371 0.203660 0.133418
N4    N     N_2   0.846889 0.352779 0.911733 -0.498198
H65   H     H_    0.821961 0.321042 0.938007 0.249627
C116  C     C_3   0.924076 0.328236 0.892319 -0.321517
H66   H     H_    0.981902 0.332587 0.916004 0.137213
H67   H     H_    0.970173 0.386080 0.872173 0.140218
H68   H     H_    0.882920 0.247754 0.874665 0.133017
C117  C     C_3   0.894026 0.386469 0.370782 -0.414436
H69   H     H_    0.917724 0.431119 0.344954 0.141564
H70   H     H_    0.949885 0.437412 0.397761 0.122840
H71   H     H_    0.903215 0.315821 0.363086 0.126208
N5    N     N_2   0.839389 0.313237 0.694000 -0.525802
H72   H     H_    0.873692 0.273939 0.677634 0.236238
C118  C     C_3   0.916401 0.416538 0.714962 -0.300781
H73   H     H_    0.990549 0.448536 0.698686 0.125909
H74   H     H_    0.937103 0.410696 0.746411 0.145486
H75   H     H_    0.884941 0.472570 0.716840 0.156126
C119  C     C_3   0.127056 0.943117 0.919325 -0.389822
H76   H     H_    0.177313 0.951802 0.946751 0.130613
H77   H     H_    0.173011 0.012213 0.904014 0.108554
H78   H     H_    0.052912 0.943684 0.928601 0.157588
C120  C     C_3   0.049338 0.605296 0.623856 -0.406203
H79   H     H_    0.986598 0.564044 0.597995 0.128776
H80   H     H_    0.105400 0.573131 0.621879 0.125108
H81   H     H_    0.008853 0.588750 0.652432 0.141512
C121  C     C_3   0.256804 0.730291 0.778971 -0.399993
H82   H     H_    0.300824 0.795581 0.804582 0.140098
H83   H     H_    0.218016 0.655184 0.790975 0.130550
H84   H     H_    0.315812 0.727930 0.757884 0.122688
N6    N     N_2   0.940073 0.789836 0.696215 -0.529341
H85   H     H_    0.932715 0.770884 0.664873 0.258470
C122  C     C_3   0.936890 0.885338 0.710011 -0.321758
H86   H     H_    0.872518 0.886119 0.691564 0.154926
H87   H     H_    0.014403 0.954371 0.706136 0.134874
H88   H     H_    0.919067 0.890229 0.742471 0.151337
N7    N     N_2   0.282232 0.043325 0.612101 -0.484984
H89   H     H_    0.323077 0.089208 0.639391 0.237456
C123  C     C_3   0.220417 0.083090 0.593751 -0.285235
H90   H     H_    0.155843 0.078443 0.613261 0.117453
H91   H     H_    0.184285 0.037731 0.562928 0.156479
H92   H     H_    0.273618 0.166092 0.590560 0.132175
N8    N     N_2   0.740453 0.239157 0.214847 -0.509959
H93   H     H_    0.740038 0.247364 0.184573 0.260807
C124  C     C_3   0.674561 0.131917 0.221242 -0.324050
H94   H     H_    0.670450 0.077655 0.193733 0.142454
H95   H     H_    0.591847 0.116044 0.226751 0.137247
H96   H     H_    0.710162 0.115581 0.247196 0.152538
C125  C     C_3   0.758494 0.000011 0.696033 -0.420594
H97   H     H_    0.842566 0.045294 0.688364 0.114946
H98   H     H_    0.724772 0.053863 0.701976 0.148432
H99   H     H_    0.760519 0.969270 0.724447 0.140347
C126  C     C_3   0.699875 0.636163 0.771114 -0.397063
H100  H     H_    0.760670 0.684598 0.797083 0.142379
H101  H     H_    0.639039 0.562237 0.780551 0.128909
H102  H     H_    0.740925 0.615767 0.746078 0.136658
N9    N     N_2   0.552509 0.381645 0.188658 -0.521277
H103  H     H_    0.508968 0.415477 0.179713 0.244071
C127  C     C_3   0.485370 0.271258 0.189637 -0.312974
H104  H     H_    0.418218 0.259761 0.208700 0.131485
H105  H     H_    0.531444 0.238701 0.203180 0.167544
H106  H     H_    0.451946 0.228211 0.158289 0.137071
N10   N     N_2   0.737202 0.562347 0.329634 -0.519478
H107  H     H_    0.754106 0.562037 0.359817 0.259190
C128  C     C_3   0.651421 0.585945 0.323443 -0.299647
H108  H     H_    0.661484 0.651147 0.347340 0.152339
H109  H     H_    0.572690 0.516415 0.325496 0.134356
H110  H     H_    0.652890 0.611065 0.293366 0.165435

loop_
_geom_bond_atom_site_label_1
_geom_bond_atom_site_label_2
_ccdc_geom_bond_type
C65   C92   S    
C59   C60   A    
C21   C26   S    
N8    C124  S    
C101  C102  A    
N5    C118  S    
C128  H108  S    
C127  H106  S    
C113  H56   S    
C113  H55   S    
C9    O15   A    
C95   C96   A    
C55   C56   T    
C2    C12   A    
C67   H19   S    
C80   C85   A    
C81   C82   A    
C123  H90   S    
C24   C117  S    
C27   C33   A    
C116  H68   S    
C81   H23   S    
Cr4   O7    S    
C101  H31   S    
C100  C105  A    
C29   C30   A    
C20   H40   S    
C122  H88   S    
Cr6   O11   S    
C83   C84   A    
C94   H29   S    
C37   N2    S    
C80   C121  S    
C28   C29   A    
N10   C128  S    
Cr3   O4    S    
N5    H72   S    
C34   C35   A    
C117  H71   S    
C86   C91   A    
N4    C116  S    
C54   O2    A    
C38   C39   S    
C86   C88   A    
C123  H91   S    
C20   C25   A    
C45   H14   S    
N6    H85   S    
Cr4   O14   S    
C83   N6    S    
C16   C25   S    
C42   C48   A    
C68   H18   S    
C18   C19   A    
C73   C74   A    
C23   C26   A    
C66   N4    S    
C112  H53   S    
Cr3   O5    S    
C34   H5    S    
C110  H47   S    
C103  C104  A    
C106  H35   S    
C17   N10   S    
Cr5   O8    S    
C108  H38   S    
C107  H36   S    
Cr1   O24   S    
Cr6   O19   S    
C66   C72   A    
C14   N8    S    
C88   C92   A    
C84   H25   S    
C100  H32   S    
C16   C17   A    
N6    C122  S    
C6    C41   S    
C4    C102  S    
C48   C114  S    
C120  H79   S    
C6    O7    A    
C70   C71   T    
C51   C57   A    
C97   H37   S    
C126  H100  S    
C93   C99   A    
C87   H1    S    
C61   C62   A    
C128  H109  S    
C86   H26   S    
C87   C98   A    
C61   C71   S    
C22   H2    S    
Cr4   O19   S    
C5    C43   S    
C77   C85   S    
C11   O18   A    
C12   N1    S    
N9    H103  S    
C119  H78   S    
C11   O13   A    
C120  H80   S    
C36   C41   A    
C102  C103  A    
C42   C44   A    
C111  H48   S    
C127  H104  S    
C35   C41   A    
N2    H51   S    
C104  C105  A    
C97   C99   A    
C103  H34   S    
C47   H11   S    
C53   C55   S    
C98   N9    S    
C73   C79   A    
Cr6   O17   S    
C1    O20   A    
C43   O26   A    
N7    C123  S    
C74   C75   A    
Cr3   O22   S    
C63   H16   S    
C47   C48   A    
C6    O8    A    
C99   H30   S    
C67   C72   A    
C84   C85   A    
C95   H33   S    
C24   C25   A    
C121  H83   S    
C8    O11   A    
C78   H27   S    
C39   C40   T    
C125  H98   S    
C78   C79   A    
C68   C69   A    
C123  H92   S    
Cr5   O15   S    
C15   H22   S    
C21   O21   A    
C10   O17   A    
C77   C78   A    
C49   H10   S    
C7    O9    A    
C82   C91   S    
C44   H12   S    
C60   C61   A    
C124  H95   S    
C64   C66   A    
C89   H28   S    
N1    H41   S    
C112  H54   S    
Cr6   O18   S    
C67   C68   A    
C111  H49   S    
C109  H42   S    
C117  H69   S    
C8    C57   S    
Cr5   O9    S    
C32   O1    A    
C126  H101  S    
Cr1   O25   S    
Cr6   O10   S    
C118  H73   S    
C119  H76   S    
C13   C76   A    
Cr2   O26   S    
C23   C24   A    
C21   O22   A    
C43   O25   A    
C96   C97   A    
C115  H64   S    
C62   C63   A    
C31   C33   A    
N3    H61   S    
N7    H89   S    
C30   C40   S    
C94   C95   A    
C33   C110  S    
C93   C94   A    
Cr2   O21   S    
C64   C69   A    
C104  C126  S    
C89   C92   A    
C75   C77   A    
C76   C87   A    
C126  H102  S    
Cr5   O16   S    
C18   H39   S    
C118  H74   S    
N10   H107  S    
C20   C22   A    
C49   C50   A    
C37   C38   A    
C122  H87   S    
C22   C26   A    
C52   N3    S    
C54   C58   S    
C120  H81   S    
C32   O23   A    
C109  H44   S    
C58   C59   A    
C10   O16   A    
N8    H93   S    
C8    O6    A    
C28   C111  S    
C60   H20   S    
C124  H94   S    
C121  H82   S    
C52   C53   A    
C96   C105  S    
Cr5   O19   S    
C59   H17   S    
C5    C107  A    
C50   C113  S    
C58   C63   A    
C127  H105  S    
C114  H58   S    
C46   C47   A    
C36   C37   A    
Cr3   O23   S    
Cr4   O6    S    
C115  H63   S    
C27   C32   S    
C34   C38   A    
C50   C57   A    
C14   C19   A    
C9    C73   S    
C9    O14   A    
C44   C45   A    
C80   C81   A    
C75   H24   S    
C23   H3    S    
C125  H99   S    
C7    C76   S    
C3    C108  A    
C116  H67   S    
C62   N5    S    
C79   H21   S    
C7    O10   A    
C17   C18   A    
C74   C119  S    
C124  H96   S    
C51   H13   S    
N9    C127  S    
C36   H7    S    
C116  H66   S    
C111  H50   S    
C51   C52   A    
C117  H70   S    
C3    C125  S    
C54   O3    A    
C13   H8    S    
Cr4   O13   S    
C11   C93   S    
C90   C91   A    
C30   C31   A    
Cr2   O20   S    
C4    C106  A    
C1    O12   A    
C49   C53   A    
C15   C16   A    
C29   H9    S    
C100  C101  A    
C113  H57   S    
C65   O4    A    
C90   C120  S    
C121  H84   S    
N4    H65   S    
Cr3   O3    S    
C112  H52   S    
Cr1   O1    S    
C65   O24   A    
C69   C70   S    
C31   H6    S    
C110  H46   S    
Cr2   O2    S    
Cr1   O12   S    
C119  H77   S    
C115  H62   S    
C45   C46   A    
C1    C42   S    
N1    C109  S    
C118  H75   S    
C64   H15   S    
C2    C98   A    
C109  H43   S    
C82   C83   A    
C106  C107  A    
C128  H110  S    
C46   C56   S    
C27   C28   A    
C125  H97   S    
N3    C115  S    
C14   C15   A    
C35   H4    S    
C110  H45   S    
C114  H60   S    
C12   C13   A    
C89   C90   A    
C122  H86   S    
C114  H59   S    
Cr2   O5    S    
C3    C4    A    
C2    C19   S    
C10   C72   S    
C88   N7    S    
N2    C112  S    
C5    C108  A    
Cr1   O5    S    
