data_mof_unit_18025.cif
_audit_creation_date              2012-12-10T17:44:36-0500
_audit_creation_method            fapswitch 2.2
_symmetry_space_group_name_H-M    P1
_symmetry_Int_Tables_number       1
_space_group_crystal_system       triclinic
_cell_length_a                    9.936794
_cell_length_b                    10.620867
_cell_length_c                    15.244586
_cell_angle_alpha                 91.053295
_cell_angle_beta                  68.572151
_cell_angle_gamma                 89.852082
_cell_volume                      1497.33771843

loop_
_atom_site_label
_atom_site_type_symbol
_atom_type_description
_atom_site_fract_x
_atom_site_fract_y
_atom_site_fract_z
_atom_type_partial_charge
C1    C     C_R   0.501573 0.739244 0.496789 0.854570
C2    C     C_R   0.704958 0.346930 0.043781 0.104115
C3    C     C_R   0.565316 0.396582 0.094063 -0.002904
C4    C     C_R   0.409728 0.497846 0.676330 0.860447
C5    C     C_R   0.808785 0.348091 0.086932 -0.144936
C6    C     C_R   0.776111 0.402352 0.176676 -0.245654
C7    C     C_R   0.538722 0.458002 0.180534 -0.177340
C8    C     C_R   0.469750 0.866354 0.337345 -0.239620
C9    C     C_R   0.454190 0.930939 0.261791 0.026124
C10   C     C_R   0.456208 0.062667 0.262968 -0.182547
C11   C     C_R   0.472788 0.128759 0.338008 -0.214874
C12   C     C_R   0.400732 0.406371 0.914793 0.144200
C13   C     C_R   0.486758 0.064552 0.414660 0.105152
C14   C     C_R   0.485727 0.932702 0.414335 0.081410
C15   C     C_R   0.505051 0.871564 0.490525 -0.082927
C16   C     C_R   0.501413 0.260674 0.497907 0.876892
C17   C     C_R   0.530198 0.937027 0.562831 -0.204987
C18   C     C_R   0.530588 0.065624 0.563152 -0.180345
C19   C     C_R   0.505975 0.128272 0.491118 -0.104303
C20   C     C_R   0.792008 0.665326 0.623118 -0.153072
C21   C     C_R   0.828104 0.744762 0.684528 -0.184084
C22   C     C_R   0.966805 0.742615 0.685469 -0.180401
C23   C     C_R   0.254044 0.433213 0.970790 0.161271
C24   C     C_R   0.070551 0.661579 0.624571 -0.155966
C25   C     C_R   0.038064 0.579961 0.561248 0.180732
C26   C     C_R   0.893846 0.580788 0.560853 0.188598
C27   C     C_R   0.961634 0.423260 0.441432 -0.114996
C28   C     C_R   0.589986 0.494522 0.323601 0.842056
C29   C     C_R   0.104648 0.423479 0.441312 -0.097042
C30   C     C_R   0.353858 0.478218 0.777859 -0.086214
C31   C     C_R   0.640566 0.458383 0.223514 -0.055020
C32   C     C_R   0.157324 0.472596 0.928726 -0.166900
C33   C     C_R   0.206526 0.492410 0.832163 -0.151803
C34   C     C_R   0.497835 0.364967 0.957880 -0.052889
C35   C     C_R   0.449709 0.437970 0.819763 -0.212242
C36   C     C_2   0.437256 0.861651 0.181089 0.908546
C37   C     C_2   0.664967 0.241640 0.815134 0.870462
C38   C     C_R   0.456949 0.389916 0.055261 0.061299
C39   C     C_R   0.309108 0.410495 0.110525 -0.151996
C40   C     C_R   0.208213 0.427349 0.068410 -0.223013
C41   C     C_R   0.634297 0.304268 0.908519 -0.143605
C42   C     C_R   0.736712 0.293158 0.953394 0.356645
H1    H     H_    0.096577 0.445993 0.112409 0.138590
H2    H     H_    0.747738 0.808564 0.731625 0.163841
H3    H     H_    0.437039 0.506209 0.216172 0.195858
H4    H     H_    0.994518 0.804492 0.733421 0.160353
H5    H     H_    0.174849 0.665618 0.629042 0.198699
H6    H     H_    0.185271 0.360869 0.393278 0.140326
H7    H     H_    0.854363 0.396693 0.210635 0.154886
H8    H     H_    0.044989 0.492270 0.970774 0.151695
H9    H     H_    0.130574 0.522900 0.800698 0.169174
H10   H     H_    0.564016 0.437042 0.778404 0.173596
H11   H     H_    0.269276 0.412502 0.186695 0.131580
H12   H     H_    0.914479 0.305273 0.052372 0.195156
H13   H     H_    0.415588 0.870165 0.054685 0.353399
H14   H     H_    0.860495 0.166490 0.866520 0.360529
H15   H     H_    0.802772 0.217054 0.680702 0.342903
H16   H     H_    0.546498 0.888264 0.620131 0.147328
H17   H     H_    0.471627 0.764558 0.334723 0.178714
H18   H     H_    0.445966 0.115232 0.205448 0.187463
H19   H     H_    0.476650 0.230268 0.334407 0.150562
H20   H     H_    0.547017 0.116677 0.620661 0.189425
H21   H     H_    0.935131 0.360506 0.393527 0.142272
H22   H     H_    0.683574 0.673833 0.626615 0.195762
N1    N     N_R   0.856800 0.501200 0.500850 -0.116316
N2    N     N_R   0.142390 0.501280 0.500880 -0.115174
O1    O     O_R   0.385310 0.683220 0.500000 -0.632647
O2    O     O_R   0.426726 0.927842 0.105301 -0.805141
O3    O     O_3   0.868560 0.232115 0.911112 -0.753185
O4    O     O_2   0.574660 0.172843 0.802813 -0.629980
O5    O     O_R   0.795697 0.263419 0.740990 -0.793607
O6    O     O_R   0.614640 0.683250 0.500010 -0.625903
O7    O     O_R   0.319840 0.499980 0.632240 -0.620780
O8    O     O_R   0.549160 0.500000 0.632250 -0.629083
O9    O     O_R   0.385360 0.316750 0.499990 -0.603796
O10   O     O_R   0.614690 0.316780 0.500000 -0.609252
O11   O     O_R   0.450840 0.500000 0.367750 -0.626390
O12   O     O_R   0.680160 0.500020 0.367760 -0.605415
O13   O     O_2   0.432197 0.746673 0.180440 -0.659616
Zn1   Zn    Zn3+2 0.346880 0.499980 0.499990 0.946813
Zn2   Zn    Zn3+2 0.653120 0.500020 0.500010 0.944520

loop_
_geom_bond_atom_site_label_1
_geom_bond_atom_site_label_2
_ccdc_geom_bond_type
C27   C29   A    
C16   O9    A    
C41   C42   A    
H13   O2    S    
C12   C23   A    
C30   C35   A    
C5    C6    A    
C7    H3    S    
C3    C7    A    
C8    H17   S    
C38   C39   A    
C23   C40   A    
C18   C19   A    
C25   N2    A    
C40   H1    S    
C3    C38   A    
C8    C9    A    
C9    C36   S    
C1    C15   S    
C13   C14   A    
C28   O12   A    
O9    Zn1   S    
C4    O8    A    
O6    Zn2   S    
C17   H16   S    
C6    C31   A    
C34   C38   A    
C37   O4    D    
C26   N1    A    
C34   C41   A    
C1    O6    A    
C7    C31   A    
C13   C19   A    
C29   H6    S    
C5    H12   S    
C24   C25   A    
C39   C40   A    
C18   H20   S    
C25   C26   A    
C42   O3    S    
C20   H22   S    
C10   H18   S    
C27   N1    A    
C21   H2    S    
N1    Zn2   S    
C17   C18   A    
H15   O5    S    
C12   C35   A    
C28   O11   A    
C32   H8    S    
C4    O7    A    
C27   H21   S    
C22   H4    S    
C37   O5    S    
C22   C24   A    
C2    C5    A    
O8    Zn2   S    
C12   C34   A    
C9    C10   A    
O11   Zn1   S    
C15   C17   A    
C8    C14   A    
C30   C33   A    
C16   O10   A    
C24   H5    S    
C28   C31   S    
O1    Zn1   S    
C11   H19   S    
C36   O13   D    
O10   Zn2   S    
C36   O2    S    
C33   H9    S    
N2    Zn1   S    
C23   C32   A    
C2    C3    A    
C32   C33   A    
C11   C13   A    
O12   Zn2   S    
C39   H11   S    
C20   C26   A    
C2    C42   A    
C16   C19   S    
C1    O1    A    
O7    Zn1   S    
C6    H7    S    
C37   C41   S    
C10   C11   A    
C29   N2    A    
C20   C21   A    
H14   O3    S    
C35   H10   S    
C14   C15   A    
C21   C22   A    
C4    C30   S    
