data_mof_unit_57238.cif
_audit_creation_date              2012-12-10T16:57:47-0500
_audit_creation_method            fapswitch 2.2
_symmetry_space_group_name_H-M    P1
_symmetry_Int_Tables_number       1
_space_group_crystal_system       triclinic
_cell_length_a                    7.808824
_cell_length_b                    8.576453
_cell_length_c                    18.929398
_cell_angle_alpha                 91.781286
_cell_angle_beta                  84.98201
_cell_angle_gamma                 93.710025
_cell_volume                      1259.82213422

loop_
_atom_site_label
_atom_site_type_symbol
_atom_type_description
_atom_site_fract_x
_atom_site_fract_y
_atom_site_fract_z
_atom_type_partial_charge
C1    C     C_R   0.545687 0.794609 0.498115 0.951984
C2    C     C_R   0.622018 0.366951 0.177727 -0.158687
C3    C     C_R   0.466766 0.373756 0.851791 0.087072
C4    C     C_R   0.467286 0.380324 0.146599 0.093088
C5    C     C_R   0.619073 0.352941 0.808380 -0.162437
C6    C     C_R   0.324717 0.437505 0.187296 -0.166170
C7    C     C_R   0.631592 0.395845 0.737870 -0.198282
C8    C     C_R   0.337023 0.481284 0.257932 -0.197103
C9    C     C_R   0.492799 0.461635 0.710143 -0.022284
C10   C     C_R   0.491469 0.467283 0.289035 -0.025684
C11   C     C_R   0.459736 0.349882 0.070493 0.287590
C12   C     C_R   0.454335 0.205376 0.501405 0.948895
C13   C     C_R   0.459430 0.346062 0.927815 0.288042
C14   C     C_3   0.961020 0.289721 0.389739 0.176723
C15   C     C_3   0.067800 0.162265 0.353407 -0.382867
C16   C     C_3   0.010277 0.118790 0.279958 -0.959051
C17   C     C_3   0.052197 0.749400 0.596253 0.146139
C18   C     C_3   0.937189 0.704949 0.662914 -0.375117
C19   C     C_3   0.991205 0.799483 0.727846 -0.974235
C20   C     C_2   0.569713 0.958167 0.496959 -0.382341
C21   C     C_2   0.430446 0.041798 0.501635 -0.394935
C22   C     C_R   0.499463 0.494423 0.634773 0.817044
C23   C     C_R   0.498542 0.495857 0.365105 0.826358
C24   C     C_R   0.339620 0.479507 0.753200 -0.202617
C25   C     C_R   0.634102 0.410544 0.248380 -0.203289
C26   C     C_R   0.326490 0.435733 0.823399 -0.159025
H1    H     H_    0.228957 0.525660 0.732515 0.158949
H2    H     H_    0.298945 0.990756 0.505641 0.183027
H3    H     H_    0.976042 0.394648 0.355938 0.117083
H4    H     H_    0.824312 0.245249 0.395083 0.167928
H5    H     H_    0.206022 0.203845 0.348174 0.236137
H6    H     H_    0.053798 0.056555 0.386485 0.231796
H7    H     H_    0.873284 0.073606 0.284148 0.264915
H8    H     H_    0.090589 0.026544 0.254926 0.278647
H9    H     H_    0.025351 0.222271 0.245618 0.261690
H10   H     H_    0.055311 0.878238 0.591037 0.138428
H11   H     H_    0.184804 0.721225 0.602498 0.180786
H12   H     H_    0.754273 0.397228 0.271284 0.142764
H13   H     H_    0.801532 0.727403 0.655429 0.242841
H14   H     H_    0.946345 0.578808 0.672123 0.213557
H15   H     H_    0.128830 0.785756 0.735272 0.262227
H16   H     H_    0.911444 0.757999 0.775866 0.279396
H17   H     H_    0.971769 0.925324 0.721594 0.270787
H18   H     H_    0.207383 0.453396 0.855595 0.154109
H19   H     H_    0.734405 0.324207 0.147487 0.151870
H20   H     H_    0.728899 0.304515 0.828880 0.149596
H21   H     H_    0.204210 0.450713 0.164487 0.146260
H22   H     H_    0.748214 0.374051 0.704856 0.149353
H23   H     H_    0.225207 0.524713 0.288256 0.152299
H24   H     H_    0.701312 0.009229 0.492620 0.193000
N1    N     N_R   0.604774 0.319312 0.958563 -0.174550
N2    N     N_R   0.312621 0.369573 0.039721 -0.176626
N3    N     N_R   0.604890 0.321151 0.028696 -0.173198
N4    N     N_R   0.312501 0.367731 0.969639 -0.174554
N5    N     N_2   0.950330 0.457950 0.481240 0.172079
N6    N     N_2   0.049670 0.542050 0.518760 0.173832
O1    O     O_R   0.389250 0.738570 0.504600 -0.638037
O2    O     O_3   0.983488 0.681532 0.535285 -0.554474
O3    O     O_R   0.610750 0.261430 0.495400 -0.629926
O4    O     O_R   0.678400 0.711620 0.492580 -0.566473
O5    O     O_R   0.321600 0.288380 0.507420 -0.572966
O6    O     O_R   0.355380 0.513500 0.607880 -0.655300
O7    O     O_R   0.644620 0.486500 0.392120 -0.657464
O8    O     O_R   0.644530 0.486550 0.595850 -0.613122
O9    O     O_R   0.355470 0.513450 0.404150 -0.602182
O10   O     O_3   0.019724 0.325165 0.456787 -0.556656
Zn1   Zn    Zn3+2 0.306930 0.517990 0.508030 1.006808
Zn2   Zn    Zn3+2 0.693070 0.482010 0.491970 1.006555

loop_
_geom_bond_atom_site_label_1
_geom_bond_atom_site_label_2
_ccdc_geom_bond_type
C2    C4    A    
C18   H13   S    
C24   H1    S    
C9    C24   A    
C15   H5    S    
C17   H10   S    
C1    O1    A    
C25   H12   S    
C22   O6    A    
N6    Zn1   S    
N1    N3    A    
C5    H20   S    
O5    Zn1   S    
C3    C13   S    
C19   H16   S    
C17   O2    S    
N5    N6    D    
C7    H22   S    
C23   O9    A    
C23   O7    A    
N5    Zn2   S    
C14   O10   S    
C26   H18   S    
C15   H6    S    
C16   H9    S    
C17   H11   S    
C4    C11   S    
C12   O5    A    
C24   C26   A    
O6    Zn1   S    
O1    Zn1   S    
C6    C8    A    
O8    Zn2   S    
C10   C25   A    
C4    C6    A    
C21   H2    S    
N2    N4    A    
C17   C18   S    
C2    C25   A    
C5    C7    A    
C2    H19   S    
C14   C15   S    
C16   H7    S    
C9    C22   S    
C6    H21   S    
C14   H3    S    
C22   O8    A    
C15   C16   S    
C12   C21   S    
C3    C5    A    
N5    O10   S    
C20   C21   D    
O4    Zn2   S    
C8    C10   A    
C13   N4    A    
C1    C20   S    
C1    O4    A    
C7    C9    A    
O3    Zn2   S    
C18   H14   S    
O7    Zn2   S    
C18   C19   S    
C10   C23   S    
C20   H24   S    
C11   N2    A    
C19   H17   S    
C16   H8    S    
C13   N1    A    
C12   O3    A    
C8    H23   S    
C3    C26   A    
C14   H4    S    
C19   H15   S    
N6    O2    S    
O9    Zn1   S    
C11   N3    A    
