data_mof_unit_17648.cif
_audit_creation_date              2013-03-05T16:04:28-0500
_audit_creation_method            fapswitch 2.2
_symmetry_space_group_name_H-M    P1
_symmetry_Int_Tables_number       1
_space_group_crystal_system       triclinic
_cell_length_a                    10.831015
_cell_length_b                    9.518941
_cell_length_c                    15.05315
_cell_angle_alpha                 90.02988
_cell_angle_beta                  90.280615
_cell_angle_gamma                 89.960144
_cell_volume                      1551.95744791

loop_
_atom_site_label
_atom_site_type_symbol
_atom_site_description
_atom_site_fract_x
_atom_site_fract_y
_atom_site_fract_z
_atom_type_partial_charge
O1    O     O_R   0.319640 0.618740 0.499990 -0.587317
O2    O     O_R   0.680360 0.381260 0.500010 -0.587317
O3    O     O_R   0.680360 0.618740 0.500010 -0.595511
O4    O     O_R   0.319640 0.381260 0.499990 -0.595511
C1    C     C_R   0.262064 0.500027 0.499958 0.776608
C2    C     C_R   0.737936 0.499973 0.500041 0.776609
O5    O     O_R   0.499970 0.618800 0.370260 -0.576836
O6    O     O_R   0.500030 0.381200 0.629740 -0.576837
O7    O     O_R   0.500030 0.618800 0.629740 -0.582005
O8    O     O_R   0.499970 0.381200 0.370260 -0.582004
C3    C     C_R   0.504259 0.499952 0.328981 0.819587
C4    C     C_R   0.495740 0.500048 0.671019 0.819587
Cu1   Cu    Cu3+1 0.500000 0.640660 0.500000 0.939826
Cu2   Cu    Cu3+1 0.500000 0.359340 0.500000 0.939826
C5    C     C_R   0.574606 0.584473 0.812693 -0.298495
C6    C     C_R   0.425394 0.415527 0.187307 -0.298495
C7    C     C_R   0.489483 0.500487 0.767486 -0.065439
C8    C     C_R   0.510517 0.499513 0.232514 -0.065439
C9    C     C_R   0.402299 0.418375 0.814281 0.118514
C10   C     C_R   0.597701 0.581624 0.185719 0.118515
C11   C     C_R   0.408622 0.415307 0.908242 0.101544
C12   C     C_R   0.591378 0.584693 0.091758 0.101544
C13   C     C_R   0.496877 0.500003 0.953201 0.028855
C14   C     C_R   0.503123 0.499997 0.046799 0.028855
C15   C     C_R   0.578732 0.585312 0.904834 0.112395
C16   C     C_R   0.421268 0.414688 0.095166 0.112395
C17   C     C_R   0.328838 0.330289 0.958720 -0.207958
C18   C     C_R   0.671162 0.669711 0.041280 -0.207958
C19   C     C_R   0.335139 0.330386 0.050937 -0.205532
C20   C     C_R   0.664861 0.669614 0.949063 -0.205532
H1    H     H_    0.639671 0.647858 0.775485 0.146853
H2    H     H_    0.360329 0.352141 0.224515 0.146853
H3    H     H_    0.261215 0.262176 0.927896 0.157150
H4    H     H_    0.738785 0.737824 0.072104 0.157150
H5    H     H_    0.272176 0.264168 0.087837 0.142031
H6    H     H_    0.727824 0.735832 0.912162 0.142031
C21   C     C_R   0.063985 0.372515 0.504185 -0.192488
C22   C     C_R   0.936015 0.627485 0.495814 -0.192488
C23   C     C_R   0.936257 0.372484 0.504150 -0.182702
C24   C     C_R   0.063743 0.627516 0.495849 -0.182702
H7    H     H_    0.112137 0.272861 0.507600 0.149290
H8    H     H_    0.887863 0.727139 0.492400 0.149290
H9    H     H_    0.888296 0.272816 0.507559 0.147788
H10   H     H_    0.111704 0.727184 0.492441 0.147788
C25   C     C_R   0.871775 0.499966 0.499981 -0.015980
C26   C     C_R   0.128225 0.500034 0.500019 -0.015980
C27   C     C_R   0.422207 0.074436 0.445375 -0.022601
C28   C     C_R   0.577793 0.925564 0.554625 -0.022601
C29   C     C_R   0.577786 0.074403 0.554629 -0.020178
C30   C     C_R   0.422214 0.925597 0.445371 -0.020177
H11   H     H_    0.359901 0.130558 0.401608 0.116321
H12   H     H_    0.640099 0.869442 0.598392 0.116321
H13   H     H_    0.640103 0.130495 0.598389 0.119780
H14   H     H_    0.359897 0.869505 0.401611 0.119780
N1    N     N_R   0.500000 0.852070 0.500000 -0.157543
N2    N     N_R   0.500000 0.147930 0.500000 -0.157543
C31   C     C_3   0.299937 0.340397 0.765674 -0.862808
H15   H     H_    0.293070 0.366511 0.694203 0.240631
H16   H     H_    0.314199 0.225344 0.772222 0.234681
H17   H     H_    0.209107 0.369594 0.794216 0.221537
C32   C     C_3   0.700063 0.659603 0.234326 -0.862808
H18   H     H_    0.706930 0.633489 0.305797 0.240631
H19   H     H_    0.790893 0.630406 0.205784 0.221537
H20   H     H_    0.685801 0.774656 0.227777 0.234681

loop_
_geom_bond_atom_site_label_1
_geom_bond_atom_site_label_2
_geom_bond_distance
_ccdc_geom_bond_type
C4    C7    1.454053 S    
C32   H20   1.110280 S    
Cu2   N2    2.012400 S    
C13   C14   1.410241 A    
C3    C8    1.454053 S    
C5    H1    1.085912 S    
C9    C11   1.416045 A    
C2    C25   1.449620 S    
C20   H6    1.084245 S    
C6    H2    1.085912 S    
C29   N2    1.367077 A    
C1    C26   1.449620 S    
C19   H5    1.084245 S    
C30   N1    1.367078 A    
O3    Cu1   1.964448 S    
C23   C25   1.400977 A    
O6    C4    1.291354 A    
O3    C2    1.290740 A    
Cu1   N1    2.012399 S    
C18   C20   1.389503 A    
C11   C17   1.409644 A    
C28   N1    1.367088 A    
C18   H4    1.081270 S    
C21   C23   1.383429 A    
C12   C18   1.409643 A    
Cu1   Cu2   2.677868 S    
C17   H3    1.081270 S    
O5    C3    1.291355 A    
C5    C15   1.387529 A    
C31   H15   1.106471 S    
C30   H14   1.081826 S    
C21   H7    1.083317 S    
C29   H13   1.081826 S    
C5    C7    1.395189 A    
C12   C14   1.419826 A    
C28   C29   1.416794 A    
C22   C24   1.383429 A    
C27   N2    1.367090 A    
C10   C12   1.416045 A    
C22   H8    1.083317 S    
C27   C30   1.416794 A    
C8    C10   1.416661 A    
C11   C13   1.419826 A    
O4    Cu2   1.964449 S    
C32   H18   1.106471 S    
O2    Cu2   1.964736 S    
O7    C4    1.291181 A    
O1    C1    1.291053 A    
C31   H16   1.110280 S    
C17   C19   1.389502 A    
O8    C3    1.291181 A    
C24   C26   1.400977 A    
C24   H10   1.083317 S    
C13   C15   1.408355 A    
O1    Cu1   1.964737 S    
C23   H9    1.083317 S    
C16   C19   1.397084 A    
C6    C8    1.395190 A    
O8    Cu2   1.964156 S    
C10   C32   1.519255 S    
C32   H19   1.110540 S    
O7    Cu1   1.964156 S    
C15   C20   1.397084 A    
C31   H17   1.110540 S    
C27   H11   1.081836 S    
O5    Cu1   1.963940 S    
O6    Cu2   1.963940 S    
C7    C9    1.416661 A    
C21   C26   1.401120 A    
C28   H12   1.081836 S    
C9    C31   1.519255 S    
O2    C2    1.291052 A    
C14   C16   1.408355 A    
O4    C1    1.290739 A    
C22   C25   1.401120 A    
C6    C16   1.387529 A    
