data_mof_unit_40950.cif
_audit_creation_date              2012-10-26T20:03:21-0400
_audit_creation_method            fapswitch 2.2
_symmetry_space_group_name_H-M    P1
_symmetry_Int_Tables_number       1
_space_group_crystal_system       triclinic
_cell_length_a                    10.620643
_cell_length_b                    12.450784
_cell_length_c                    13.249391
_cell_angle_alpha                 117.328832
_cell_angle_beta                  75.227245
_cell_angle_gamma                 101.298226
_cell_volume                      1498.6820305

loop_
_atom_site_label
_atom_site_type_symbol
_atom_type_description
_atom_site_fract_x
_atom_site_fract_y
_atom_site_fract_z
_atom_type_partial_charge
C1    C     C_R   0.511801 0.855115 0.286635 0.559458
C2    C     C_R   0.503078 0.564941 0.010373 0.035889
C3    C     C_R   0.461725 0.651313 0.125176 0.026968
C4    C     C_R   0.740387 0.999609 0.498868 0.596865
C5    C     C_R   0.460438 0.439747 0.979796 0.008722
C6    C     C_R   0.370301 0.403609 0.061323 0.022903
C7    C     C_R   0.316867 0.493818 0.167879 -0.123681
C8    C     C_R   0.360676 0.615042 0.198596 -0.121374
C9    C     C_R   0.504883 0.349431 0.869966 -0.141181
C10   C     C_R   0.370984 0.192593 0.917842 -0.134842
C11   C     C_R   0.520644 0.772531 0.162833 0.008539
C12   C     C_3   0.014200 0.903313 0.515730 -0.135925
C13   C     C_R   0.702542 0.332859 0.316083 -0.135022
C14   C     C_R   0.324478 0.762973 0.650137 0.038966
C15   C     C_R   0.286367 0.669015 0.683756 -0.153647
C16   C     C_R   0.480811 0.145018 0.713716 0.529957
C17   C     C_R   0.351952 0.564264 0.626299 -0.125593
C18   C     C_R   0.457574 0.551037 0.533169 -0.037907
C19   C     C_R   0.494888 0.649841 0.500355 0.204558
C20   C     C_R   0.527636 0.443508 0.472196 -0.010696
C21   C     C_R   0.630375 0.434209 0.377650 0.005445
C22   C     C_R   0.664129 0.526677 0.344818 -0.136725
C23   C     C_3   0.964866 0.899750 0.414788 0.253215
C24   C     C_R   0.602474 0.633336 0.403923 0.268578
C25   C     C_R   0.501973 0.343432 0.500120 0.070674
C26   C     C_R   0.673157 0.239174 0.348371 0.059449
C27   C     C_R   0.259844 0.000651 0.501369 0.568067
C28   C     C_3   0.986634 0.098253 0.485644 -0.134753
C29   C     C_3   0.073013 0.994935 0.401794 0.249327
C30   C     C_3   0.123051 0.000474 0.502147 0.038605
C31   C     C_3   0.037327 0.103889 0.588322 -0.175517
C32   C     C_3   0.926151 0.006951 0.601773 -0.171134
C33   C     C_2   0.247217 0.232616 0.114654 0.562224
C34   C     C_3   0.877580 0.000779 0.498968 0.038347
C35   C     C_R   0.330580 0.278312 0.031306 0.052910
C36   C     C_R   0.455168 0.228563 0.836822 -0.031220
C37   C     C_R   0.601861 0.810956 0.081786 -0.115116
C38   C     C_R   0.630431 0.729654 0.966207 -0.133150
C39   C     C_R   0.584305 0.607786 0.930687 -0.117754
Cu1   Cu    Cu3+1 0.529830 0.098270 0.475420 0.968995
Cu2   Cu    Cu3+1 0.470170 0.901730 0.524580 0.986265
H1    H     H_    0.576823 0.370582 0.806517 0.126223
H2    H     H_    0.272897 0.843958 0.695629 0.129993
H3    H     H_    0.974453 0.176884 0.471962 0.136313
H4    H     H_    0.317474 0.494658 0.656354 0.105802
H5    H     H_    0.205371 0.677437 0.754984 0.114737
H6    H     H_    0.070330 0.187570 0.660268 0.123997
H7    H     H_    0.862645 0.012616 0.684524 0.130193
H8    H     H_    0.026974 0.823270 0.526932 0.126051
H9    H     H_    0.335304 0.097743 0.892095 0.160391
H10   H     H_    0.238656 0.472446 0.228106 0.155408
H11   H     H_    0.092791 0.981425 0.248738 0.329408
H12   H     H_    0.646471 0.903438 0.108213 0.133202
H13   H     H_    0.701642 0.686419 0.286199 0.334214
H14   H     H_    0.003788 0.745942 0.287667 0.323473
H15   H     H_    0.102947 0.110983 0.141255 0.336914
H16   H     H_    0.612289 0.550601 0.839803 0.103803
H17   H     H_    0.692564 0.760448 0.904129 0.122502
H18   H     H_    0.311460 0.680273 0.279871 0.145303
H19   H     H_    0.727287 0.159764 0.301461 0.121251
H20   H     H_    0.745607 0.518243 0.273491 0.113365
H21   H     H_    0.781503 0.326369 0.243626 0.102542
H22   H     H_    0.425050 0.340159 0.569894 0.113757
N1    N     N_R   0.575030 0.246270 0.438190 -0.235668
N2    N     N_R   0.425760 0.754330 0.561190 -0.227875
O1    O     O_R   0.537510 0.972500 0.318130 -0.495727
O2    O     O_3   0.657474 0.721820 0.368760 -0.605753
O3    O     O_3   0.927559 0.794731 0.321936 -0.699311
O4    O     O_2   0.263868 0.277106 0.214489 -0.514150
O5    O     O_R   0.153116 0.134497 0.077140 -0.715657
O6    O     O_R   0.487140 0.806530 0.359650 -0.460980
O7    O     O_R   0.708330 0.082950 0.479220 -0.527935
O8    O     O_R   0.657960 0.916980 0.520740 -0.416907
O9    O     O_R   0.512860 0.193470 0.640350 -0.518970
O10   O     O_R   0.462490 0.027500 0.681870 -0.517551
O11   O     O_R   0.342040 0.083020 0.479260 -0.466813
O12   O     O_R   0.291670 0.917050 0.520780 -0.537002
O13   O     O_3   0.153054 0.986679 0.297263 -0.668232

loop_
_geom_bond_atom_site_label_1
_geom_bond_atom_site_label_2
_ccdc_geom_bond_type
C16   O10   A    
C1    C11   S    
C12   H8    S    
C7    C8    A    
C12   C23   S    
C9    H1    S    
C1    O6    A    
C16   O9    A    
C23   C29   S    
C28   C29   S    
C37   C38   A    
C17   H4    S    
C8    H18   S    
Cu2   O12   S    
C5    C6    A    
C20   C25   A    
C39   H16   S    
C6    C35   A    
C18   C19   A    
C25   H22   S    
C11   C37   A    
C26   N1    A    
C24   O2    S    
C38   H17   S    
C2    C39   A    
C13   H21   S    
C9    C36   A    
C10   C35   A    
C33   O4    D    
Cu2   O6    S    
C37   H12   S    
C28   C34   S    
C31   H6    S    
C21   C22   A    
C12   C32   S    
C27   C30   S    
C32   H7    S    
H11   O13   S    
C17   C18   A    
C38   C39   A    
C4    C34   S    
C29   O13   S    
C3    C8    A    
H14   O3    S    
Cu2   N2    S    
H13   O2    S    
C28   H3    S    
Cu1   O11   S    
C25   N1    A    
C32   C34   S    
C23   O3    S    
C5    C9    A    
C29   C30   S    
Cu2   O10   S    
C31   C32   S    
C23   C34   S    
C1    O1    A    
C13   C21   A    
C4    O8    A    
C33   O5    S    
Cu1   Cu2   S    
H15   O5    S    
C22   C24   A    
C13   C26   A    
C2    C5    A    
C27   O11   A    
C10   H9    S    
C4    O7    A    
C15   C17   A    
Cu1   O7    S    
C12   C30   S    
C19   C24   A    
C28   C31   S    
C27   O12   A    
C10   C36   A    
C6    C7    A    
Cu1   N1    S    
C2    C3    A    
C7    H10   S    
C16   C36   S    
C22   H20   S    
C30   C31   S    
C33   C35   S    
C14   N2    A    
Cu1   O9    S    
C19   N2    A    
C18   C20   A    
C3    C11   A    
Cu2   O8    S    
C20   C21   A    
C14   C15   A    
Cu1   O1    S    
C15   H5    S    
C26   H19   S    
C14   H2    S    
