data_mof_unit_53281.cif
_audit_creation_date              2012-12-11T14:13:25-0500
_audit_creation_method            fapswitch 2.2
_symmetry_space_group_name_H-M    P1
_symmetry_Int_Tables_number       1
_space_group_crystal_system       triclinic
_cell_length_a                    11.600004
_cell_length_b                    18.687789
_cell_length_c                    9.939994
_cell_angle_alpha                 90.000736
_cell_angle_beta                  110.683074
_cell_angle_gamma                 90.000361
_cell_volume                      2015.89751193

loop_
_atom_site_label
_atom_site_type_symbol
_atom_type_description
_atom_site_fract_x
_atom_site_fract_y
_atom_site_fract_z
_atom_type_partial_charge
C1    C     C_R   0.075138 0.645710 0.140639 0.561041
C2    C     C_2   0.592241 0.076728 0.080788 -0.089100
C3    C     C_2   0.592285 0.423307 0.080698 -0.088622
C4    C     C_2   0.407799 0.576754 0.919131 -0.089293
C5    C     C_2   0.491309 0.963252 0.016292 -0.144415
C6    C     C_2   0.508695 0.036747 0.983705 -0.144412
C7    C     C_2   0.508913 0.463326 0.983503 -0.144112
C8    C     C_2   0.491488 0.536814 0.016070 -0.144533
C9    C     C_2   0.012598 0.922243 0.112545 -0.055843
C10   C     C_2   0.987398 0.077756 0.887453 -0.055846
C11   C     C_2   0.987395 0.422237 0.887451 -0.055738
C12   C     C_R   0.924871 0.354279 0.859354 0.561144
C13   C     C_2   0.012489 0.577778 0.112457 -0.055836
C14   C     C_2   0.028214 0.965109 0.012490 0.335533
C15   C     C_2   0.971768 0.034887 0.987494 0.335546
C16   C     C_2   0.971304 0.465228 0.987029 0.335666
C17   C     C_2   0.028003 0.534937 0.012307 0.335523
C18   C     C_R   0.469109 0.646747 0.442797 0.530757
C19   C     C_R   0.530895 0.353255 0.557207 0.530804
C20   C     C_R   0.530893 0.146746 0.557205 0.530744
C21   C     C_R   0.469107 0.853254 0.442795 0.530758
C22   C     C_R   0.376610 0.645537 0.962952 0.565867
C23   C     C_R   0.924866 0.145716 0.859356 0.560942
C24   C     C_R   0.623404 0.354475 0.037020 0.566116
C25   C     C_R   0.623395 0.145534 0.037036 0.565852
C26   C     C_R   0.376605 0.854466 0.962964 0.565847
C27   C     C_R   0.506911 0.425065 0.490657 -0.036964
C28   C     C_R   0.493104 0.574944 0.509368 -0.036899
C29   C     C_R   0.493102 0.925060 0.509362 -0.036932
C30   C     C_R   0.506899 0.074939 0.490640 -0.036934
C31   C     C_R   0.284409 0.416825 0.442908 -0.078566
C32   C     C_R   0.715603 0.583184 0.557144 -0.078378
C33   C     C_R   0.715602 0.916822 0.557101 -0.078456
C34   C     C_R   0.075134 0.854284 0.140644 0.560966
C35   C     C_R   0.284399 0.083177 0.442903 -0.078471
C36   C     C_R   0.176931 0.447028 0.449838 -0.110876
C37   C     C_R   0.823091 0.552986 0.550229 -0.110473
C38   C     C_R   0.823074 0.947026 0.550148 -0.110561
C39   C     C_R   0.176928 0.052973 0.449858 -0.110581
C40   C     C_R   0.177657 0.517519 0.494324 -0.114496
C41   C     C_R   0.822368 0.482500 0.505727 -0.114414
C42   C     C_R   0.822347 0.017515 0.505656 -0.114485
C43   C     C_R   0.177655 0.982484 0.494348 -0.114487
C44   C     C_R   0.283236 0.559228 0.522280 -0.074970
C45   C     C_R   0.393896 0.457557 0.477457 0.012747
C46   C     C_R   0.716800 0.440788 0.477775 -0.074954
C47   C     C_R   0.716771 0.059224 0.477719 -0.075002
C48   C     C_R   0.283231 0.940775 0.522284 -0.075004
C49   C     C_R   0.390381 0.531465 0.503508 0.008071
C50   C     C_R   0.609645 0.468545 0.496535 0.008136
C51   C     C_R   0.609626 0.031462 0.496501 0.008063
C52   C     C_R   0.390375 0.968538 0.503502 0.008060
C53   C     C_R   0.606121 0.542453 0.522583 0.012829
C54   C     C_R   0.606115 0.957555 0.522559 0.012746
C55   C     C_R   0.393886 0.042445 0.477444 0.012749
C56   C     C_2   0.407759 0.923271 0.919211 -0.089110
Cr1   Cr    Cr6+3 0.187610 0.750000 0.979860 1.092648
Cr2   Cr    Cr6+3 0.812390 0.250000 0.020140 1.092395
Cr3   Cr    Cr6+3 0.245810 0.750000 0.341640 1.008391
Cr4   Cr    Cr6+3 0.754190 0.250000 0.658360 1.008424
Cr5   Cr    Cr6+3 0.485760 0.750000 0.219910 1.020711
Cr6   Cr    Cr6+3 0.514240 0.250000 0.780090 1.020721
F1    F     F_    0.898768 0.054130 0.063289 -0.653909
F2    F     F_    0.101201 0.945863 0.936681 -0.653919
F3    F     F_    0.101139 0.554138 0.936664 -0.653950
F4    F     F_    0.897631 0.446157 0.062071 -0.653882
H1    H     H_    0.094193 0.415054 0.424945 0.129072
H2    H     H_    0.718049 0.638717 0.589251 0.120044
H3    H     H_    0.718051 0.861279 0.589199 0.120057
H4    H     H_    0.281949 0.138720 0.410805 0.120023
H5    H     H_    0.280869 0.612299 0.564269 0.140635
H6    H     H_    0.719176 0.387718 0.435781 0.140553
H7    H     H_    0.719137 0.112296 0.435730 0.140617
H8    H     H_    0.280865 0.887703 0.564273 0.140630
H9    H     H_    0.456638 0.057174 0.876785 0.167979
H10   H     H_    0.543369 0.942824 0.123210 0.167981
H11   H     H_    0.543600 0.557258 0.122906 0.168031
H12   H     H_    0.905821 0.584958 0.575125 0.129458
H13   H     H_    0.456985 0.442920 0.876534 0.167949
H14   H     H_    0.648650 0.054600 0.184036 0.115397
H15   H     H_    0.351348 0.945400 0.815966 0.115399
H16   H     H_    0.351343 0.554604 0.815972 0.115489
H17   H     H_    0.648566 0.445402 0.184030 0.115248
H18   H     H_    0.037879 0.060521 0.819524 0.108699
H19   H     H_    0.962127 0.939481 0.180483 0.108704
H20   H     H_    0.961944 0.560554 0.180316 0.108572
H21   H     H_    0.038378 0.439327 0.819992 0.108579
H22   H     H_    0.905812 0.915051 0.575034 0.129437
H23   H     H_    0.094190 0.084948 0.424972 0.129410
H24   H     H_    0.096158 0.540144 0.506837 0.116770
H25   H     H_    0.903867 0.459880 0.493215 0.116671
H26   H     H_    0.903843 0.040140 0.493131 0.116758
H27   H     H_    0.096159 0.959859 0.506875 0.116766
H28   H     H_    0.281957 0.361286 0.410811 0.119986
O1    O     O_R   0.267710 0.668200 0.902110 -0.475823
O2    O     O_R   0.883280 0.330790 0.732340 -0.538114
O3    O     O_R   0.883280 0.169210 0.732340 -0.538219
O4    O     O_R   0.116720 0.830790 0.267660 -0.538198
O5    O     O_R   0.366710 0.675440 0.427590 -0.512080
O6    O     O_R   0.633290 0.324560 0.572410 -0.512041
O7    O     O_R   0.633290 0.175440 0.572410 -0.512087
O8    O     O_R   0.366710 0.824560 0.427590 -0.512072
O9    O     O_R   0.534870 0.669390 0.371760 -0.516464
O10   O     O_R   0.465130 0.330610 0.628240 -0.516466
O11   O     O_R   0.465130 0.169390 0.628240 -0.516486
O12   O     O_R   0.732290 0.331800 0.097890 -0.475895
O13   O     O_R   0.534870 0.830610 0.371760 -0.516476
O14   O     O_R   0.453080 0.674480 0.075160 -0.510815
O15   O     O_R   0.546920 0.325520 0.924840 -0.510859
O16   O     O_R   0.546920 0.174480 0.924840 -0.510851
O17   O     O_R   0.453080 0.825520 0.075160 -0.510836
O18   O     O_3   0.306390 0.750000 0.180470 -0.250471
O19   O     O_3   0.693610 0.250000 0.819530 -0.250357
O20   O     O_R   0.732290 0.168200 0.097890 -0.475834
O21   O     O_R   0.267710 0.831800 0.902110 -0.475813
O22   O     O_R   0.099480 0.674460 0.038850 -0.436354
O23   O     O_R   0.900520 0.325540 0.961150 -0.436714
O24   O     O_R   0.900520 0.174460 0.961150 -0.436406
O25   O     O_R   0.099480 0.825540 0.038850 -0.436360
O26   O     O_R   0.116720 0.669210 0.267660 -0.538200

loop_
_geom_bond_atom_site_label_1
_geom_bond_atom_site_label_2
_ccdc_geom_bond_type
C44   C49   A    
C30   C51   A    
Cr3   O26   S    
Cr3   O5    S    
C22   O1    A    
C5    C56   D    
C4    C8    D    
C23   O24   A    
Cr4   O19   S    
C36   H1    S    
C6    H9    S    
Cr1   O21   S    
Cr6   O11   S    
C20   C30   S    
C32   H2    S    
Cr5   O9    S    
C38   C42   A    
C48   C52   A    
C3    C7    D    
C10   C15   D    
C2    H14   S    
C5    C6    S    
Cr1   O18   S    
C29   C54   A    
Cr2   O24   S    
C44   H5    S    
C11   C16   D    
Cr5   O14   S    
C26   O21   A    
C34   O25   A    
C9    H19   S    
C35   H4    S    
C11   H21   S    
C16   C17   S    
C13   H20   S    
Cr2   O19   S    
C41   C46   A    
C1    O22   A    
C19   C27   S    
C43   C48   A    
C28   C49   A    
C46   H6    S    
C27   C50   A    
C33   H3    S    
Cr1   O25   S    
C27   C45   A    
C3    C24   S    
C2    C6    D    
Cr1   O22   S    
Cr6   O10   S    
C50   C53   A    
C35   C55   A    
C48   H8    S    
C36   C40   A    
C18   C28   S    
C47   H7    S    
Cr6   O19   S    
Cr4   O3    S    
C47   C51   A    
C20   O7    A    
C21   C29   S    
Cr2   O23   S    
C38   H22   S    
Cr2   O12   S    
C1    O26   A    
C35   C39   A    
C9    C14   D    
C4    C22   S    
C19   O10   A    
Cr6   O16   S    
C45   C49   A    
C28   C53   A    
C14   F2    S    
Cr3   O18   S    
C4    H16   S    
C32   C37   A    
C21   O13   A    
C16   F4    S    
C25   O16   A    
C21   O8    A    
Cr4   O2    S    
C23   O3    A    
C3    H17   S    
C9    C34   S    
C1    C13   S    
C18   O5    A    
C31   C45   A    
Cr4   O7    S    
Cr5   O17   S    
C32   C53   A    
C7    H13   S    
C20   O11   A    
C37   H12   S    
C33   C54   A    
C41   H25   S    
C14   C15   S    
Cr3   O8    S    
C24   O15   A    
Cr4   O6    S    
C26   C56   S    
C39   C43   A    
C19   O6    A    
C52   C55   A    
C10   C23   S    
C31   H28   S    
C30   C55   A    
C46   C50   A    
C17   F3    S    
C33   C38   A    
C13   C17   D    
C51   C54   A    
C34   O4    A    
C5    H10   S    
C25   O20   A    
C18   O9    A    
C8    H11   S    
Cr6   O15   S    
C22   O14   A    
C10   H18   S    
C43   H27   S    
C56   H15   S    
C2    C25   S    
C42   H26   S    
C42   C47   A    
C37   C41   A    
Cr5   O13   S    
C7    C8    S    
C12   O23   A    
C40   C44   A    
C24   O12   A    
Cr1   O1    S    
Cr2   O20   S    
Cr3   O4    S    
C15   F1    S    
C31   C36   A    
C12   O2    A    
C40   H24   S    
Cr5   O18   S    
C26   O17   A    
C39   H23   S    
C11   C12   S    
C29   C52   A    
