data_mof_unit_14998.cif
_audit_creation_date              2012-12-11T17:07:30-0500
_audit_creation_method            fapswitch 2.2
_symmetry_space_group_name_H-M    P1
_symmetry_Int_Tables_number       1
_space_group_crystal_system       triclinic
_cell_length_a                    6.935308
_cell_length_b                    14.647966
_cell_length_c                    15.969244
_cell_angle_alpha                 90.165508
_cell_angle_beta                  89.702136
_cell_angle_gamma                 89.810315
_cell_volume                      1622.24838517

loop_
_atom_site_label
_atom_site_type_symbol
_atom_type_description
_atom_site_fract_x
_atom_site_fract_y
_atom_site_fract_z
_atom_type_partial_charge
O1    O     O_R   0.505720 0.583900 0.413310 -0.547351
O2    O     O_R   0.175940 0.594920 0.586080 -0.539070
O3    O     O_R   0.005640 0.416100 0.586690 -0.534001
C1    C     C_R   0.343518 0.614917 0.616366 0.755046
O4    O     O_R   0.176000 0.594930 0.413930 -0.512292
O5    O     O_R   0.005700 0.416110 0.413310 -0.526668
C2    C     C_R   0.344379 0.616114 0.384311 0.748263
O6    O     O_R   0.505660 0.583890 0.586690 -0.550494
O7    O     O_3   0.339200 0.441330 0.500000 -0.379202
V1    V     V_3+5 0.064350 0.510880 0.500000 1.466706
O8    O     O_R   0.675980 0.405080 0.413920 -0.553143
C3    C     C_R   0.845866 0.383048 0.385156 0.755883
O9    O     O_R   0.675920 0.405070 0.586070 -0.543707
C4    C     C_R   0.844444 0.383656 0.615106 0.689199
V2    V     V_3+5 0.564340 0.489120 0.500000 1.397436
O10   O     O_3   0.839360 0.558670 0.500000 -0.373601
H1    H     H_    0.291239 0.137975 0.535999 0.115242
C5    C     C_R   0.626968 0.406139 0.770443 -0.143941
C6    C     C_R   0.524372 0.419929 0.844554 -0.125556
C7    C     C_R   0.541127 0.358141 0.909716 -0.126888
C8    C     C_R   0.659840 0.281879 0.901057 -0.126353
C9    C     C_R   0.761611 0.264122 0.825410 0.069536
C10   C     C_R   0.746347 0.328233 0.758793 0.079527
C11   C     C_R   0.883668 0.186404 0.816999 -0.181236
C12   C     C_R   0.998641 0.175757 0.743342 0.075936
C13   C     C_R   0.979303 0.238552 0.675918 0.065272
C14   C     C_R   0.854371 0.315163 0.683725 -0.178271
C15   C     C_R   0.130060 0.101903 0.733714 -0.150692
C16   C     C_R   0.237327 0.090244 0.660521 -0.144237
C17   C     C_R   0.212441 0.149232 0.593843 -0.136203
C18   C     C_R   0.082946 0.221523 0.600551 -0.132753
H2    H     H_    0.434513 0.480000 0.852065 0.151848
H3    H     H_    0.464345 0.370155 0.967943 0.113003
H4    H     H_    0.148142 0.049688 0.780376 0.132240
H5    H     H_    0.334005 0.032657 0.654209 0.178411
C19   C     C_R   0.778515 0.166770 0.257874 0.103272
C20   C     C_R   0.883485 0.183088 0.184606 -0.157664
C21   C     C_R   0.000191 0.261718 0.183236 -0.276541
C22   C     C_R   0.992315 0.327010 0.249199 0.433176
C23   C     C_R   0.863153 0.314092 0.317538 -0.204863
C24   C     C_R   0.770241 0.229503 0.322630 0.030530
C25   C     C_3   0.571972 0.200513 0.347518 -0.404219
C26   C     C_3   0.580079 0.132498 0.274819 -0.400895
H6    H     H_    0.462183 0.254583 0.339258 0.166809
H7    H     H_    0.569936 0.166928 0.409854 0.165652
C27   C     C_R   0.447001 0.764859 0.674492 -0.042807
C28   C     C_R   0.347774 0.683140 0.684603 -0.182930
C29   C     C_R   0.239119 0.672628 0.759395 0.435930
C30   C     C_R   0.256059 0.738352 0.824872 -0.263224
H8    H     H_    0.181680 0.726802 0.883710 0.136324
C31   C     C_R   0.377324 0.815140 0.816507 -0.211524
C32   C     C_R   0.461306 0.829139 0.737694 0.072799
C33   C     C_3   0.657138 0.857948 0.708369 0.340939
C34   C     C_3   0.638588 0.786470 0.638316 -0.453634
H9    H     H_    0.771524 0.844160 0.755506 0.056061
H10   H     H_    0.743152 0.729432 0.644006 0.141400
H11   H     H_    0.623690 0.814701 0.574171 0.175630
C35   C     C_R   0.483180 0.756282 0.317408 0.018799
C36   C     C_R   0.349537 0.684883 0.316043 -0.191277
C37   C     C_R   0.209901 0.685073 0.250806 0.454819
C38   C     C_R   0.223445 0.752842 0.186294 -0.299410
H12   H     H_    0.121023 0.754939 0.135585 0.127863
C39   C     C_R   0.375395 0.816526 0.184137 -0.146833
C40   C     C_R   0.495925 0.819718 0.253760 0.092959
C41   C     C_3   0.708311 0.830037 0.263672 -0.398695
C42   C     C_3   0.694432 0.759710 0.333941 -0.368318
H13   H     H_    0.747938 0.899224 0.286404 0.158376
H14   H     H_    0.790442 0.805965 0.207998 0.178349
O11   O     O_R   0.229140 0.916090 0.913340 -0.542360
O12   O     O_R   0.558860 0.905090 0.086080 -0.543278
O13   O     O_R   0.729100 0.083920 0.086690 -0.541700
C43   C     C_R   0.389708 0.883563 0.115207 0.716259
O14   O     O_R   0.558860 0.905090 0.913930 -0.540357
O15   O     O_R   0.729100 0.083920 0.913310 -0.531617
C44   C     C_R   0.390367 0.883576 0.884624 0.735566
O16   O     O_R   0.229140 0.916080 0.086720 -0.540887
O17   O     O_3   0.395570 0.058660 0.000020 -0.369975
V3    V     V_3+5 0.670450 0.989140 0.000000 1.410863
O18   O     O_R   0.058810 0.094980 0.913910 -0.543836
C45   C     C_R   0.890752 0.116670 0.884915 0.704734
O19   O     O_R   0.058810 0.094980 0.086060 -0.542150
C46   C     C_R   0.889807 0.116549 0.115068 0.715147
V4    V     V_3+5 0.170450 0.010950 0.999970 1.403671
O20   O     O_3   0.895460 0.941370 0.999990 -0.374240
O21   O     O_3   0.082483 0.410329 0.239041 -0.549228
C47   C     C_3   0.282880 0.400040 0.249693 -0.186010
H15   H     H_    0.316557 0.390876 0.316981 0.146980
H16   H     H_    0.354349 0.463898 0.229214 0.150308
H17   H     H_    0.344954 0.343366 0.211451 0.102685
H18   H     H_    0.477730 0.149108 0.223631 0.177792
H19   H     H_    0.579853 0.060143 0.295561 0.159249
O22   O     O_3   0.143059 0.591689 0.774298 -0.561664
C48   C     C_3   0.942330 0.607481 0.773730 -0.256868
H20   H     H_    0.871671 0.552254 0.809686 0.165008
H21   H     H_    0.888401 0.604086 0.708517 0.148535
H22   H     H_    0.897683 0.673166 0.803551 0.114010
O23   O     O_3   0.651076 0.948570 0.678803 -0.554888
C49   C     C_3   0.825195 0.969088 0.637215 -0.242650
H23   H     H_    0.829886 0.043720 0.626426 0.179180
H24   H     H_    0.831884 0.935936 0.574671 0.134408
H25   H     H_    0.953326 0.948905 0.674564 0.131521
H26   H     H_    0.614035 0.458946 0.723847 0.119017
O24   O     O_3   0.066691 0.618102 0.253556 -0.542905
C50   C     C_3   0.974066 0.602999 0.176235 -0.199177
H27   H     H_    0.880675 0.542084 0.182144 0.187925
H28   H     H_    0.080100 0.589156 0.125179 0.134500
H29   H     H_    0.876345 0.660422 0.160483 0.103331
H30   H     H_    0.726714 0.788640 0.396736 0.158196
H31   H     H_    0.767236 0.694018 0.319350 0.222026
H32   H     H_    0.673765 0.238831 0.955477 0.115678
H33   H     H_    0.063629 0.262413 0.545059 0.113995
H34   H     H_    0.088614 0.275512 0.128617 0.138460

loop_
_geom_bond_atom_site_label_1
_geom_bond_atom_site_label_2
_ccdc_geom_bond_type
O18   C45   A    
C48   H20   S    
O12   V3    S    
C24   C25   S    
C6    C7    A    
C1    O6    A    
C30   C31   A    
C50   H28   S    
C8    H32   S    
O17   V3    S    
C12   C15   A    
C13   C14   A    
C16   C17   A    
C15   C16   A    
O19   C46   A    
C31   C44   S    
O5    C3    A    
C17   C18   A    
C47   H16   S    
O17   V4    S    
V2    O10   S    
C49   H23   S    
C27   C32   A    
C5    C6    A    
C5    H26   S    
C38   C39   A    
O8    V2    S    
C11   C45   S    
V4    O20   S    
C41   H13   S    
O14   V3    S    
O1    V2    S    
C10   C14   A    
C4    C14   S    
C37   O24   S    
O7    V1    S    
C43   O16   A    
O13   C46   A    
C15   H4    S    
C36   C37   A    
C48   H21   S    
O15   C45   A    
C8    C9    A    
H1    C17   S    
O14   C44   A    
C19   C24   A    
C25   H6    S    
C6    H2    S    
O16   V4    S    
C2    C36   S    
C50   H27   S    
O19   V4    S    
C35   C42   S    
O23   C49   S    
C33   H9    S    
C35   C40   A    
C34   H10   S    
C26   H18   S    
C5    C10   A    
C11   C12   A    
C22   C23   A    
O4    C2    A    
C47   H15   S    
C33   O23   S    
C12   C13   A    
O21   C47   S    
C26   H19   S    
C31   C32   A    
C37   C38   A    
C25   H7    S    
C3    C23   S    
O2    C1    A    
C20   C21   A    
O11   V4    S    
C28   C29   A    
C41   H14   S    
C27   C34   S    
C7    C8    A    
O3    C4    A    
C7    H3    S    
C23   C24   A    
C41   C42   S    
C48   H22   S    
C49   H24   S    
O9    V2    S    
C29   O22   S    
C9    C11   A    
C20   C46   S    
C25   C26   S    
C22   O21   S    
C21   H34   S    
O2    V1    S    
C32   C33   S    
C27   C28   A    
C19   C20   A    
O1    C2    A    
C42   H30   S    
C47   H17   S    
O5    V1    S    
O8    C3    A    
C33   C34   S    
O6    V2    S    
C49   H25   S    
C16   H5    S    
C40   C41   S    
C35   C36   A    
O4    V1    S    
O3    V1    S    
V1    O10   S    
O18   V4    S    
C21   C22   A    
C29   C30   A    
O22   C48   S    
O11   C44   A    
C50   H29   S    
C42   H31   S    
O7    V2    S    
C38   H12   S    
C39   C40   A    
V3    O20   S    
C13   C18   A    
C39   C43   S    
C30   H8    S    
O15   V3    S    
O24   C50   S    
C18   H33   S    
C9    C10   A    
C19   C26   S    
O12   C43   A    
O9    C4    A    
C34   H11   S    
O13   V3    S    
C1    C28   S    
