data_mof_unit_44771.cif
_audit_creation_date              2013-03-05T16:09:06-0500
_audit_creation_method            fapswitch 2.2
_symmetry_space_group_name_H-M    P1
_symmetry_Int_Tables_number       1
_space_group_crystal_system       triclinic
_cell_length_a                    18.22265
_cell_length_b                    7.09272
_cell_length_c                    12.97064
_cell_angle_alpha                 90.16545
_cell_angle_beta                  72.065466
_cell_angle_gamma                 89.951827
_cell_volume                      1594.96248087

loop_
_atom_site_label
_atom_site_type_symbol
_atom_site_description
_atom_site_fract_x
_atom_site_fract_y
_atom_site_fract_z
_atom_type_partial_charge
O1    O     O_R   0.453880 0.506200 0.150010 -0.590877
O2    O     O_R   0.546120 0.006200 0.849990 -0.593193
O3    O     O_R   0.604080 0.177770 0.007280 -0.585244
O4    O     O_R   0.395920 0.677770 0.992720 -0.567378
C1    C     C_R   0.636037 0.344411 0.001511 1.031178
C2    C     C_R   0.363912 0.844533 0.998717 1.034400
O5    O     O_R   0.458010 0.176640 0.159130 -0.586710
O6    O     O_R   0.541990 0.676640 0.840870 -0.585790
O7    O     O_R   0.399010 0.004010 0.002930 -0.596533
O8    O     O_R   0.600990 0.504010 0.997070 -0.578510
C3    C     C_R   0.444176 0.345765 0.202249 1.030982
C4    C     C_R   0.555742 0.844969 0.797654 1.032381
O9    O     O_3   0.480810 0.338440 0.948570 -0.260591
O10   O     O_3   0.519190 0.838440 0.051430 -0.258221
V1    V     V_3+5 0.503560 0.064490 0.009540 1.276977
V2    V     V_3+5 0.496440 0.564490 0.990460 1.286472
C5    C     C_R   0.579952 0.842937 0.496568 -0.127919
C6    C     C_R   0.419711 0.382147 0.502432 -0.127218
C7    C     C_R   0.588629 0.851443 0.679069 -0.246019
C8    C     C_R   0.410855 0.356336 0.320586 -0.245948
C9    C     C_R   0.951771 0.861779 0.386800 -0.184160
C10   C     C_R   0.048042 0.350640 0.613537 -0.183993
C11   C     C_R   0.918892 0.860275 0.498574 -0.093540
C12   C     C_R   0.080817 0.341629 0.501849 -0.093592
C13   C     C_R   0.838968 0.860107 0.544702 -0.170209
C14   C     C_R   0.160726 0.340808 0.455588 -0.170174
C15   C     C_R   0.789210 0.861592 0.479281 0.113641
C16   C     C_R   0.210564 0.348323 0.520810 0.114081
C17   C     C_R   0.823524 0.861603 0.364784 0.047561
C18   C     C_R   0.176375 0.356785 0.635222 0.047018
C19   C     C_R   0.706909 0.861035 0.523577 0.080801
C20   C     C_R   0.292818 0.350930 0.476310 0.080878
C21   C     C_R   0.660718 0.857608 0.452716 -0.036022
C22   C     C_R   0.339105 0.363557 0.546826 -0.035338
C23   C     C_R   0.696124 0.863278 0.339177 0.391599
C24   C     C_R   0.303904 0.363331 0.660416 0.391210
C25   C     C_R   0.776314 0.863089 0.297266 -0.334099
C26   C     C_R   0.223703 0.362833 0.702557 -0.333713
C27   C     C_R   0.668947 0.861740 0.636445 -0.253220
C28   C     C_R   0.330663 0.343240 0.363516 -0.253240
C29   C     C_R   0.542883 0.840034 0.608719 0.327920
C30   C     C_R   0.456455 0.379400 0.390270 0.330736
C31   C     C_R   0.904981 0.862078 0.319456 -0.118276
C32   C     C_R   0.094932 0.358246 0.680649 -0.118326
H1    H     H_    0.700196 0.868639 0.694577 0.109416
H2    H     H_    0.299485 0.327054 0.305734 0.109152
H3    H     H_    0.955678 0.859506 0.550137 0.125892
H4    H     H_    0.043964 0.335874 0.450447 0.125873
C33   C     C_1   0.216301 0.858717 0.000372 -0.214723
C34   C     C_1   0.783666 0.358816 0.999769 -0.213800
C35   C     C_1   0.283548 0.852666 0.999378 -0.140300
C36   C     C_1   0.716406 0.352465 0.000841 -0.143218
O11   O     O_R   0.899030 0.205490 0.002790 -0.587811
O12   O     O_R   0.100970 0.705490 0.997210 -0.582618
O13   O     O_R   0.042000 0.536370 0.840840 -0.590794
O14   O     O_R   0.958000 0.036370 0.159160 -0.592168
C37   C     C_R   0.057566 0.367869 0.798066 0.909616
C38   C     C_R   0.942437 0.868601 0.201980 0.909094
O15   O     O_R   0.895930 0.535070 0.992690 -0.586473
O16   O     O_R   0.104070 0.035070 0.007310 -0.591813
O17   O     O_R   0.953870 0.707520 0.150040 -0.588320
O18   O     O_R   0.046130 0.207520 0.849960 -0.589890
C39   C     C_R   0.864106 0.366810 0.998791 0.971116
C40   C     C_R   0.135886 0.866707 0.001252 0.970865
O19   O     O_3   0.019200 0.374340 0.051340 -0.281547
O20   O     O_3   0.980800 0.874340 0.948660 -0.281561
V3    V     V_3+5 0.996440 0.648350 0.990470 1.187445
V4    V     V_3+5 0.003560 0.148350 0.009530 1.182605
N1    N     N_R   0.459623 0.827050 0.647840 0.240651
O21   O     O_R   0.419223 0.851873 0.581806 -0.399917
O22   O     O_R   0.423093 0.787357 0.748312 -0.385927
N2    N     N_R   0.539327 0.399395 0.350106 0.239622
O23   O     O_R   0.580918 0.373018 0.414427 -0.397033
O24   O     O_R   0.573829 0.453849 0.251439 -0.384438
N3    N     N_R   0.651996 0.872970 0.264381 0.245624
O25   O     O_R   0.675640 0.782938 0.172445 -0.364891
O26   O     O_R   0.598296 0.999869 0.277308 -0.370028
N4    N     N_R   0.348309 0.359451 0.734996 0.245146
O27   O     O_R   0.324138 0.451404 0.826230 -0.367776
O28   O     O_R   0.403159 0.235826 0.722713 -0.367246
H5    H     H_    0.544835 0.827796 0.443486 0.198613
H6    H     H_    0.454855 0.405459 0.554834 0.195665
H7    H     H_    0.014043 0.863042 0.352544 0.103498
H8    H     H_    0.985775 0.351608 0.647909 0.103525
H9    H     H_    0.818476 0.858003 0.631838 0.109299
H10   H     H_    0.181149 0.335379 0.368482 0.109142
H11   H     H_    0.801585 0.867262 0.210047 0.170032
H12   H     H_    0.198509 0.364045 0.789827 0.170619

loop_
_geom_bond_atom_site_label_1
_geom_bond_atom_site_label_2
_geom_bond_distance
_ccdc_geom_bond_type
O20   V4    2.183260 S    
C15   C17   1.422891 A    
O1    C3    1.310056 A    
O2    C4    1.311934 A    
C2    O7    1.309147 A    
C37   O18   1.307061 A    
O5    C3    1.313041 A    
C23   N3    1.439884 S    
C23   C25   1.393417 A    
C12   C14   1.393676 A    
C6    C30   1.401822 A    
C8    C28   1.397681 A    
N4    O28   1.301114 A    
C18   C26   1.404344 A    
N1    O22   1.299562 A    
O11   V4    1.975264 S    
C31   C38   1.466199 S    
O15   V3    1.992768 S    
C9    C31   1.395951 A    
C10   C32   1.395951 A    
C9    H7    1.083827 S    
C19   C27   1.413521 A    
C16   C18   1.422684 A    
C33   C35   1.222230 T    
C34   C36   1.222326 T    
C19   C21   1.424867 A    
C1    C36   1.463040 S    
C2    C35   1.462920 S    
C5    H5    1.079870 S    
O6    C4    1.311597 A    
C27   H1    1.076767 S    
C38   O17   1.308167 A    
O5    V1    2.021016 S    
O20   V3    1.744704 S    
O6    V2    2.025972 S    
C33   C40   1.462956 S    
C17   C31   1.418289 A    
C34   C39   1.463128 S    
C18   C32   1.418183 A    
C5    C21   1.409076 A    
C6    H6    1.080309 S    
C13   H9    1.075739 S    
C3    C8    1.468168 S    
C11   H3    1.082957 S    
C15   C19   1.431313 A    
C12   H4    1.082966 S    
C16   C20   1.430895 A    
O4    C2    1.309825 A    
N4    O27   1.301446 A    
O12   V3    1.975818 S    
O19   V3    2.186695 S    
O14   V4    2.025949 S    
C26   H12   1.082611 S    
C20   C22   1.425061 A    
O4    V2    1.991484 S    
C28   H2    1.076814 S    
N3    O25   1.301586 A    
C6    C22   1.409372 A    
O17   V3    2.016754 S    
O13   V3    2.020999 S    
C32   C37   1.465740 S    
C14   H10   1.075751 S    
O19   V4    1.742265 S    
C30   N2    1.445104 S    
O1    V2    2.017953 S    
O2    V1    2.015236 S    
N3    O26   1.300917 A    
C7    C27   1.398304 A    
N2    O24   1.299999 A    
O13   C37   1.309689 A    
C10   C12   1.387785 A    
C20   C28   1.413176 A    
O3    V1    1.992794 S    
C29   N1    1.447171 S    
C14   C16   1.419963 A    
C25   H11   1.082653 S    
N2    O23   1.302113 A    
O3    C1    1.310167 A    
C8    C30   1.412836 A    
C13   C15   1.419932 A    
O15   C39   1.319187 A    
O18   V4    2.019509 S    
O16   C40   1.318538 A    
C9    C11   1.387837 A    
O7    V1    1.980611 S    
C1    O8    1.309353 A    
O8    V2    1.980027 S    
O11   C39   1.317701 A    
O12   C40   1.317762 A    
C4    C7    1.469645 S    
C24   C26   1.393820 A    
C21   C23   1.414875 A    
O14   C38   1.308525 A    
C22   C24   1.414278 A    
C11   C13   1.393744 A    
N1    O21   1.302121 A    
C5    C29   1.402788 A    
O16   V4    1.991456 S    
O9    V2    1.742982 S    
C17   C25   1.403991 A    
O10   V1    1.745426 S    
C24   N4    1.439954 S    
C7    C29   1.414992 A    
C10   H8    1.083831 S    
