data_mof_unit_22985.cif
_audit_creation_date              2012-12-11T14:34:57-0500
_audit_creation_method            fapswitch 2.2
_symmetry_space_group_name_H-M    P1
_symmetry_Int_Tables_number       1
_space_group_crystal_system       triclinic
_cell_length_a                    8.266863
_cell_length_b                    15.025724
_cell_length_c                    16.465436
_cell_angle_alpha                 109.873072
_cell_angle_beta                  97.376152
_cell_angle_gamma                 81.116976
_cell_volume                      1894.04448655

loop_
_atom_site_label
_atom_site_type_symbol
_atom_type_description
_atom_site_fract_x
_atom_site_fract_y
_atom_site_fract_z
_atom_type_partial_charge
Ba1   Ba    Ba6+2 0.364960 0.465930 0.541880 1.688523
Ba2   Ba    Ba6+2 0.824870 0.533990 0.458110 1.655890
C1    C     C_3   0.270830 0.168447 0.747155 -0.368799
C2    C     C_R   0.886408 0.523141 0.750736 -0.301502
C3    C     C_2   0.488550 0.395613 0.137832 -0.118671
C4    C     C_3   0.704988 0.316188 0.771588 0.340258
C5    C     C_2   0.454992 0.424000 0.221147 0.031865
C6    C     C_2   0.180746 0.502708 0.190188 0.018429
C7    C     C_3   0.200921 0.455864 0.093787 0.062095
C8    C     C_3   0.381738 0.434607 0.073786 -0.015668
C9    C     C_2   0.103744 0.509990 0.037915 -0.102013
C10   C     C_2   0.079865 0.467202 0.952049 -0.076674
C11   C     C_R   0.824759 0.566900 0.922953 -0.062025
C12   C     C_3   0.222812 0.259119 0.724129 0.351743
C13   C     C_R   0.972339 0.512478 0.894303 -0.024066
C14   C     C_R   0.709604 0.602238 0.867932 -0.121336
C15   C     C_R   0.737687 0.576874 0.779166 0.056689
C16   C     C_3   0.722282 0.303914 0.860369 -0.355618
C17   C     C_R   0.006569 0.494411 0.808223 0.006639
C18   C     C_R   0.263575 0.764099 0.481553 -0.297837
C19   C     C_R   0.348721 0.817641 0.451142 0.045156
C20   C     C_R   0.287698 0.912695 0.459819 -0.090242
C21   C     C_R   0.141615 0.956413 0.501673 0.002960
C22   C     C_R   0.064880 0.900823 0.536633 -0.114482
C23   C     C_3   0.014718 0.716003 0.724370 0.331485
C24   C     C_R   0.124438 0.805912 0.525777 0.025241
C25   C     C_R   0.920421 0.098593 0.548395 -0.106178
C26   C     C_R   0.854594 0.192087 0.556636 0.048142
C27   C     C_R   0.078410 0.209959 0.485087 0.043128
C28   C     C_3   0.778683 0.214230 0.275363 0.312216
C29   C     C_R   0.146159 0.115946 0.476976 -0.126105
C30   C     C_R   0.070075 0.058076 0.509717 0.001122
C31   C     C_R   0.934674 0.248049 0.526361 -0.262653
C32   C     C_3   0.809757 0.174799 0.179353 -0.394511
C33   C     C_3   0.485107 0.769224 0.658364 0.360063
C34   C     C_3   0.009266 0.759950 0.822104 -0.322234
C35   C     C_3   0.480222 0.877545 0.683141 -0.232053
C36   C     C_3   0.234257 0.257967 0.271520 0.262936
C37   C     C_3   0.320163 0.175752 0.200740 -0.235637
C38   C     C_2   0.394917 0.932200 0.764121 0.569860
C39   C     C_2   0.113186 0.320847 0.233755 0.388636
C40   C     C_2   0.123305 0.750106 0.273349 0.507834
C41   C     C_2   0.563796 0.663882 0.907947 0.565428
C42   C     C_2   0.801063 0.132969 0.311277 0.451964
C43   C     C_3   0.521952 0.671935 0.228483 0.382695
C44   C     C_3   0.505556 0.675994 0.136809 -0.343638
C45   C     C_3   0.942258 0.745292 0.267152 0.252209
C46   C     C_3   0.847755 0.832523 0.246613 -0.289056
C47   C     C_2   0.302072 0.487051 0.248795 -0.288056
H1    H     H_    0.272357 0.247988 0.661348 0.082876
H2    H     H_    0.409849 0.130634 0.230743 0.156594
H3    H     H_    0.385957 0.203643 0.161471 0.075752
H4    H     H_    0.229714 0.130037 0.157009 0.119828
H5    H     H_    0.086559 0.272007 0.717142 -0.069694
H6    H     H_    0.219263 0.107830 0.695608 0.064003
H7    H     H_    0.896615 0.687482 0.696432 -0.010005
H8    H     H_    0.903748 0.816751 0.837622 0.122679
H9    H     H_    0.995451 0.704804 0.850662 0.041261
H10   H     H_    0.124965 0.791007 0.851491 0.193782
H11   H     H_    0.222185 0.176904 0.809516 0.119158
H12   H     H_    0.797829 0.233655 0.152035 0.150797
H13   H     H_    0.755938 0.370507 0.910949 0.085000
H14   H     H_    0.639756 0.630417 0.239147 0.106687
H15   H     H_    0.518363 0.602484 0.090050 0.067159
H16   H     H_    0.602652 0.714322 0.127899 0.131896
H17   H     H_    0.907652 0.748097 0.330950 0.057735
H18   H     H_    0.884026 0.899310 0.296176 0.106821
H19   H     H_    0.714288 0.834308 0.247033 0.155509
H20   H     H_    0.873146 0.831489 0.181618 0.130766
H21   H     H_    0.600995 0.350243 0.116949 0.088624
H22   H     H_    0.284197 0.515029 0.317445 0.065410
H23   H     H_    0.935229 0.135957 0.170577 0.108947
H24   H     H_    0.911699 0.506989 0.684050 0.069722
H25   H     H_    0.055267 0.584088 0.066648 0.109428
H26   H     H_    0.136050 0.394561 0.923865 0.108371
H27   H     H_    0.849654 0.059735 0.572085 0.069904
H28   H     H_    0.355896 0.949836 0.432754 0.093585
H29   H     H_    0.255730 0.089515 0.443057 0.107604
H30   H     H_    0.824890 0.331724 0.759366 -0.064317
H31   H     H_    0.959946 0.928776 0.573898 0.070613
H32   H     H_    0.880882 0.319890 0.531328 0.075950
H33   H     H_    0.309226 0.690338 0.473398 0.063035
H34   H     H_    0.358951 0.749330 0.645963 0.005247
H35   H     H_    0.604253 0.287777 0.874434 0.146065
H36   H     H_    0.819765 0.244699 0.862333 0.120142
H37   H     H_    0.867559 0.263224 0.313093 0.027020
H38   H     H_    0.718941 0.125169 0.142633 0.102568
H39   H     H_    0.407400 0.007225 0.794883 -0.039644
H40   H     H_    0.058011 0.386359 0.277773 0.054899
H41   H     H_    0.117000 0.657029 0.710810 0.064133
H42   H     H_    0.422489 0.633734 0.233888 -0.024380
H43   H     H_    0.383445 0.712727 0.122825 0.152219
H44   H     H_    0.204297 0.703283 0.301852 -0.134597
H45   H     H_    0.551666 0.735433 0.598865 0.010963
H46   H     H_    0.610129 0.377500 0.772511 0.092604
H47   H     H_    0.526868 0.657798 0.966335 -0.029290
H48   H     H_    0.918555 0.088747 0.308779 -0.027976
H49   H     H_    0.417669 0.901972 0.629559 -0.018311
H50   H     H_    0.608460 0.895416 0.693520 0.059017
H51   H     H_    0.327128 0.301726 0.314019 0.032084
H52   H     H_    0.406712 0.152670 0.753196 0.142780
O1    O     O_2   0.426270 0.593440 0.713420 -0.441920
O2    O     O_2   0.686951 0.807810 0.438287 -0.495271
O3    O     O_3   0.513059 0.764671 0.288699 -0.581113
O4    O     O_3   0.647730 0.570260 0.604850 -0.509663
O5    O     O_3   0.070240 0.381690 0.454200 -0.505437
O6    O     O_2   0.845720 0.730180 0.545110 -0.462794
O7    O     O_3   0.039515 0.786375 0.690580 -0.610954
O8    O     O_2   0.849770 0.488066 0.187719 -0.463195
O9    O     O_3   0.899568 0.661284 0.201689 -0.646675
O10   O     O_3   0.203920 0.417520 0.657950 -0.493718
O11   O     O_2   0.341317 0.509633 0.811565 -0.489899
O12   O     O_3   0.149195 0.218555 0.316426 -0.681478
O13   O     O_3   0.565901 0.741503 0.727256 -0.585474
O14   O     O_3   0.289696 0.335075 0.789611 -0.607015
O15   O     O_2   0.343970 0.269780 0.454840 -0.421732
O16   O     O_3   0.615710 0.361880 0.613490 -0.496647
O17   O     O_2   0.517142 0.188690 0.551173 -0.461300
O18   O     O_2   0.312599 0.894065 0.796260 -0.531517
O19   O     O_2   0.077255 0.300695 0.155802 -0.605954
O20   O     O_2   0.179629 0.805939 0.248427 -0.587633
O21   O     O_2   0.487134 0.724379 0.879351 -0.539213
O22   O     O_2   0.689594 0.116004 0.343742 -0.567933
O23   O     O_3   0.657578 0.232390 0.708589 -0.609980
O24   O     O_2   0.763420 0.406520 0.286530 -0.484199
O25   O     O_3   0.541980 0.429670 0.395140 -0.467953
O26   O     O_3   0.985790 0.582400 0.342040 -0.497814
O27   O     O_3   0.617728 0.259622 0.284397 -0.630179
O28   O     O_3   0.119470 0.618230 0.545790 -0.491645
O29   O     O_3   0.574000 0.638040 0.386500 -0.505042
P1    P     P_3+3 0.589930 0.617420 0.700180 1.041306
P2    P     P_3+3 0.161520 0.277720 0.428790 0.973146
P3    P     P_3+3 0.660299 0.242382 0.605869 0.986441
P4    P     P_3+3 0.599780 0.382500 0.299810 0.972024
P5    P     P_3+3 0.532992 0.758140 0.393850 0.969916
P6    P     P_3+3 0.210327 0.440830 0.768944 0.938651
P7    P     P_3+3 0.032533 0.737721 0.577560 0.956408
P8    P     P_3+3 0.978315 0.558684 0.230067 0.930274

loop_
_geom_bond_atom_site_label_1
_geom_bond_atom_site_label_2
_ccdc_geom_bond_type
O24   P4    D    
C6    C7    S    
C39   H40   S    
O3    P5    S    
C18   H33   S    
C15   P1    S    
C40   H44   S    
O13   P1    S    
C37   H2    S    
O29   P5    S    
C23   H7    S    
C4    O23   S    
C46   H20   S    
C34   H10   S    
O16   P3    S    
O4    P1    S    
C37   H4    S    
C43   C44   S    
O5    P2    S    
C23   H41   S    
Ba2   P4    S    
O23   P3    S    
C33   C35   S    
C22   C24   A    
C35   C38   S    
C34   H9    S    
O7    P7    S    
O10   P6    S    
C27   P2    S    
C44   H43   S    
O14   P6    S    
C12   O14   S    
C27   C31   A    
Ba2   O6    S    
Ba2   O28   S    
C33   O13   S    
C6    P8    S    
Ba1   Ba2   S    
O2    P5    D    
C42   O22   D    
C2    C17   A    
C1    H6    S    
C22   H31   S    
C29   C30   A    
C14   C15   A    
C16   H35   S    
C21   C22   A    
Ba1   O15   S    
C28   H37   S    
C7    C8    S    
C45   H17   S    
Ba1   O5    S    
C32   H38   S    
Ba2   O26   S    
C1    H52   S    
C37   H3    S    
C46   H18   S    
C19   C20   A    
C28   C42   S    
O11   P6    D    
C35   H49   S    
C36   C37   S    
C4    C16   S    
C28   O27   S    
C16   H36   S    
C28   C32   S    
C26   P3    S    
O9    P8    S    
Ba1   O25   S    
C5    C47   S    
C5    P4    S    
C36   H51   S    
C34   H8    S    
C3    C5    D    
C36   O12   S    
C33   H34   S    
C16   H13   S    
C17   P6    S    
C41   O21   D    
Ba2   O5    S    
C32   H12   S    
C46   H19   S    
C44   H15   S    
O8    P8    D    
O6    P7    D    
C13   C17   A    
C3    H21   S    
C43   O3    S    
O27   P4    S    
C42   H48   S    
C45   C46   S    
O15   P2    D    
C10   C13   S    
C41   H47   S    
C24   P7    S    
Ba1   O16   S    
O1    P1    D    
C7    C9    S    
C14   C41   S    
C2    H24   S    
O17   P3    D    
C36   C39   S    
C2    C15   A    
Ba2   O25   S    
O26   P8    S    
C26   C31   A    
C11   C13   A    
C10   H26   S    
C25   H27   S    
C32   H23   S    
C35   H50   S    
C29   H29   S    
C33   H45   S    
Ba2   O4    S    
C40   O20   D    
C12   H5    S    
C25   C30   A    
C20   H28   S    
Ba1   P1    S    
C9    H25   S    
C9    C10   D    
C1    C12   S    
C45   O9    S    
O12   P2    S    
Ba1   O28   S    
Ba1   P2    S    
C21   C30   S    
C38   H39   S    
C3    C8    S    
C27   C29   A    
C1    H11   S    
C4    H30   S    
C12   H1    S    
C18   C24   A    
C6    C47   D    
Ba2   O29   S    
C43   H14   S    
C40   C45   S    
C39   O19   D    
C43   H42   S    
C44   H16   S    
C23   C34   S    
Ba2   O24   S    
C38   O18   D    
O28   P7    S    
C18   C19   A    
O25   P4    S    
C4    H46   S    
C47   H22   S    
C11   C14   A    
C25   C26   A    
C20   C21   A    
C31   H32   S    
Ba1   O1    S    
C19   P5    S    
Ba1   O10   S    
C23   O7    S    
Ba1   O4    S    
