data_mof_unit_24753.cif
_audit_creation_date              2012-10-26T18:34:48-0400
_audit_creation_method            fapswitch 2.2
_symmetry_space_group_name_H-M    P1
_symmetry_Int_Tables_number       1
_space_group_crystal_system       triclinic
_cell_length_a                    10.859214
_cell_length_b                    9.622213
_cell_length_c                    17.859133
_cell_angle_alpha                 89.997037
_cell_angle_beta                  96.904681
_cell_angle_gamma                 89.995131
_cell_volume                      1852.56109613

loop_
_atom_site_label
_atom_site_type_symbol
_atom_type_description
_atom_site_fract_x
_atom_site_fract_y
_atom_site_fract_z
_atom_type_partial_charge
C1    C     C_R   0.263833 0.499999 0.507839 0.544301
C2    C     C_R   0.491617 0.500002 0.644077 0.534781
C3    C     C_R   0.870229 0.500007 0.483169 0.006718
C4    C     C_R   0.129770 0.499992 0.516830 0.006718
C5    C     C_R   0.474938 0.624910 0.846520 -0.099102
C6    C     C_R   0.525079 0.375088 0.153482 -0.099101
C7    C     C_R   0.525166 0.624907 0.153479 -0.099082
C8    C     C_R   0.474842 0.375092 0.846522 -0.099082
C9    C     C_R   0.466567 0.627140 0.767628 -0.019406
C10   C     C_R   0.533443 0.372860 0.232374 -0.019406
C11   C     C_R   0.533560 0.627106 0.232372 -0.019437
C12   C     C_R   0.736167 0.500001 0.492160 0.544302
C13   C     C_R   0.466442 0.372895 0.767628 -0.019435
C14   C     C_R   0.475541 0.500013 0.726842 0.028280
C15   C     C_R   0.524463 0.499987 0.273158 0.028281
C16   C     C_R   0.414575 0.074361 0.451805 0.120167
C17   C     C_R   0.585425 0.925639 0.548195 0.120166
C18   C     C_R   0.585414 0.074346 0.548202 0.120179
C19   C     C_R   0.414586 0.925654 0.451798 0.120180
C20   C     C_R   0.483496 0.499993 0.885551 0.008937
C21   C     C_R   0.516520 0.500005 0.114450 0.008937
C22   C     C_3   0.438673 0.765622 0.730005 -0.382445
C23   C     C_1   0.495003 0.499994 0.966181 -0.036083
C24   C     C_3   0.561339 0.234379 0.269998 -0.382445
C25   C     C_3   0.561669 0.765477 0.269984 -0.382537
C26   C     C_3   0.438317 0.234526 0.730015 -0.382534
C27   C     C_3   0.316408 0.147101 0.397520 -0.340108
C28   C     C_3   0.683594 0.852899 0.602478 -0.340109
C29   C     C_3   0.683485 0.147063 0.602552 -0.340096
C30   C     C_3   0.316513 0.852937 0.397449 -0.340094
C31   C     C_3   0.117516 0.241774 0.550611 -0.378765
C32   C     C_3   0.882484 0.758222 0.449385 -0.378764
C33   C     C_3   0.882450 0.241749 0.449485 -0.378772
C34   C     C_1   0.505015 0.500002 0.033821 -0.036083
C35   C     C_3   0.117548 0.758249 0.550516 -0.378773
C36   C     C_R   0.063157 0.373480 0.513769 -0.005969
C37   C     C_R   0.936842 0.626518 0.486229 -0.005970
C38   C     C_R   0.936865 0.373497 0.486228 -0.006019
C39   C     C_R   0.063134 0.626501 0.513771 -0.006019
C40   C     C_R   0.508383 0.499998 0.355924 0.534781
Cu1   Cu    Cu3+1 0.500000 0.640660 0.500000 0.877794
Cu2   Cu    Cu3+1 0.500000 0.359340 0.500000 0.877793
H1    H     H_    0.473465 0.721242 0.877965 0.109002
H2    H     H_    0.480017 0.197094 0.295009 0.152178
H3    H     H_    0.584893 0.846353 0.229529 0.101723
H4    H     H_    0.480481 0.802920 0.295042 0.152273
H5    H     H_    0.642749 0.755979 0.313562 0.143766
H6    H     H_    0.415098 0.153650 0.770471 0.101724
H7    H     H_    0.357229 0.244035 0.686442 0.143755
H8    H     H_    0.519496 0.197077 0.704947 0.152281
H9    H     H_    0.222812 0.122238 0.411839 0.091244
H10   H     H_    0.323213 0.259364 0.393926 0.208714
H11   H     H_    0.319574 0.111577 0.339007 0.071604
H12   H     H_    0.526556 0.278756 0.122038 0.109001
H13   H     H_    0.676786 0.740637 0.606074 0.208713
H14   H     H_    0.777188 0.877758 0.588156 0.091247
H15   H     H_    0.680434 0.888426 0.660991 0.071602
H16   H     H_    0.777111 0.122038 0.588372 0.091042
H17   H     H_    0.676812 0.259337 0.606068 0.208719
H18   H     H_    0.680068 0.111667 0.661059 0.071702
H19   H     H_    0.323188 0.740663 0.393932 0.208718
H20   H     H_    0.222889 0.877959 0.411632 0.091044
H21   H     H_    0.319925 0.888335 0.338943 0.071699
H22   H     H_    0.208819 0.258426 0.583851 0.155312
H23   H     H_    0.526741 0.721236 0.122035 0.108998
H24   H     H_    0.055865 0.204027 0.591622 0.110887
H25   H     H_    0.123832 0.158686 0.508655 0.124775
H26   H     H_    0.791181 0.741567 0.416144 0.155309
H27   H     H_    0.876166 0.841312 0.491340 0.124775
H28   H     H_    0.944136 0.795968 0.408374 0.110888
H29   H     H_    0.791220 0.258393 0.416172 0.155292
H30   H     H_    0.944144 0.203750 0.408583 0.110873
H31   H     H_    0.875979 0.158871 0.491528 0.124900
H32   H     H_    0.208778 0.741605 0.583828 0.155293
H33   H     H_    0.124017 0.841129 0.508474 0.124899
H34   H     H_    0.473264 0.278763 0.877965 0.108998
H35   H     H_    0.055853 0.796245 0.591418 0.110873
H36   H     H_    0.415548 0.846536 0.770455 0.101715
H37   H     H_    0.519994 0.802906 0.704992 0.152177
H38   H     H_    0.357588 0.756322 0.686381 0.143875
H39   H     H_    0.584467 0.153465 0.229549 0.101715
H40   H     H_    0.642422 0.243682 0.313623 0.143874
N1    N     N_R   0.500000 0.852070 0.500000 -0.228545
N2    N     N_R   0.500000 0.147930 0.500000 -0.228545
O1    O     O_R   0.319640 0.618740 0.499990 -0.514329
O2    O     O_R   0.680360 0.381260 0.500010 -0.514330
O3    O     O_R   0.680360 0.618740 0.500010 -0.514319
O4    O     O_R   0.319640 0.381260 0.499990 -0.514320
O5    O     O_R   0.500000 0.618830 0.391250 -0.517352
O6    O     O_R   0.500000 0.381170 0.608750 -0.517352
O7    O     O_R   0.500000 0.618830 0.608750 -0.517383
O8    O     O_R   0.500000 0.381170 0.391250 -0.517383

loop_
_geom_bond_atom_site_label_1
_geom_bond_atom_site_label_2
_ccdc_geom_bond_type
C31   H24   S    
Cu1   O5    S    
C4    C36   A    
C35   H32   S    
C8    C13   A    
Cu1   Cu2   S    
C35   C39   S    
C8    H34   S    
C24   H39   S    
C28   H14   S    
C5    C20   A    
C28   H15   S    
C31   H25   S    
C35   H33   S    
C8    C20   A    
C22   H37   S    
C10   C15   A    
C26   H8    S    
C9    C22   S    
C11   C25   S    
Cu1   N1    S    
C16   N2    A    
C2    O6    A    
C24   H40   S    
C3    C12   S    
C33   H30   S    
C11   C15   A    
C29   H17   S    
C3    C38   A    
C18   N2    A    
C29   H18   S    
Cu2   O2    S    
C40   O5    A    
C25   H5    S    
C26   H6    S    
C32   H26   S    
C1    O4    A    
C5    H1    S    
C13   C14   A    
C6    H12   S    
C19   N1    A    
C28   H13   S    
C27   H9    S    
C1    O1    A    
Cu1   O3    S    
C20   C23   S    
Cu2   N2    S    
C22   H36   S    
C26   H7    S    
C32   H28   S    
C21   C34   S    
C10   C24   S    
C7    C21   A    
C6    C21   A    
C35   H35   S    
Cu2   O6    S    
C7    C11   A    
C9    C14   A    
C5    C9    A    
C7    H23   S    
C4    C39   A    
C23   C34   T    
C17   C18   A    
C18   C29   S    
C32   C37   S    
C40   O8    A    
C33   H31   S    
Cu1   O7    S    
C30   H20   S    
C24   H2    S    
C13   C26   S    
Cu2   O4    S    
C25   H3    S    
C27   H10   S    
C12   O3    A    
C17   C28   S    
C31   H22   S    
C6    C10   A    
C27   H11   S    
C32   H27   S    
Cu1   O1    S    
C33   C38   S    
C12   O2    A    
C1    C4    S    
C36   C38   A    
C22   H38   S    
C37   C39   A    
C16   C27   S    
C16   C19   A    
Cu2   O8    S    
C2    O7    A    
C2    C14   S    
C15   C40   S    
C33   H29   S    
C29   H16   S    
C3    C37   A    
C30   H19   S    
C31   C36   S    
C17   N1    A    
C30   H21   S    
C19   C30   S    
C25   H4    S    
