data_mof_unit_41973.cif
_audit_creation_date              2013-03-05T16:04:39-0500
_audit_creation_method            fapswitch 2.2
_symmetry_space_group_name_H-M    P1
_symmetry_Int_Tables_number       1
_space_group_crystal_system       triclinic
_cell_length_a                    9.660411
_cell_length_b                    10.926813
_cell_length_c                    15.611913
_cell_angle_alpha                 90.980657
_cell_angle_beta                  72.679231
_cell_angle_gamma                 90.033055
_cell_volume                      1572.97663005

loop_
_atom_site_label
_atom_site_type_symbol
_atom_site_description
_atom_site_fract_x
_atom_site_fract_y
_atom_site_fract_z
_atom_type_partial_charge
O1    O     O_R   0.118740 0.319660 0.500000 -0.553404
O2    O     O_R   0.881260 0.680340 0.500000 -0.540330
O3    O     O_R   0.881170 0.319630 0.500010 -0.548733
O4    O     O_R   0.118830 0.680370 0.499990 -0.555513
C1    C     C_R   0.003288 0.263006 0.492069 0.853408
C2    C     C_R   0.001359 0.737972 0.497125 0.852695
O5    O     O_R   0.055570 0.500030 0.629830 -0.555775
O6    O     O_R   0.944430 0.499970 0.370170 -0.602462
O7    O     O_R   0.818000 0.500000 0.629840 -0.598063
O8    O     O_R   0.182000 0.500000 0.370160 -0.585307
C3    C     C_R   0.916779 0.507575 0.671993 0.798138
C4    C     C_R   0.083538 0.495909 0.327725 0.767930
Cu1   Cu    Cu3+1 0.140660 0.500020 0.500000 0.950379
Cu2   Cu    Cu3+1 0.859340 0.499980 0.500000 0.947785
C5    C     C_R   0.870300 0.535921 0.769664 -0.082234
C6    C     C_R   0.133658 0.501262 0.228541 -0.133892
C7    C     C_R   0.918595 0.610122 0.905492 -0.284151
C8    C     C_R   0.088765 0.533706 0.086031 -0.187697
C9    C     C_R   0.969129 0.577408 0.814607 0.252615
C10   C     C_R   0.039684 0.489457 0.173968 0.252157
C11   C     C_R   0.722505 0.532712 0.817571 -0.300872
C12   C     C_R   0.281296 0.525644 0.187520 -0.277104
C13   C     C_R   0.673233 0.567481 0.909035 0.062110
C14   C     C_R   0.332603 0.555705 0.096812 0.054909
C15   C     C_R   0.773241 0.602181 0.954346 0.067269
C16   C     C_R   0.232139 0.571004 0.048835 0.073901
C17   C     C_R   0.525431 0.572402 0.956277 0.048944
C18   C     C_R   0.480860 0.573197 0.051388 0.040628
C19   C     C_R   0.582489 0.603405 0.096254 -0.283914
C20   C     C_R   0.422901 0.599861 0.912258 -0.295314
C21   C     C_R   0.724767 0.630667 0.047280 0.233101
C22   C     C_R   0.280332 0.621874 0.963028 0.210202
H1    H     H_    0.356038 0.518987 0.226648 0.164104
H2    H     H_    0.645894 0.501022 0.783754 0.159995
H3    H     H_    0.992521 0.644231 0.937981 0.218012
H4    H     H_    0.019085 0.530817 0.044074 0.168664
H5    H     H_    0.549743 0.621025 0.167839 0.139196
H6    H     H_    0.457736 0.629047 0.843169 0.142122
C23   C     C_R   0.878024 0.064865 0.483503 0.165037
C24   C     C_R   0.138436 0.937030 0.465970 0.158365
C25   C     C_R   0.874931 0.937500 0.492431 0.151784
C26   C     C_R   0.139169 0.064866 0.458342 0.157378
C27   C     C_R   0.004753 0.872761 0.487381 -0.207166
C28   C     C_R   0.007123 0.129109 0.478226 -0.204087
C29   C     C_R   0.538266 0.464948 0.573678 -0.019690
C30   C     C_R   0.461866 0.534007 0.426063 -0.043312
H7    H     H_    0.563462 0.435902 0.633176 0.120700
H8    H     H_    0.436760 0.563154 0.366583 0.127530
C31   C     C_R   0.390739 0.464839 0.573618 -0.056056
C32   C     C_R   0.609536 0.532500 0.425733 -0.060070
H9    H     H_    0.308230 0.435254 0.632900 0.150273
H10   H     H_    0.692231 0.560235 0.365891 0.142295
N1    N     N_R   0.352080 0.500030 0.499980 -0.160581
N2    N     N_R   0.647920 0.499970 0.500020 -0.146888
N3    N     N_2   0.815600 0.690487 0.091671 -0.433419
H11   H     H_    0.797329 0.663564 0.157130 0.267401
C33   C     C_3   0.813510 0.822346 0.085400 -0.705577
H12   H     H_    0.883920 0.863650 0.122659 0.218447
H13   H     H_    0.701533 0.858232 0.115573 0.221117
H14   H     H_    0.854165 0.849941 0.014127 0.246070
N4    N     N_2   0.208653 0.725051 0.941082 -0.449480
H15   H     H_    0.250782 0.751834 0.875555 0.254777
C34   C     C_3   0.192580 0.828824 0.002280 -0.679697
H16   H     H_    0.131170 0.902692 0.981505 0.216785
H17   H     H_    0.300937 0.864462 0.001099 0.224985
H18   H     H_    0.132337 0.802767 0.071784 0.247846
N5    N     N_2   0.900511 0.431562 0.205835 -0.436052
H19   H     H_    0.884385 0.384055 0.264084 0.266162
C35   C     C_3   0.851438 0.358345 0.142179 -0.745366
H20   H     H_    0.935426 0.289577 0.108022 0.230321
H21   H     H_    0.824450 0.416442 0.092029 0.245053
H22   H     H_    0.750688 0.309150 0.178131 0.225807
N6    N     N_2   0.118833 0.591680 0.768761 -0.418048
H23   H     H_    0.186198 0.567090 0.805904 0.242007
C36   C     C_3   0.154039 0.709848 0.727887 -0.697739
H24   H     H_    0.273056 0.715849 0.696566 0.214013
H25   H     H_    0.118507 0.784795 0.778711 0.212287
H26   H     H_    0.098815 0.722350 0.675715 0.251524
N7    N     N_2   0.753911 0.128118 0.474480 -0.390411
H27   H     H_    0.653864 0.094805 0.509302 0.237751
C37   C     C_3   0.765461 0.166552 0.384062 -0.637685
H28   H     H_    0.760045 0.087043 0.340263 0.199514
H29   H     H_    0.869859 0.213655 0.353681 0.220176
H30   H     H_    0.676092 0.231222 0.385828 0.219398
N8    N     N_2   0.272419 0.873971 0.453443 -0.389101
H31   H     H_    0.355490 0.896459 0.397224 0.241345
C38   C     C_3   0.317124 0.860728 0.533664 -0.653184
H32   H     H_    0.414170 0.916454 0.529854 0.198564
H33   H     H_    0.345736 0.763755 0.539709 0.251074
H34   H     H_    0.230529 0.890188 0.595058 0.215152
N9    N     N_2   0.740297 0.874840 0.508850 -0.393512
H35   H     H_    0.656813 0.908868 0.561656 0.227793
C39   C     C_3   0.698272 0.841280 0.430034 -0.640654
H36   H     H_    0.651120 0.920447 0.405398 0.198307
H37   H     H_    0.613085 0.770791 0.448332 0.226192
H38   H     H_    0.791961 0.803732 0.375838 0.231081
N10   N     N_2   0.271726 0.127676 0.419188 -0.406359
H39   H     H_    0.327674 0.098912 0.354937 0.230156
C40   C     C_3   0.362744 0.153348 0.475854 -0.613598
H40   H     H_    0.459405 0.093277 0.455333 0.191648
H41   H     H_    0.303915 0.140578 0.548060 0.224064
H42   H     H_    0.400683 0.249181 0.466112 0.244051

loop_
_geom_bond_atom_site_label_1
_geom_bond_atom_site_label_2
_geom_bond_distance
_ccdc_geom_bond_type
C15   C21   1.414702 A    
O5    Cu1   1.947283 S    
N3    H11   1.031933 S    
C34   H17   1.111751 S    
C16   C22   1.405024 A    
C39   H36   1.104474 S    
C25   C27   1.421164 A    
N6    H23   1.030630 S    
C10   N5    1.437639 S    
C8    C16   1.396502 A    
C36   H24   1.109775 S    
N10   H39   1.031339 S    
C23   C25   1.400437 A    
N8    H31   1.030768 S    
C5    C9    1.413083 A    
C32   N2    1.370850 A    
O1    C1    1.311972 A    
C18   C19   1.401648 A    
C14   C16   1.402925 A    
C22   N4    1.422430 S    
C33   H13   1.112015 S    
C20   H6    1.083462 S    
C35   H21   1.105751 S    
O4    Cu1   1.982031 S    
N4    C34   1.448268 S    
C37   H29   1.109020 S    
C3    C5    1.482889 S    
C24   C27   1.422195 A    
C4    C6    1.480605 S    
C31   H9    1.080314 S    
C32   H10   1.080674 S    
C13   C17   1.399007 A    
N4    H15   1.029565 S    
C6    C10   1.422430 A    
C24   C26   1.403764 A    
C34   H18   1.109741 S    
C39   H37   1.104046 S    
Cu1   Cu2   2.717668 S    
C17   C20   1.398590 A    
N6    C36   1.445171 S    
O2    C2    1.309116 A    
C26   C28   1.405039 A    
N10   C40   1.445272 S    
C37   H28   1.107243 S    
Cu1   N1    2.042310 S    
C29   H7    1.080548 S    
C30   H8    1.080215 S    
N8    C38   1.450616 S    
N5    H19   1.025877 S    
C9    N6    1.419617 S    
O4    C2    1.310713 A    
C26   N10   1.425393 S    
N9    H35   1.030670 S    
N7    C37   1.451866 S    
C33   H14   1.111056 S    
C11   H2    1.082813 S    
N7    H27   1.027455 S    
C6    C12   1.405994 A    
N5    C35   1.450955 S    
C23   N7    1.428269 S    
C24   N8    1.426187 S    
C35   H22   1.111634 S    
O5    C3    1.307869 A    
O7    Cu2   1.945863 S    
N9    C39   1.447471 S    
C36   H25   1.110846 S    
C40   H40   1.104902 S    
C29   C31   1.425453 A    
O6    C4    1.309888 A    
O7    C3    1.312441 A    
O3    Cu2   1.982031 S    
O8    C4    1.311413 A    
C25   N9    1.425685 S    
C1    C28   1.474153 S    
C29   N2    1.371204 A    
C39   H38   1.111727 S    
C2    C27   1.482577 S    
C11   C13   1.409547 A    
C12   C14   1.398833 A    
O1    Cu1   1.981982 S    
C37   H30   1.109646 S    
C12   H1    1.078893 S    
O6    Cu2   1.947283 S    
Cu2   N2    2.042311 S    
C14   C18   1.410769 A    
O3    C1    1.304235 A    
O8    Cu1   1.945865 S    
C23   C28   1.412351 A    
C30   C32   1.425129 A    
C7    C15   1.387583 A    
N3    C33   1.446341 S    
C19   C21   1.394297 A    
C20   C22   1.388098 A    
C33   H12   1.109480 S    
C31   N1    1.371108 A    
C30   N1    1.371053 A    
C7    C9    1.396338 A    
C8    C10   1.406495 A    
C13   C15   1.405305 A    
C35   H20   1.112049 S    
O2    Cu2   1.981982 S    
C36   H26   1.108735 S    
C34   H16   1.110268 S    
C5    C11   1.401462 A    
C40   H42   1.107156 S    
C38   H32   1.104806 S    
C38   H34   1.111047 S    
C19   H5    1.080895 S    
C17   C18   1.417447 A    
C38   H33   1.107868 S    
C7    H3    1.055984 S    
C21   N3    1.422474 S    
C8    H4    1.070037 S    
C40   H41   1.112223 S    
