data_mof_unit_38237.cif
_audit_creation_date              2012-12-10T20:38:22-0500
_audit_creation_method            fapswitch 2.2
_symmetry_space_group_name_H-M    P1
_symmetry_Int_Tables_number       1
_space_group_crystal_system       triclinic
_cell_length_a                    9.852427
_cell_length_b                    10.769722
_cell_length_c                    17.065115
_cell_angle_alpha                 92.236117
_cell_angle_beta                  86.681409
_cell_angle_gamma                 89.843603
_cell_volume                      1806.30793476

loop_
_atom_site_label
_atom_site_type_symbol
_atom_type_description
_atom_site_fract_x
_atom_site_fract_y
_atom_site_fract_z
_atom_type_partial_charge
C1    C     C_R   0.500769 0.739587 0.495378 0.853239
C2    C     C_R   0.342500 0.428595 0.772689 -0.023893
C3    C     C_R   0.383396 0.420806 0.153516 -0.005488
C4    C     C_R   0.392299 0.487815 0.224372 -0.096134
C5    C     C_R   0.638685 0.460221 0.215882 0.464233
C6    C     C_R   0.630303 0.407200 0.140626 -0.288388
C7    C     C_R   0.503876 0.387208 0.109274 0.063948
C8    C     C_2   0.423788 0.423993 0.981730 -0.202931
C9    C     C_2   0.502680 0.356743 0.025179 -0.194994
C10   C     C_R   0.517863 0.491840 0.260853 -0.245560
C11   C     C_R   0.380244 0.936393 0.508662 0.052823
C12   C     C_R   0.482469 0.489897 0.652297 0.849265
C13   C     C_R   0.502887 0.872196 0.493458 -0.149987
C14   C     C_R   0.626746 0.938102 0.486399 0.008065
C15   C     C_R   0.625169 0.065120 0.500168 -0.284857
C16   C     C_R   0.501113 0.128886 0.508682 -0.101947
C17   C     C_R   0.379591 0.063828 0.516412 0.109701
C18   C     C_3   0.255499 0.076834 0.471193 -0.511621
C19   C     C_3   0.256631 0.936831 0.460680 -0.203916
C20   C     C_R   0.922710 0.547094 0.563370 0.105898
C21   C     C_R   0.933000 0.436036 0.442455 0.441618
C22   C     C_R   0.078206 0.435607 0.443054 -0.123330
C23   C     C_R   0.500046 0.260286 0.502297 0.877510
C24   C     C_R   0.064607 0.545568 0.563835 0.194986
C25   C     C_3   0.069517 0.671722 0.601905 0.299681
C26   C     C_3   0.915053 0.675833 0.599304 -0.555626
C27   C     C_R   0.516452 0.503977 0.347065 0.889684
C28   C     C_R   0.471078 0.460497 0.736321 -0.159140
C29   C     C_R   0.587182 0.458377 0.781994 -0.027424
C30   C     C_R   0.571231 0.441158 0.862075 -0.197007
C31   C     C_R   0.442469 0.423334 0.897410 0.149331
C32   C     C_R   0.329023 0.415670 0.853243 -0.214230
H1    H     H_    0.723223 0.384771 0.105729 0.159579
H2    H     H_    0.720737 0.114473 0.496892 0.156108
H3    H     H_    0.167335 0.113442 0.508834 0.190012
H4    H     H_    0.276463 0.126183 0.416047 0.222324
H5    H     H_    0.165415 0.893914 0.488901 0.146619
H6    H     H_    0.126727 0.737303 0.564167 0.077680
H7    H     H_    0.860669 0.680746 0.658159 0.229101
H8    H     H_    0.879588 0.744882 0.558854 0.190181
H9    H     H_    0.580945 0.295741 0.997325 0.155820
H10   H     H_    0.230171 0.397014 0.881741 0.145702
H11   H     H_    0.350828 0.491281 0.008068 0.161366
H12   H     H_    0.659221 0.444834 0.897554 0.138384
N1    N     N_R   0.857140 0.500860 0.500530 -0.148919
N2    N     N_R   0.142780 0.500820 0.500530 -0.183318
O1    O     O_R   0.385310 0.683210 0.499990 -0.632792
O2    O     O_R   0.614650 0.683240 0.500000 -0.610811
O3    O     O_R   0.371780 0.500000 0.615800 -0.593258
O4    O     O_R   0.601120 0.500040 0.615800 -0.606595
O5    O     O_R   0.385350 0.316760 0.500000 -0.618012
O6    O     O_R   0.614690 0.316790 0.500010 -0.634985
O7    O     O_R   0.398880 0.499960 0.384200 -0.613758
O8    O     O_R   0.628220 0.500000 0.384200 -0.540150
Zn1   Zn    Zn3+2 0.346870 0.499980 0.499990 0.973767
Zn2   Zn    Zn3+2 0.653130 0.500020 0.500010 0.994762
C33   C     C_1   0.725362 0.465402 0.750035 0.185947
N3    N     N_1   0.837418 0.468674 0.726182 -0.178761
C34   C     C_1   0.752643 0.883057 0.453447 0.157352
N4    N     N_1   0.853025 0.840075 0.425874 -0.249026
C35   C     C_1   0.284879 0.894444 0.378133 0.238233
N5    N     N_1   0.307661 0.862132 0.313245 -0.215231
O9    O     O_3   0.869365 0.388454 0.377664 -0.576906
C36   C     C_3   0.870442 0.256956 0.374163 0.117430
H13   H     H_    0.766622 0.224847 0.390490 0.167323
H14   H     H_    0.941637 0.214179 0.414138 0.086568
C37   C     C_3   0.903621 0.210231 0.289296 -0.297551
H15   H     H_    0.818075 0.233373 0.252693 0.245024
H16   H     H_    0.995827 0.256896 0.264622 0.250310
C38   C     C_3   0.926449 0.069981 0.283920 -0.969046
H17   H     H_    0.011753 0.043777 0.319898 0.281925
H18   H     H_    0.952387 0.040172 0.221855 0.276604
H19   H     H_    0.832649 0.021239 0.304580 0.271439
C39   C     C_1   0.157257 0.365278 0.383254 0.292469
N6    N     N_1   0.219773 0.307731 0.335062 -0.240490
O10   O     O_3   0.111663 0.665065 0.679411 -0.603283
C40   C     C_3   0.142346 0.784981 0.710079 0.093593
H20   H     H_    0.107358 0.790110 0.773191 0.161635
H21   H     H_    0.088371 0.861300 0.681828 0.120109
C41   C     C_3   0.296248 0.805023 0.703764 -0.338456
H22   H     H_    0.346386 0.737639 0.740631 0.224606
H23   H     H_    0.335137 0.787917 0.642084 0.230405
C42   C     C_3   0.333294 0.936961 0.730194 -0.960746
H24   H     H_    0.286577 0.005543 0.692748 0.266879
H25   H     H_    0.445434 0.948069 0.724748 0.269296
H26   H     H_    0.297545 0.955792 0.792464 0.267910
C43   C     C_1   0.273350 0.556184 0.256898 0.251341
N7    N     N_1   0.178247 0.610421 0.282470 -0.210886
O11   O     O_3   0.765675 0.475360 0.245260 -0.608195
C44   C     C_3   0.801804 0.602596 0.246749 0.179831
H27   H     H_    0.867747 0.619343 0.296721 0.201103
H28   H     H_    0.713198 0.667154 0.257468 0.099631
C45   C     C_3   0.882606 0.633378 0.170689 -0.394047
H29   H     H_    0.973148 0.571474 0.162441 0.249453
H30   H     H_    0.818336 0.617365 0.119905 0.216205
C46   C     C_3   0.928943 0.768429 0.172717 -0.933005
H31   H     H_    0.839381 0.831698 0.178231 0.264580
H32   H     H_    0.989030 0.787473 0.117469 0.268309
H33   H     H_    0.993608 0.787246 0.223003 0.287298
C47   C     C_1   0.250789 0.383406 0.127996 0.165623
N8    N     N_1   0.145144 0.353492 0.107871 -0.226931
C48   C     C_1   0.224590 0.396664 0.729670 0.270919
N9    N     N_1   0.130312 0.369132 0.695652 -0.189102

loop_
_geom_bond_atom_site_label_1
_geom_bond_atom_site_label_2
_ccdc_geom_bond_type
C10   C27   S    
C8    C9    D    
C43   N7    T    
C45   H29   S    
C8    H11   S    
C12   O3    A    
C33   N3    T    
C27   O8    A    
C4    C43   S    
C40   H20   S    
C14   C34   S    
C11   C19   S    
C12   C28   S    
C28   C29   A    
C3    C7    A    
C30   C31   A    
C26   H7    S    
C2    C48   S    
C15   C16   A    
C46   H33   S    
C2    C32   A    
C18   C19   S    
C19   H5    S    
C23   O5    A    
C3    C47   S    
C20   C24   A    
N1    Zn2   S    
C16   C17   A    
C46   H32   S    
N2    Zn1   S    
C38   H17   S    
C18   H3    S    
C15   H2    S    
C20   N1    A    
O7    Zn1   S    
C34   N4    T    
C45   H30   S    
C21   C22   A    
C30   H12   S    
C48   N9    T    
C41   C42   S    
C21   N1    A    
C40   H21   S    
O8    Zn2   S    
C38   H18   S    
C39   N6    T    
C37   H15   S    
C36   C37   S    
O10   C40   S    
C41   H23   S    
C1    O1    A    
C25   C26   S    
O3    Zn1   S    
O4    Zn2   S    
C37   H16   S    
C36   H14   S    
C23   O6    A    
C29   C30   A    
C25   H6    S    
C44   H28   S    
C42   H24   S    
C46   H31   S    
C38   H19   S    
C17   C18   S    
C24   C25   S    
C42   H25   S    
C29   C33   S    
C16   C23   S    
C1    C13   S    
C22   C39   S    
C4    C10   A    
C3    C4    A    
C44   C45   S    
O1    Zn1   S    
C40   C41   S    
O2    Zn2   S    
C11   C17   A    
C22   N2    A    
C8    C31   S    
C31   C32   A    
C41   H22   S    
C12   O4    A    
C27   O7    A    
C1    O2    A    
C6    C7    A    
C45   C46   S    
C9    H9    S    
C6    H1    S    
C37   C38   S    
C24   N2    A    
C36   H13   S    
C25   O10   S    
C5    C10   A    
C11   C13   A    
C26   H8    S    
C44   H27   S    
C5    C6    A    
C20   C26   S    
C19   C35   S    
C47   N8    T    
O5    Zn1   S    
C35   N5    T    
C21   O9    S    
O9    C36   S    
C7    C9    S    
C42   H26   S    
C32   H10   S    
C14   C15   A    
C2    C28   A    
O11   C44   S    
C13   C14   A    
C18   H4    S    
C5    O11   S    
O6    Zn2   S    
