data_mof_unit_34950.cif
_audit_creation_date              2013-03-05T16:37:23-0500
_audit_creation_method            fapswitch 2.2
_symmetry_space_group_name_H-M    P1
_symmetry_Int_Tables_number       1
_space_group_crystal_system       triclinic
_cell_length_a                    18.616992
_cell_length_b                    18.893691
_cell_length_c                    18.995529
_cell_angle_alpha                 110.192297
_cell_angle_beta                  109.326337
_cell_angle_gamma                 109.417262
_cell_volume                      5109.78223557

loop_
_atom_site_label
_atom_site_type_symbol
_atom_site_description
_atom_site_fract_x
_atom_site_fract_y
_atom_site_fract_z
_atom_type_partial_charge
O1    O     O_R   0.408620 0.551720 0.460350 -0.621748
O2    O     O_R   0.409320 0.448300 0.357580 -0.591039
C1    C     C_R   0.382447 0.502023 0.380666 0.929736
O3    O     O_R   0.591270 0.643330 0.551380 -0.606934
O4    O     O_R   0.591970 0.539910 0.448620 -0.552836
C2    C     C_R   0.621792 0.620785 0.502092 0.937244
Zn1   Zn    Zn3+2 0.499530 0.569060 0.568620 1.073013
Zn2   Zn    Zn3+2 0.500470 0.430940 0.431380 1.126202
O5    O     O_R   0.590680 0.551700 0.642420 -0.601195
O6    O     O_R   0.591380 0.448280 0.539650 -0.611908
O7    O     O_R   0.408030 0.460090 0.551380 -0.636682
O8    O     O_R   0.408730 0.356670 0.448620 -0.615906
C3    C     C_R   0.618554 0.499479 0.619713 0.823241
C4    C     C_R   0.376310 0.380188 0.497096 0.860790
C5    C     C_R   0.741536 0.826362 0.784273 -0.247584
H1    H     H_    0.700182 0.842750 0.807499 0.235032
C6    C     C_R   0.723726 0.808117 0.700201 0.324221
C7    C     C_R   0.775705 0.783672 0.668260 -0.039208
C8    C     C_R   0.850909 0.789384 0.725856 -0.172130
C9    C     C_R   0.870756 0.812459 0.810975 -0.113903
H2    H     H_    0.928860 0.815608 0.853263 0.182938
C10   C     C_R   0.814637 0.828301 0.840084 0.358612
C11   C     C_R   0.823565 0.820446 0.574078 -0.119924
C12   C     C_R   0.810574 0.811215 0.494324 -0.111013
C13   C     C_R   0.731350 0.743918 0.416093 -0.091684
C14   C     C_R   0.669044 0.680649 0.419488 0.295182
C15   C     C_R   0.684596 0.689027 0.500706 -0.155515
C16   C     C_R   0.759785 0.762697 0.579229 0.054560
C17   C     C_R   0.635613 0.742268 0.285381 -0.022132
H3    H     H_    0.592059 0.746599 0.310725 0.175600
C18   C     C_R   0.615833 0.738169 0.205864 -0.107460
H4    H     H_    0.557582 0.739349 0.170551 0.170733
C19   C     C_R   0.671171 0.732573 0.171949 -0.084768
C20   C     C_R   0.746494 0.731346 0.217658 -0.097005
H5    H     H_    0.789856 0.727795 0.191840 0.150876
C21   C     C_R   0.766300 0.735390 0.297109 -0.083433
C22   C     C_R   0.711030 0.740525 0.331699 0.158033
C23   C     C_R   0.413234 0.777716 0.539815 0.252610
C24   C     C_R   0.367817 0.690738 0.472336 -0.174660
H6    H     H_    0.317888 0.640796 0.472518 0.196236
C25   C     C_R   0.382193 0.668234 0.402108 0.020845
C26   C     C_R   0.442625 0.733610 0.399175 -0.229804
C27   C     C_R   0.488228 0.821187 0.465338 0.285577
C28   C     C_R   0.474088 0.844089 0.536730 0.205631
C29   C     C_R   0.256692 0.576385 0.255175 -0.154694
C30   C     C_R   0.189696 0.495965 0.181974 -0.063096
C31   C     C_R   0.185530 0.417203 0.173044 0.066944
C32   C     C_R   0.253176 0.422636 0.238273 -0.128004
C33   C     C_R   0.317884 0.502972 0.314152 -0.067709
C34   C     C_R   0.319674 0.580970 0.323253 0.067044
C35   C     C_R   0.062308 0.263787 0.110351 0.245998
C36   C     C_R   0.991662 0.181527 0.037724 0.270322
C37   C     C_R   0.974833 0.163999 0.954217 -0.205019
C38   C     C_R   0.025386 0.227033 0.942518 -0.115532
C39   C     C_R   0.092509 0.309352 0.013503 -0.123681
C40   C     C_R   0.111602 0.329248 0.098014 -0.061197
H7    H     H_    0.210058 0.612421 0.590870 0.246795
C41   C     C_R   0.287492 0.556620 0.628581 -0.121647
C42   C     C_R   0.295759 0.482701 0.606625 -0.179068
C43   C     C_R   0.232033 0.404354 0.527361 -0.063863
C44   C     C_R   0.153682 0.399174 0.473196 0.220550
C45   C     C_R   0.146882 0.475789 0.495173 0.228383
C46   C     C_R   0.214375 0.553643 0.572901 -0.160634
C47   C     C_R   0.180718 0.258592 0.510718 -0.164914
C48   C     C_R   0.188889 0.186081 0.502813 -0.074135
C49   C     C_R   0.260380 0.179603 0.497988 0.039369
C50   C     C_R   0.318360 0.243052 0.492572 -0.210433
C51   C     C_R   0.309776 0.315372 0.498740 -0.068380
C52   C     C_R   0.241632 0.325529 0.511090 0.075136
C53   C     C_R   0.319174 0.124004 0.590288 -0.155368
C54   C     C_R   0.349127 0.068624 0.604472 0.344509
C55   C     C_R   0.342243 0.002630 0.534485 -0.108025
C56   C     C_R   0.306631 0.992325 0.451377 0.329448
C57   C     C_R   0.276812 0.048656 0.438607 -0.262394
C58   C     C_R   0.282247 0.113889 0.507746 -0.000314
C59   C     C_2   0.731445 0.438357 0.773257 -0.111988
C60   C     C_2   0.817783 0.483196 0.802990 -0.286807
C61   C     C_2   0.668282 0.434308 0.698998 -0.288167
C62   C     C_2   0.685559 0.503659 0.688496 0.232901
O9    O     O_R   0.051990 0.908360 0.460320 -0.596898
O10   O     O_R   0.949210 0.908400 0.357560 -0.628150
C63   C     C_R   0.997504 0.876475 0.380917 0.847435
O11   O     O_R   0.959770 0.908340 0.551360 -0.626412
O12   O     O_R   0.856990 0.908380 0.448600 -0.588609
C64   C     C_R   0.878974 0.877755 0.496958 0.895236
Zn3   Zn    Zn3+2 0.068630 0.999950 0.568590 1.100673
Zn4   Zn    Zn3+2 0.931370 0.000000 0.431370 1.103010
O13   O     O_R   0.050790 0.091560 0.642400 -0.604585
O14   O     O_R   0.948010 0.091600 0.539640 -0.584879
O15   O     O_R   0.143010 0.091580 0.551350 -0.630529
O16   O     O_R   0.040230 0.091620 0.448600 -0.588663
C65   C     C_R   0.999622 0.120067 0.619341 0.937415
C66   C     C_R   0.121015 0.118588 0.499419 0.858402
O17   O     O_R   0.055540 0.460120 0.912140 -0.564776
O18   O     O_R   0.952100 0.356700 0.912170 -0.639944
C67   C     C_R   0.002099 0.379933 0.881670 0.875946
O19   O     O_R   0.145980 0.551740 0.094190 -0.609713
O20   O     O_R   0.042530 0.448320 0.094220 -0.569201
C68   C     C_R   0.122839 0.497301 0.119077 0.893299
Zn5   Zn    Zn3+2 0.072290 0.569090 0.003150 1.088869
Zn6   Zn    Zn3+2 0.934150 0.430980 0.003190 1.112177
O21   O     O_R   0.054350 0.643370 0.094170 -0.608198
O22   O     O_R   0.950900 0.539950 0.094200 -0.572784
O23   O     O_R   0.963910 0.551750 0.912120 -0.626168
O24   O     O_R   0.860470 0.448330 0.912150 -0.620188
C69   C     C_R   0.002543 0.620410 0.122420 0.900452
C70   C     C_R   0.883172 0.495836 0.880226 0.866703
C71   C     C_R   0.058482 0.742007 0.538341 0.111407
C72   C     C_R   0.067880 0.761920 0.475457 0.280041
C73   C     C_R   0.993087 0.721813 0.393173 -0.098125
C74   C     C_R   0.911815 0.659043 0.373260 -0.303264
C75   C     C_R   0.902061 0.636826 0.433892 0.249031
C76   C     C_R   0.975418 0.679829 0.517816 0.151712
C77   C     C_R   0.002585 0.676278 0.258990 0.305086
C78   C     C_R   0.003489 0.687021 0.189438 -0.196308
C79   C     C_R   0.005532 0.760887 0.185223 -0.020671
C80   C     C_R   0.001467 0.820573 0.248690 -0.227015
C81   C     C_R   0.997682 0.809120 0.316203 -0.122363
C82   C     C_R   0.998962 0.737252 0.322896 -0.001573
C83   C     C_R   0.090148 0.860491 0.147444 -0.066547
C84   C     C_R   0.107708 0.877628 0.087257 -0.055760
H8    H     H_    0.164210 0.938331 0.109349 0.167126
C85   C     C_R   0.053185 0.815889 0.998737 -0.104988
C86   C     C_R   0.979457 0.738204 0.970198 -0.024365
C87   C     C_R   0.960702 0.721368 0.030123 -0.052098
C88   C     C_R   0.017921 0.781106 0.119605 0.109695
C89   C     C_R   0.300050 0.270551 0.795415 -0.151205
C90   C     C_R   0.218795 0.248256 0.792846 0.386338
C91   C     C_R   0.165444 0.278282 0.754049 0.037700
C92   C     C_R   0.195117 0.329176 0.719747 -0.166715
H9    H     H_    0.155573 0.352964 0.690511 0.168546
C93   C     C_R   0.276402 0.351176 0.724233 -0.123759
C94   C     C_R   0.328651 0.321823 0.761712 -0.170408
C95   C     C_R   0.080560 0.327572 0.814823 0.293415
C96   C     C_R   0.000286 0.314369 0.812317 -0.276638
C97   C     C_R   0.919373 0.237603 0.744815 -0.131028
C98   C     C_R   0.919740 0.172428 0.681912 0.258443
C99   C     C_R   0.000113 0.185772 0.685816 -0.224701
C100  C     C_R   0.080691 0.262309 0.752123 -0.074411
C101  C     C_R   0.802476 0.191743 0.783531 -0.162169
H10   H     H_    0.839285 0.170854 0.820508 0.177670
C102  C     C_R   0.726080 0.188098 0.784403 0.247900
C103  C     C_R   0.678474 0.215239 0.734838 0.298403
C104  C     C_R   0.707417 0.242662 0.684415 -0.217948
H11   H     H_    0.671469 0.262595 0.645392 0.198509
C105  C     C_R   0.785632 0.250017 0.687859 -0.137875
H12   H     H_    0.808825 0.275304 0.651667 0.183170
C106  C     C_R   0.834125 0.225704 0.738283 0.122705
N1    N     N_R   0.832450 0.847896 0.926314 0.265224
O25   O     O_R   0.772860 0.846919 0.947975 -0.305126
O26   O     O_R   0.909019 0.868858 0.984575 -0.362543
H13   H     H_    0.655877 0.729540 0.110461 0.169357
H14   H     H_    0.825636 0.736632 0.332727 0.091698
N2    N     N_R   0.526603 0.932230 0.609068 0.250492
O27   O     O_R   0.566468 0.947421 0.687664 -0.226633
O28   O     O_R   0.534721 0.997650 0.597271 -0.325575
N3    N     N_R   0.394884 0.797852 0.609654 0.268162
O29   O     O_R   0.385898 0.865499 0.639586 -0.221368
O30   O     O_R   0.376675 0.743093 0.636519 -0.365876
H15   H     H_    0.451586 0.716890 0.343310 0.199142
N4    N     N_R   0.549807 0.885725 0.459771 0.261386
O31   O     O_R   0.532650 0.942856 0.446651 -0.262175
O32   O     O_R   0.611343 0.875254 0.447971 -0.323290
H16   H     H_    0.256950 0.635838 0.261345 0.191668
H17   H     H_    0.253282 0.363275 0.231461 0.180214
N5    N     N_R   0.087430 0.278321 0.195953 0.231378
O33   O     O_R   0.114788 0.230376 0.218430 -0.325840
O34   O     O_R   0.094390 0.345832 0.254259 -0.304666
N6    N     N_R   0.935668 0.116288 0.047640 0.251897
O35   O     O_R   0.924932 0.138511 0.114689 -0.223138
O36   O     O_R   0.886511 0.035334 0.984496 -0.336528
H18   H     H_    0.921757 0.101471 0.897569 0.201605
H19   H     H_    0.011615 0.211536 0.877677 0.191744
H20   H     H_    0.130474 0.357569 0.002842 0.179225
H21   H     H_    0.338005 0.616553 0.689430 0.210954
H22   H     H_    0.352221 0.486611 0.652725 0.170789
N7    N     N_R   0.078394 0.316079 0.402070 0.245944
O37   O     O_R   0.088128 0.256467 0.353207 -0.269387
O38   O     O_R   0.000597 0.295589 0.393026 -0.290120
N8    N     N_R   0.072297 0.475797 0.439465 0.252827
O39   O     O_R   0.049901 0.532040 0.471834 -0.319599
O40   O     O_R   0.033270 0.427496 0.355512 -0.211181
N9    N     N_R   0.654189 0.816844 0.649567 0.223324
O41   O     O_R   0.662972 0.849611 0.600933 -0.343538
O42   O     O_R   0.584264 0.797849 0.657061 -0.372194
H23   H     H_    0.127545 0.264060 0.519209 0.158504
H24   H     H_    0.373595 0.238481 0.488450 0.176293
H25   H     H_    0.326109 0.176545 0.643926 0.174386
N10   N     N_R   0.388234 0.080822 0.690037 0.273177
O43   O     O_R   0.390532 0.139014 0.753799 -0.338895
O44   O     O_R   0.424267 0.035693 0.705731 -0.200755
H26   H     H_    0.365194 0.959553 0.544839 0.233583
N11   N     N_R   0.302739 0.926284 0.381009 0.245695
O45   O     O_R   0.320819 0.867950 0.389920 -0.346782
O46   O     O_R   0.284562 0.925941 0.308570 -0.391654
H27   H     H_    0.250362 0.042690 0.375461 0.184333
H28   H     H_    0.706569 0.404562 0.803304 0.212601
H29   H     H_    0.842106 0.511305 0.768922 0.206509
H30   H     H_    0.604394 0.374811 0.654640 0.162573
H31   H     H_    0.894883 0.776373 0.704993 0.230086
N12   N     N_R   0.760277 0.588427 0.754258 0.181746
O47   O     O_R   0.816713 0.627666 0.735630 -0.419152
O48   O     O_R   0.766209 0.629946 0.828522 -0.394555
N13   N     N_R   0.966231 0.659252 0.581557 0.268389
O49   O     O_R   0.021138 0.641438 0.624648 -0.265379
O50   O     O_R   0.901456 0.655959 0.595148 -0.360829
N14   N     N_R   0.133686 0.783781 0.622709 0.273955
O51   O     O_R   0.131583 0.825009 0.692140 -0.296659
O52   O     O_R   0.203828 0.779142 0.630410 -0.247029
N15   N     N_R   0.152814 0.823536 0.495887 0.237219
O53   O     O_R   0.202499 0.897359 0.569328 -0.339500
O54   O     O_R   0.181479 0.805642 0.441947 -0.353097
H32   H     H_    0.856148 0.624113 0.308084 0.224200
N16   N     N_R   0.818813 0.566660 0.407395 0.250686
O55   O     O_R   0.816180 0.510697 0.433006 -0.250386
O56   O     O_R   0.746147 0.550161 0.346884 -0.335806
N17   N     N_R   0.012536 0.607186 0.268314 0.230315
O57   O     O_R   0.085337 0.606179 0.281927 -0.348260
O58   O     O_R   0.946547 0.541636 0.255809 -0.299984
H33   H     H_    0.003130 0.877728 0.246479 0.181822
H34   H     H_    0.133822 0.908426 0.215917 0.161891
H35   H     H_    0.067680 0.828549 0.952233 0.158862
H36   H     H_    0.937458 0.690751 0.901624 0.197051
H37   H     H_    0.903394 0.660788 0.007034 0.124118
H38   H     H_    0.391681 0.339047 0.764905 0.178845
H39   H     H_    0.342488 0.249563 0.825222 0.229247
N18   N     N_R   0.192495 0.195491 0.829163 0.225990
O59   O     O_R   0.134054 0.194125 0.852444 -0.389182
O60   O     O_R   0.229891 0.150552 0.842491 -0.320955
H40   H     H_    0.299165 0.391335 0.698858 0.148012
N19   N     N_R   0.162452 0.407139 0.880907 0.209689
O61   O     O_R   0.184103 0.474123 0.870387 -0.345992
O62   O     O_R   0.223029 0.405850 0.938596 -0.375198
N20   N     N_R   0.839383 0.090906 0.616584 0.230187
O63   O     O_R   0.832716 0.018172 0.611015 -0.361075
O64   O     O_R   0.773517 0.088929 0.561549 -0.294299
H41   H     H_    0.882572 0.876047 0.633616 0.179139
N21   N     N_R   0.698453 0.156780 0.835370 0.245049
O65   O     O_R   0.755516 0.161075 0.901273 -0.338941
O66   O     O_R   0.615487 0.116095 0.811667 -0.180595
N22   N     N_R   0.604526 0.220535 0.738683 0.227899
O67   O     O_R   0.541518 0.208433 0.671276 -0.412582
O68   O     O_R   0.609021 0.255435 0.813366 -0.314225
N23   N     N_R   0.588524 0.609641 0.340986 0.206420
O69   O     O_R   0.590565 0.561056 0.274529 -0.292858
O70   O     O_R   0.512891 0.597977 0.333438 -0.439754

loop_
_geom_bond_atom_site_label_1
_geom_bond_atom_site_label_2
_geom_bond_distance
_ccdc_geom_bond_type
C30   C68   1.426430 S    
C3    C62   1.433162 S    
C25   C26   1.399850 A    
C44   N7    1.440107 S    
C83   H34   1.081797 S    
C56   N11   1.439867 S    
C36   N6    1.441318 S    
N12   O48   1.301117 A    
N6    O35   1.301348 A    
N19   O61   1.301075 A    
C83   C84   1.396916 A    
O18   C67   1.286710 A    
O12   Zn4   2.029396 S    
C27   C28   1.415131 A    
C65   C99   1.427701 S    
C90   C91   1.424879 A    
C101  C106  1.400774 A    
C91   C92   1.404254 A    
C77   C78   1.408730 A    
C1    C33   1.437425 S    
C85   C86   1.396741 A    
C24   C25   1.397305 A    
Zn2   O6    2.015895 S    
C29   C30   1.389700 A    
N23   O69   1.301036 A    
C48   C49   1.405757 A    
Zn1   O7    2.020219 S    
O24   C70   1.282638 A    
C14   C15   1.412202 A    
N4    O32   1.300725 A    
O4    C2    1.290754 A    
C43   C52   1.497070 S    
C38   H19   1.077336 S    
C21   C22   1.403483 A    
C29   H16   1.086593 S    
C94   H38   1.082518 S    
C20   H5    1.082598 S    
Zn4   O16   2.012009 S    
C59   H28   1.085296 S    
N9    O42   1.300409 A    
C45   N8    1.440682 S    
C23   C24   1.401113 A    
C11   H41   1.086095 S    
O7    C4    1.273028 A    
N16   O56   1.300584 A    
C39   C40   1.400573 A    
C103  C104  1.405250 A    
O20   C68   1.275096 A    
Zn5   O23   2.007130 S    
C7    C8    1.404618 A    
C79   C80   1.381825 A    
C80   H33   1.085717 S    
C102  N21   1.440365 S    
N22   O67   1.301221 A    
C56   C57   1.407735 A    
C76   N13   1.436754 S    
N10   O44   1.299730 A    
N18   O59   1.299108 A    
O5    C3    1.274188 A    
C73   C74   1.399032 A    
O9    Zn3   2.021199 S    
C37   H18   1.082785 S    
C13   C22   1.492873 S    
C81   C82   1.413939 A    
O12   C64   1.273440 A    
C5    C10   1.400881 A    
C32   H17   1.084471 S    
C8    C9    1.397037 A    
C26   C27   1.400825 A    
N8    O40   1.300547 A    
C93   C94   1.390495 A    
N7    O38   1.301431 A    
C89   H39   1.081325 S    
C11   C12   1.389628 A    
C103  N22   1.436567 S    
O21   C69   1.277289 A    
C53   C54   1.400534 A    
C75   N16   1.438659 S    
C12   C64   1.433372 S    
N2    O28   1.300095 A    
C77   C82   1.394910 A    
C53   H25   1.081517 S    
C14   N23   1.439730 S    
C48   C66   1.430002 S    
C49   C50   1.382422 A    
C10   N1    1.438837 S    
C42   C43   1.406095 A    
Zn6   O22   2.020874 S    
C79   C88   1.487677 S    
N5    O34   1.300118 A    
N6    O36   1.300738 A    
C44   C45   1.423135 A    
N20   O64   1.300777 A    
C71   N14   1.434725 S    
Zn5   O21   2.022191 S    
C75   C76   1.411973 A    
O19   C68   1.281740 A    
C50   H24   1.085665 S    
C21   H14   1.075032 S    
H7    C46   1.082614 S    
C67   C96   1.444769 S    
C105  C106  1.396646 A    
N14   O51   1.301149 A    
Zn6   O24   2.024815 S    
C85   H35   1.082166 S    
N21   O66   1.300267 A    
C57   C58   1.402073 A    
C35   C36   1.417136 A    
C31   C32   1.387531 A    
O13   C65   1.271697 A    
C96   C97   1.414883 A    
C7    C16   1.494146 S    
C59   C60   1.335559 D    
C104  C105  1.392862 A    
C42   H22   1.082439 S    
Zn3   O15   2.029655 S    
C95   C100  1.388885 A    
C60   H29   1.084972 S    
C61   C62   1.342693 D    
C51   C52   1.424462 A    
C62   N12   1.431043 S    
C41   C42   1.389754 A    
C11   C16   1.378101 A    
O6    C3    1.286233 A    
C5    H1    1.082704 S    
O10   C63   1.284665 A    
C50   C51   1.397619 A    
N3    O29   1.299316 A    
C93   H40   1.077732 S    
C43   C44   1.427602 A    
O1    C1    1.279313 A    
C71   C76   1.414313 A    
C54   N10   1.439294 S    
C92   C93   1.393574 A    
N9    O41   1.300359 A    
C39   H20   1.079098 S    
C23   C28   1.417589 A    
C17   H3    1.082231 S    
O16   C66   1.281950 A    
O17   Zn5   2.020876 S    
C6    N9    1.433689 S    
C2    C15   1.439316 S    
C91   C100  1.489839 S    
C86   H36   1.079562 S    
C60   C70   1.440197 S    
Zn2   O8    2.021704 S    
C9    H2    1.080753 S    
C45   C46   1.402265 A    
N11   O46   1.300838 A    
C6    C7    1.417802 A    
C8    H31   1.081221 S    
N19   O62   1.300763 A    
C30   C31   1.410508 A    
C95   N19   1.437600 S    
C12   C13   1.413634 A    
O14   C65   1.279059 A    
O17   C67   1.277291 A    
C31   C40   1.494322 S    
N2    O27   1.300509 A    
C84   H8    1.082313 S    
C97   C106  1.482517 S    
C83   C88   1.406478 A    
N7    O37   1.299315 A    
C27   N4    1.432515 S    
O9    C63   1.273011 A    
C32   C33   1.399015 A    
N18   O60   1.301710 A    
C9    C10   1.401028 A    
C33   C34   1.410792 A    
N15   O54   1.300636 A    
Zn4   O14   2.021282 S    
C87   C88   1.405548 A    
O3    C2    1.272267 A    
C61   H30   1.087244 S    
C63   C81   1.433923 S    
C77   N17   1.438219 S    
C17   C22   1.406985 A    
C72   N15   1.436719 S    
C25   C34   1.477140 S    
C24   H6    1.084250 S    
O19   Zn5   2.024898 S    
N8    O39   1.301659 A    
O15   C66   1.272881 A    
C105  H12   1.083242 S    
C89   C94   1.393773 A    
C87   H37   1.082825 S    
C41   C46   1.389190 A    
C5    C6    1.404509 A    
N23   O70   1.299999 A    
C38   C39   1.394071 A    
C18   C19   1.397232 A    
C74   C75   1.398992 A    
O11   C64   1.282708 A    
N16   O55   1.301339 A    
C18   H4    1.082321 S    
C26   H15   1.083754 S    
C35   C40   1.419341 A    
C23   N3    1.435034 S    
C59   C61   1.464978 S    
C55   C56   1.406736 A    
C35   N5    1.428716 S    
C19   H13   1.082306 S    
C74   H32   1.083656 S    
C73   C82   1.491083 S    
O4    Zn2   2.020215 S    
C41   H21   1.082387 S    
C37   C38   1.389017 A    
C95   C96   1.412365 A    
C101  C102  1.406803 A    
N17   O58   1.300633 A    
O20   Zn6   2.007131 S    
C47   C52   1.385807 A    
C98   C99   1.403849 A    
C80   C81   1.391999 A    
N12   O47   1.299243 A    
C69   C78   1.438479 S    
C104  H11   1.082196 S    
C28   N2    1.437300 S    
C47   C48   1.390773 A    
N1    O26   1.300571 A    
C92   H9    1.083565 S    
C13   C14   1.399786 A    
C54   C55   1.405409 A    
C17   C18   1.398297 A    
N4    O31   1.300582 A    
N1    O25   1.301593 A    
N13   O50   1.300785 A    
O10   Zn4   2.021523 S    
C78   C79   1.414016 A    
N5    O33   1.300800 A    
C29   C34   1.380650 A    
C90   N18   1.443342 S    
C101  H10   1.082303 S    
C49   C58   1.478711 S    
N17   O57   1.301043 A    
N21   O65   1.301764 A    
C20   C21   1.397455 A    
C19   C20   1.396572 A    
O18   Zn6   2.022321 S    
O2    C1    1.283926 A    
O22   C69   1.283441 A    
Zn3   O13   2.021649 S    
N15   O53   1.300769 A    
N10   O43   1.301059 A    
C84   C85   1.395480 A    
C99   C100  1.406262 A    
Zn1   O5    2.016269 S    
O8    C4    1.293579 A    
C71   C72   1.415584 A    
O11   Zn3   2.011921 S    
N13   O49   1.301264 A    
O3    Zn1   2.021699 S    
N3    O30   1.300599 A    
N11   O45   1.301707 A    
N20   O63   1.301012 A    
O2    Zn2   2.016267 S    
C53   C58   1.399949 A    
N14   O52   1.301069 A    
C4    C51   1.441666 S    
C102  C103  1.420592 A    
C97   C98   1.392620 A    
O1    Zn1   2.015895 S    
C57   H27   1.082939 S    
N22   O68   1.301268 A    
C98   N20   1.438754 S    
C72   C73   1.412920 A    
C55   H26   1.081546 S    
O23   C70   1.281401 A    
C47   H23   1.085722 S    
C89   C90   1.407628 A    
C36   C37   1.401235 A    
C86   C87   1.399299 A    
C15   C16   1.418081 A    
