data_mof_unit_10469.cif
_audit_creation_date              2013-03-05T16:30:50-0500
_audit_creation_method            fapswitch 2.2
_symmetry_space_group_name_H-M    P1
_symmetry_Int_Tables_number       1
_space_group_crystal_system       triclinic
_cell_length_a                    10.819415
_cell_length_b                    10.829491
_cell_length_c                    9.550715
_cell_angle_alpha                 89.660071
_cell_angle_beta                  101.543864
_cell_angle_gamma                 90.402692
_cell_volume                      1096.37033969

loop_
_atom_site_label
_atom_site_type_symbol
_atom_site_description
_atom_site_fract_x
_atom_site_fract_y
_atom_site_fract_z
_atom_type_partial_charge
O1    O     O_R   0.500000 0.319640 0.618810 -0.582926
O2    O     O_R   0.500010 0.319680 0.381230 -0.586469
C1    C     C_R   0.499584 0.262479 0.500317 0.831900
O3    O     O_R   0.320680 0.500000 0.575130 -0.592023
O4    O     O_R   0.320690 0.500040 0.337550 -0.544016
C2    C     C_R   0.261133 0.495833 0.443367 0.748638
Cu1   Cu    Cu3+1 0.499990 0.499980 0.640670 1.016954
Cu2   Cu    Cu3+1 0.500010 0.500020 0.359330 1.036113
O5    O     O_R   0.499990 0.680320 0.618770 -0.578017
O6    O     O_R   0.500000 0.680360 0.381190 -0.585641
O7    O     O_R   0.679310 0.499960 0.662450 -0.541529
O8    O     O_R   0.679320 0.500000 0.424870 -0.530928
C3    C     C_R   0.499702 0.737742 0.499811 0.837124
C4    C     C_R   0.738568 0.498279 0.556572 0.885338
H1    H     H_    0.135252 0.385564 0.614649 0.152482
C5    C     C_2   0.122785 0.479107 0.416702 0.162893
C6    C     C_2   0.073259 0.421993 0.519864 -0.236814
C7    C     C_2   0.877294 0.495696 0.583609 0.085009
C8    C     C_2   0.937295 0.409336 0.518661 0.284573
C9    C     C_R   0.477580 0.063326 0.618215 0.150361
C10   C     C_R   0.507191 0.129496 0.503490 -0.075278
C11   C     C_R   0.548589 0.065786 0.394135 -0.118704
H2    H     H_    0.577946 0.114815 0.306991 0.186697
C12   C     C_R   0.547869 0.937307 0.393852 -0.178693
H3    H     H_    0.576748 0.890510 0.306899 0.135741
C13   C     C_R   0.505634 0.871301 0.502293 -0.078272
C14   C     C_R   0.476272 0.935864 0.617482 0.155758
C15   C     C_3   0.358338 0.930257 0.676746 -0.432703
C16   C     C_3   0.360913 0.070207 0.678759 -0.479567
H4    H     H_    0.276767 0.891234 0.599705 0.224452
H5    H     H_    0.373518 0.889273 0.785569 0.206330
H6    H     H_    0.280423 0.112822 0.603651 0.208628
H7    H     H_    0.380117 0.109155 0.788479 0.208673
C17   C     C_R   0.589615 0.565558 0.093671 0.313209
N1    N     N_R   0.500780 0.500930 0.148120 -0.207123
C18   C     C_R   0.419515 0.426627 0.056609 -0.033485
H8    H     H_    0.352665 0.368987 0.097578 0.156139
C19   C     C_R   0.419472 0.426665 0.907784 -0.041592
H9    H     H_    0.352558 0.369142 0.837163 0.141442
N2    N     N_R   0.500790 0.500890 0.852210 -0.219967
C20   C     C_R   0.589488 0.565033 0.945816 0.236196
C21   C     C_3   0.611541 0.700946 0.941864 0.004557
C22   C     C_3   0.609836 0.702876 0.101254 -0.443528
H10   H     H_    0.531782 0.752176 0.876666 0.129490
H11   H     H_    0.525941 0.752032 0.122911 0.141719
N3    N     N_R   0.874094 0.298632 0.457370 0.135569
O9    O     O_R   0.922322 0.234649 0.366786 -0.296114
O10   O     O_R   0.785704 0.248137 0.513194 -0.394187
N4    N     N_R   0.733380 0.732028 0.905451 0.161959
O11   O     O_R   0.744281 0.832434 0.833437 -0.304809
O12   O     O_R   0.831405 0.661694 0.945479 -0.229772
C23   C     C_2   0.731303 0.745295 0.196170 0.570017
H12   H     H_    0.763309 0.839604 0.186673 0.091136
O13   O     O_2   0.793520 0.676622 0.284257 -0.468112
N5    N     N_R   0.945405 0.596471 0.662288 0.138713
O14   O     O_R   0.052089 0.577810 0.750404 -0.315955
O15   O     O_R   0.895657 0.705930 0.653993 -0.259730
N6    N     N_R   0.046110 0.522897 0.284687 0.162856
O16   O     O_R   0.939591 0.469359 0.229617 -0.260511
O17   O     O_R   0.088455 0.610049 0.212189 -0.284202

loop_
_geom_bond_atom_site_label_1
_geom_bond_atom_site_label_2
_geom_bond_distance
_ccdc_geom_bond_type
O4    Cu2   1.909419 S    
C19   N2    1.368878 A    
N5    O14   1.301483 A    
C15   H5    1.109692 S    
C12   H3    1.074803 S    
C9    C14   1.380373 A    
C18   H8    1.081625 S    
C20   C21   1.490884 S    
C4    C7    1.471616 S    
N1    C18   1.369394 A    
Cu2   O8    1.915595 S    
Cu1   N2    2.018725 S    
Cu1   O5    1.962926 S    
N4    O11   1.300404 A    
N4    O12   1.302591 A    
C18   C19   1.421292 A    
O2    C1    1.292693 A    
C8    N3    1.443649 S    
Cu1   Cu2   2.687040 S    
C5    N6    1.443125 S    
C10   C11   1.402702 A    
C9    C10   1.394511 A    
Cu1   O7    1.909421 S    
C22   H11   1.110547 S    
C13   C14   1.397209 A    
C19   H9    1.081813 S    
C17   C20   1.411900 A    
C21   H10   1.108049 S    
C7    N5    1.440668 S    
O3    Cu1   1.915594 S    
C15   H4    1.112391 S    
C15   C16   1.515818 S    
C6    C8    1.474224 S    
O8    C4    1.292525 A    
C17   N1    1.367601 A    
C16   H6    1.112487 S    
C11   C12   1.391343 A    
C9    C16   1.492371 S    
N5    O15   1.300742 A    
O4    C2    1.303204 A    
C3    C13   1.447464 S    
O7    C4    1.301464 A    
N3    O10   1.300425 A    
C22   C23   1.509823 S    
C1    C10   1.442854 S    
C21   C22   1.526351 S    
C21   N4    1.465551 S    
N6    O17   1.301249 A    
C16   H7    1.111776 S    
C23   H12   1.085238 S    
O3    C2    1.294805 A    
C7    C8    1.362887 D    
C14   C15   1.496581 S    
H1    C6    1.086965 S    
O5    C3    1.291423 A    
N3    O9    1.301431 A    
N2    C20   1.362841 A    
O1    Cu1   1.965352 S    
N6    O16   1.301001 A    
C11   H2    1.083370 S    
C2    C5    1.477289 S    
O6    C3    1.295958 A    
Cu2   O6    1.965353 S    
O2    Cu2   1.962925 S    
C17   C22   1.501626 S    
C12   C13   1.403027 A    
C23   O13   1.219401 D    
C5    C6    1.356406 D    
O1    C1    1.292354 A    
Cu2   N1    2.018855 S    
