data_mof_unit_19488.cif
_audit_creation_date              2013-03-05T16:31:21-0500
_audit_creation_method            fapswitch 2.2
_symmetry_space_group_name_H-M    P1
_symmetry_Int_Tables_number       1
_space_group_crystal_system       triclinic
_cell_length_a                    9.568745
_cell_length_b                    10.855273
_cell_length_c                    13.459024
_cell_angle_alpha                 91.834176
_cell_angle_beta                  72.383308
_cell_angle_gamma                 91.134621
_cell_volume                      1331.68611904

loop_
_atom_site_label
_atom_site_type_symbol
_atom_site_description
_atom_site_fract_x
_atom_site_fract_y
_atom_site_fract_z
_atom_type_partial_charge
O1    O     O_R   0.381190 0.680360 0.500000 -0.583240
O2    O     O_R   0.618780 0.680320 0.499990 -0.528304
C1    C     C_R   0.500285 0.737507 0.502053 0.831298
O3    O     O_R   0.323230 0.500000 0.650990 -0.593714
O4    O     O_R   0.560820 0.499960 0.650980 -0.548952
C2    C     C_R   0.420970 0.495524 0.700084 0.815712
Cu1   Cu    Cu3+1 0.359330 0.500020 0.500010 0.963625
Cu2   Cu    Cu3+1 0.640670 0.499980 0.499990 1.029419
O5    O     O_R   0.381220 0.319680 0.500010 -0.583745
O6    O     O_R   0.618810 0.319640 0.500000 -0.605873
O7    O     O_R   0.439180 0.500040 0.349020 -0.579776
O8    O     O_R   0.676770 0.500000 0.349010 -0.533979
C3    C     C_R   0.498538 0.262161 0.501456 0.779474
C4    C     C_R   0.579281 0.500257 0.299559 0.823541
C5    C     C_R   0.795921 0.433010 0.017414 -0.241183
H1    H     H_    0.799833 0.335434 0.832504 0.137148
H2    H     H_    0.904115 0.403567 0.970689 0.179610
C6    C     C_R   0.625519 0.493691 0.184447 -0.175561
C7    C     C_R   0.240012 0.559026 0.866178 -0.278108
C8    C     C_R   0.214035 0.606656 0.966777 -0.088313
C9    C     C_R   0.319960 0.598852 0.018622 0.434810
C10   C     C_R   0.442837 0.518859 0.976056 -0.030520
C11   C     C_R   0.467930 0.470111 0.872619 0.063345
C12   C     C_R   0.546534 0.489798 0.028327 0.113220
C13   C     C_R   0.682422 0.437049 0.972189 0.103611
C14   C     C_R   0.700978 0.385153 0.873415 -0.125749
C15   C     C_R   0.590352 0.394163 0.827420 -0.113713
C16   C     C_R   0.515129 0.500550 0.136142 -0.196754
C17   C     C_R   0.771660 0.470932 0.121670 0.342185
C18   C     C_R   0.372834 0.501431 0.815076 -0.100504
H3    H     H_    0.402681 0.509815 0.183070 0.214764
H4    H     H_    0.162468 0.579329 0.824789 0.186402
H5    H     H_    0.116748 0.661451 0.999960 0.210570
H6    H     H_    0.604686 0.344407 0.754186 0.142222
C19   C     C_R   0.367340 0.933436 0.527089 0.111658
C20   C     C_R   0.497969 0.870599 0.512517 -0.103623
C21   C     C_R   0.624749 0.938444 0.511442 -0.136328
H7    H     H_    0.727074 0.893147 0.504678 0.203593
C22   C     C_R   0.622986 0.066799 0.511594 -0.213319
H8    H     H_    0.723754 0.116332 0.506934 0.161242
C23   C     C_R   0.495263 0.128870 0.510962 -0.093983
C24   C     C_R   0.365657 0.060359 0.526107 0.128129
C25   C     C_3   0.255323 0.057855 0.467737 -0.484046
C26   C     C_3   0.256688 0.918570 0.469867 -0.397170
H9    H     H_    0.148520 0.096451 0.515512 0.200703
H10   H     H_    0.300793 0.093224 0.387560 0.209458
H11   H     H_    0.151896 0.878115 0.519098 0.214420
H12   H     H_    0.301961 0.874083 0.391292 0.219023
C27   C     C_R   0.960810 0.453964 0.416102 0.304690
N1    N     N_R   0.852320 0.499070 0.499340 -0.266485
C28   C     C_R   0.896192 0.559411 0.577801 0.378228
C29   C     C_R   0.044393 0.556648 0.577840 -0.148209
H13   H     H_    0.076179 0.601672 0.640709 0.179516
N2    N     N_R   0.148230 0.499110 0.499340 -0.226012
C30   C     C_R   0.108536 0.456872 0.414861 0.313541
C31   C     C_3   0.133385 0.330618 0.367807 -0.504785
C32   C     C_3   0.972824 0.325109 0.373365 -0.465234
H14   H     H_    0.209265 0.330180 0.286825 0.221703
H15   H     H_    0.161056 0.267182 0.420863 0.206430
H16   H     H_    0.954628 0.316795 0.296039 0.259544
H17   H     H_    0.908773 0.258701 0.431176 0.186778
N3    N     N_R   0.895230 0.486258 0.160604 0.106154
O9    O     O_R   0.909713 0.587917 0.210617 -0.310943
O10   O     O_R   0.009537 0.416796 0.123020 -0.410677
N4    N     N_R   0.795839 0.627696 0.660996 0.143746
O11   O     O_R   0.742830 0.729643 0.640582 -0.357406
O12   O     O_R   0.799024 0.613453 0.755842 -0.383750
S1    S     S_3+6 0.306690 0.713324 0.119059 0.008216
O13   O     O_2   0.233120 0.825473 0.096227 -0.258583
O14   O     O_2   0.215085 0.664666 0.222016 -0.299162
O15   O     O_3   0.473614 0.756016 0.125914 -0.523167
H18   H     H_    0.455003 0.800898 0.193845 0.363141

loop_
_geom_bond_atom_site_label_1
_geom_bond_atom_site_label_2
_geom_bond_distance
_ccdc_geom_bond_type
O4    Cu2   1.942605 S    
C30   C31   1.483959 S    
C31   H15   1.098790 S    
C5    H2    1.084247 S    
C32   H17   1.109257 S    
C21   H7    1.082121 S    
C11   C15   1.413090 A    
C22   C23   1.409616 A    
C23   C24   1.397436 A    
C4    C6    1.476633 S    
C19   C20   1.393897 A    
N4    O12   1.300284 A    
C26   H11   1.111926 S    
Cu2   O8    1.955420 S    
C7    C8    1.385248 A    
C3    C23   1.455507 S    
O2    C1    1.295950 A    
O8    C4    1.299695 A    
C6    C16   1.402084 A    
O15   H18   0.990649 S    
C21   C22   1.393695 A    
C6    C17   1.419699 A    
C15   H6    1.081246 S    
C9    C10   1.437202 A    
C8    C9    1.398810 A    
N4    O11   1.297501 A    
Cu1   O7    1.942605 S    
C19   C26   1.489678 S    
C25   H9    1.111475 S    
C14   C15   1.384895 A    
N3    O9    1.301139 A    
C1    C20   1.447059 S    
C29   H13   1.082027 S    
S1    O15   1.682754 S    
O1    Cu1   1.964660 S    
C8    H5    1.083116 S    
Cu2   O6    1.964660 S    
C20   C21   1.403191 A    
C2    C18   1.474754 S    
C29   N2    1.356657 A    
C5    C17   1.400687 A    
Cu2   N1    2.022812 S    
C9    S1    1.783918 S    
O3    Cu1   1.955420 S    
C25   C26   1.513548 S    
H1    C14   1.084050 S    
O4    C2    1.301543 A    
C25   H10   1.112159 S    
C10   C12   1.424138 A    
C5    C13   1.398448 A    
O3    C2    1.300605 A    
C16   H3    1.075015 S    
C31   C32   1.515481 S    
C7    H4    1.083493 S    
C28   C29   1.419163 A    
C11   C18   1.413886 A    
C26   H12   1.112451 S    
Cu1   Cu2   2.691997 S    
C27   C32   1.488430 S    
C12   C13   1.413010 A    
C17   N3    1.435983 S    
S1    O14   1.503593 D    
C27   N1    1.361459 A    
C28   N4    1.431632 S    
C22   H8    1.080647 S    
Cu1   O5    1.972933 S    
C19   C24   1.378729 A    
O5    C3    1.300847 A    
N2    C30   1.366891 A    
C32   H16   1.106634 S    
N3    O10   1.301586 A    
Cu1   N2    2.022538 S    
N1    C28   1.390540 A    
C13   C14   1.389000 A    
C27   C30   1.408333 A    
C7    C18   1.397878 A    
O7    C4    1.303891 A    
C10   C11   1.425243 A    
O2    Cu2   1.972934 S    
C12   C16   1.391464 A    
C24   C25   1.494006 S    
C31   H14   1.111742 S    
S1    O13   1.503637 D    
O1    C1    1.293914 A    
O6    C3    1.293389 A    
