data_mof_unit_35263.cif
_audit_creation_date              2012-12-10T17:54:28-0500
_audit_creation_method            fapswitch 2.2
_symmetry_space_group_name_H-M    P1
_symmetry_Int_Tables_number       1
_space_group_crystal_system       triclinic
_cell_length_a                    27.717263
_cell_length_b                    10.607258
_cell_length_c                    9.951628
_cell_angle_alpha                 90.564054
_cell_angle_beta                  88.843213
_cell_angle_gamma                 92.412118
_cell_volume                      2922.51334739

loop_
_atom_site_label
_atom_site_type_symbol
_atom_type_description
_atom_site_fract_x
_atom_site_fract_y
_atom_site_fract_z
_atom_type_partial_charge
Br1   Br    Br    0.406003 0.277508 0.740786 -0.513795
C1    C     C_R   0.501469 0.260981 0.499447 0.899252
C2    C     C_R   0.972611 0.377814 0.504124 0.046544
C3    C     C_R   0.976166 0.610794 0.494146 0.047417
C4    C     C_R   0.406183 0.501038 0.501095 0.904087
C5    C     C_R   0.949167 0.494024 0.497216 0.070402
C6    C     C_R   0.943880 0.264799 0.515406 -0.214604
C7    C     C_R   0.893891 0.265638 0.514206 -0.135746
C8    C     C_R   0.870653 0.378965 0.502225 -0.021353
C9    C     C_R   0.898103 0.493501 0.493586 -0.052178
C10   C     C_R   0.874361 0.607565 0.481712 -0.020102
C11   C     C_R   0.823909 0.604996 0.479444 0.503071
C12   C     C_R   0.277753 0.474450 0.388476 -0.094905
C13   C     C_R   0.820250 0.380799 0.500107 0.503565
C14   C     C_R   0.722443 0.513486 0.372170 -0.102693
C15   C     C_R   0.672355 0.515631 0.374436 -0.205798
C16   C     C_R   0.501225 0.739344 0.500445 0.864758
C17   C     C_R   0.671258 0.476882 0.614864 -0.239664
C18   C     C_R   0.721303 0.474321 0.612128 -0.110323
C19   C     C_R   0.746830 0.492920 0.490969 0.325913
C20   C     C_R   0.023740 0.378297 0.500572 0.047085
C21   C     C_R   0.050598 0.495246 0.504994 0.071009
C22   C     C_R   0.027008 0.611538 0.505838 0.046288
C23   C     C_R   0.253004 0.498555 0.509110 0.312091
C24   C     C_R   0.049163 0.265500 0.491551 -0.213957
C25   C     C_R   0.105180 0.724430 0.524939 -0.131744
C26   C     C_R   0.951221 0.723173 0.478134 -0.215058
C27   C     C_R   0.901279 0.721331 0.472374 -0.137711
C28   C     C_R   0.593834 0.499977 0.498783 0.829709
C29   C     C_R   0.055263 0.724997 0.519538 -0.214723
C30   C     C_R   0.583493 0.141535 0.612464 -0.181008
C31   C     C_R   0.621826 0.080474 0.668167 -0.109139
C32   C     C_R   0.621610 0.949262 0.669286 -0.118359
C33   C     C_R   0.583056 0.878695 0.614721 -0.194494
C34   C     C_R   0.101671 0.495949 0.508257 -0.051554
C35   C     C_R   0.543624 0.939276 0.559152 0.093811
C36   C     C_R   0.543872 0.071379 0.557853 0.085686
C37   C     C_R   0.504712 0.128996 0.498481 -0.084737
C38   C     C_R   0.467025 0.060262 0.438651 -0.178017
C39   C     C_R   0.466834 0.931504 0.439599 -0.198547
C40   C     C_R   0.176243 0.384696 0.503275 0.510132
C41   C     C_R   0.504213 0.872067 0.501058 -0.096551
C42   C     C_R   0.452194 0.304945 0.144598 -0.136842
C43   C     C_R   0.443186 0.188579 0.084292 -0.232409
C44   C     C_R   0.448939 0.176798 0.946744 -0.187604
C45   C     C_R   0.125768 0.381708 0.501749 -0.023671
C46   C     C_R   0.456371 0.285584 0.869552 0.306783
C47   C     C_R   0.477346 0.398742 0.929434 0.087770
C48   C     C_R   0.476731 0.402451 0.073833 0.133445
C49   C     C_R   0.521916 0.594549 0.070890 -0.108222
C50   C     C_R   0.521547 0.595111 0.928172 -0.111369
C51   C     C_R   0.179184 0.609530 0.519261 0.505727
C52   C     C_R   0.278244 0.524219 0.627054 -0.093308
C53   C     C_R   0.328385 0.525384 0.624579 -0.162878
C54   C     C_R   0.327876 0.475839 0.385571 -0.214896
C55   C     C_R   0.099194 0.267456 0.492393 -0.134082
C56   C     C_R   0.128777 0.610932 0.517569 -0.021951
C57   C     C_R   0.353505 0.501009 0.503769 -0.033745
C58   C     C_R   0.646462 0.497733 0.495981 -0.034472
H1    H     H_    0.346460 0.456315 0.291334 0.165178
H2    H     H_    0.585600 0.243423 0.611095 0.145773
H3    H     H_    0.651979 0.135166 0.709444 0.151826
H4    H     H_    0.258052 0.454852 0.297223 0.143535
H5    H     H_    0.651597 0.901976 0.711460 0.151523
H6    H     H_    0.584847 0.777063 0.615026 0.145444
H7    H     H_    0.437040 0.877815 0.394622 0.157288
H8    H     H_    0.540106 0.671746 0.123853 0.149329
H9    H     H_    0.439009 0.317223 0.245298 0.201158
H10   H     H_    0.428059 0.110168 0.142347 0.167544
H11   H     H_    0.436556 0.088590 0.900486 0.187453
H12   H     H_    0.258933 0.542966 0.720319 0.143576
H13   H     H_    0.539387 0.672736 0.874603 0.146979
H14   H     H_    0.116982 0.178531 0.485220 0.190063
H15   H     H_    0.654017 0.532021 0.281530 0.162896
H16   H     H_    0.742375 0.527936 0.278491 0.138537
H17   H     H_    0.873495 0.176591 0.523102 0.191717
H18   H     H_    0.958778 0.173724 0.528557 0.139022
H19   H     H_    0.031585 0.173641 0.480413 0.137880
H20   H     H_    0.347415 0.545637 0.716816 0.178689
H21   H     H_    0.125236 0.813860 0.534686 0.193397
H22   H     H_    0.969241 0.814477 0.466705 0.138391
H23   H     H_    0.652069 0.462074 0.709656 0.163132
H24   H     H_    0.883835 0.809989 0.460732 0.189043
H25   H     H_    0.740356 0.458614 0.704018 0.137959
H26   H     H_    0.039914 0.816300 0.529310 0.139137
H27   H     H_    0.437184 0.106622 0.394124 0.148603
N1    N     N_R   0.201627 0.497521 0.511433 -0.358951
N2    N     N_R   0.798180 0.492770 0.489215 -0.358232
N3    N     N_R   0.499540 0.498800 0.142780 -0.114975
N4    N     N_R   0.499520 0.498720 0.857170 -0.112556
O1    O     O_R   0.500000 0.316780 0.614690 -0.597865
O2    O     O_R   0.571250 0.499990 0.614680 -0.637272
O3    O     O_R   0.571240 0.499970 0.385350 -0.613269
O4    O     O_2   0.199882 0.276011 0.496990 -0.539751
O5    O     O_2   0.793409 0.271864 0.508538 -0.554964
O6    O     O_2   0.205680 0.719009 0.527164 -0.545939
O7    O     O_2   0.800615 0.713623 0.469036 -0.554762
O8    O     O_R   0.500000 0.316750 0.385360 -0.637472
O9    O     O_R   0.428760 0.500030 0.614650 -0.571414
O10   O     O_R   0.428750 0.500010 0.385320 -0.648095
O11   O     O_R   0.500000 0.683250 0.614640 -0.622443
O12   O     O_R   0.500000 0.683220 0.385310 -0.616703
Zn1   Zn    Zn3+2 0.500000 0.500020 0.653130 0.970436
Zn2   Zn    Zn3+2 0.500000 0.499980 0.346870 0.946820

loop_
_geom_bond_atom_site_label_1
_geom_bond_atom_site_label_2
_ccdc_geom_bond_type
C7    C8    A    
C14   H16   S    
C30   H2    S    
C35   C41   A    
C18   C19   A    
C24   C55   A    
C7    H17   S    
C42   C43   A    
C2    C5    A    
C6    C7    A    
C30   C31   A    
C52   C53   A    
C21   C34   A    
C4    C57   S    
C15   H15   S    
C35   C36   A    
C2    C6    A    
C50   N4    A    
C37   C38   A    
C14   C15   A    
O10   Zn2   S    
C33   H6    S    
C17   C18   A    
C16   O11   A    
C16   C41   S    
O2    Zn1   S    
C46   C47   A    
C42   H9    S    
C40   C45   A    
C8    C9    A    
C6    H18   S    
C39   C41   A    
O11   Zn1   S    
C39   H7    S    
C54   H1    S    
C27   H24   S    
O3    Zn2   S    
C23   N1    S    
C49   C50   A    
C44   C46   A    
C14   C19   A    
C40   N1    A    
C11   N2    A    
C24   H19   S    
C22   C29   A    
C28   C58   S    
C26   H22   S    
C3    C5    A    
O9    Zn1   S    
C51   C56   A    
O1    Zn1   S    
C38   C39   A    
C3    C22   A    
C42   C48   A    
C23   C52   A    
C25   H21   S    
C30   C36   A    
C12   C23   A    
C15   C58   A    
C16   O12   A    
C36   C37   A    
C1    C37   S    
C49   N3    A    
C40   O4    S    
C12   H4    S    
C4    O10   A    
C32   C33   A    
C8    C13   A    
C43   H10   S    
C29   H26   S    
O12   Zn2   S    
C11   O7    S    
C47   C48   A    
C25   C29   A    
N3    Zn2   S    
C2    C20   A    
C50   H13   S    
C18   H25   S    
C52   H12   S    
C13   O5    S    
C3    C26   A    
C43   C44   A    
C53   H20   S    
C53   C57   A    
C20   C24   A    
C55   H14   S    
C44   H11   S    
C51   N1    A    
Br1   C46   S    
C48   N3    A    
C5    C9    A    
C10   C11   A    
C4    O9    A    
C49   H8    S    
C34   C56   A    
C31   C32   A    
C13   N2    A    
C28   O3    A    
C10   C27   A    
C32   H5    S    
O8    Zn2   S    
C19   N2    S    
C17   H23   S    
C51   O6    S    
C33   C35   A    
C1    O1    A    
C25   C56   A    
N4    Zn1   S    
C9    C10   A    
C31   H3    S    
C17   C58   A    
C1    O8    A    
C54   C57   A    
C45   C55   A    
C26   C27   A    
C21   C22   A    
C47   N4    A    
C38   H27   S    
C20   C21   A    
C34   C45   A    
C28   O2    A    
C12   C54   A    
