data_mof_unit_23471.cif
_audit_creation_date              2012-12-10T17:57:23-0500
_audit_creation_method            fapswitch 2.2
_symmetry_space_group_name_H-M    P1
_symmetry_Int_Tables_number       1
_space_group_crystal_system       triclinic
_cell_length_a                    9.580159
_cell_length_b                    10.795706
_cell_length_c                    13.413563
_cell_angle_alpha                 90.795347
_cell_angle_beta                  72.194818
_cell_angle_gamma                 88.807303
_cell_volume                      1320.25835168

loop_
_atom_site_label
_atom_site_type_symbol
_atom_type_description
_atom_site_fract_x
_atom_site_fract_y
_atom_site_fract_z
_atom_type_partial_charge
C1    C     C_R   0.499374 0.737730 0.499654 0.763776
C2    C     C_R   0.430915 0.515390 0.980903 0.092205
C3    C     C_R   0.465441 0.546231 0.873856 0.086860
C4    C     C_R   0.539189 0.531010 0.032783 -0.022702
C5    C     C_R   0.666451 0.598927 0.983153 0.111604
C6    C     C_R   0.687969 0.643831 0.882934 -0.231517
C7    C     C_R   0.589579 0.617670 0.828872 -0.199791
C8    C     C_R   0.528285 0.478816 0.130874 0.367405
C9    C     C_R   0.746272 0.585829 0.137324 -0.276781
C10   C     C_R   0.371644 0.508547 0.815873 -0.111695
C11   C     C_R   0.602493 0.934430 0.534900 -0.183287
C12   C     C_R   0.420863 0.504795 0.700381 0.764889
C13   C     C_R   0.604785 0.062556 0.533595 -0.190670
C14   C     C_R   0.502939 0.128421 0.497852 -0.019647
C15   C     C_R   0.400673 0.065713 0.461673 -0.180775
C16   C     C_R   0.400472 0.937644 0.460845 -0.194821
C17   C     C_R   0.499636 0.871697 0.499110 -0.006455
C18   C     C_R   0.896844 0.587404 0.554671 -0.031854
C19   C     C_R   0.045375 0.593264 0.552095 0.203357
C20   C     C_R   0.098843 0.409230 0.447925 -0.033797
C21   C     C_R   0.951043 0.410330 0.446723 -0.046379
C22   C     C_R   0.501313 0.262318 0.499204 0.788354
C23   C     C_R   0.578773 0.500887 0.299996 0.829100
C24   C     C_R   0.770155 0.623308 0.034880 -0.205875
C25   C     C_R   0.623032 0.517111 0.186666 -0.148081
C26   C     C_R   0.232477 0.464278 0.869073 -0.189898
C27   C     C_R   0.188796 0.453202 0.977145 -0.190121
C28   C     C_R   0.286800 0.477089 0.032708 -0.139430
Cu1   Cu    Cu3+1 0.359340 0.499980 0.500000 0.948749
Cu2   Cu    Cu3+1 0.640660 0.500020 0.500000 0.933234
H1    H     H_    0.821227 0.614171 0.179085 0.177171
H2    H     H_    0.684010 0.109967 0.562187 0.147547
H3    H     H_    0.322153 0.115534 0.432848 0.140565
H4    H     H_    0.325001 0.890726 0.428469 0.136060
H5    H     H_    0.816652 0.656913 0.596541 0.114338
H6    H     H_    0.173985 0.336711 0.405558 0.131054
H7    H     H_    0.915994 0.338586 0.403288 0.123442
H8    H     H_    0.782130 0.698591 0.845601 0.148408
H9    H     H_    0.866563 0.676127 0.997609 0.153652
H10   H     H_    0.157235 0.437531 0.827056 0.156997
H11   H     H_    0.244374 0.471214 0.116708 0.190293
H12   H     H_    0.079242 0.423352 0.017965 0.149471
H13   H     H_    0.608746 0.659249 0.753301 0.151807
H14   H     H_    0.680370 0.884603 0.564518 0.134220
N1    N     N_R   0.147940 0.499970 0.499970 -0.163388
N2    N     N_R   0.852060 0.500060 0.499990 -0.168017
O1    O     O_R   0.381250 0.680340 0.500010 -0.599140
O2    O     O_R   0.618820 0.680370 0.500010 -0.593434
O3    O     O_R   0.323240 0.499950 0.650980 -0.589255
O4    O     O_R   0.560810 0.499980 0.650980 -0.571585
O5    O     O_R   0.381180 0.319630 0.499990 -0.586123
O6    O     O_R   0.618750 0.319660 0.499990 -0.585805
O7    O     O_R   0.439190 0.500020 0.349020 -0.534188
O8    O     O_R   0.676760 0.500050 0.349020 -0.589278
C29   C     C_3   0.079527 0.716931 0.595839 -0.378054
C30   C     C_3   0.112179 0.711821 0.701089 -0.286587
C31   C     C_3   0.068949 0.833235 0.764300 -0.924540
H15   H     H_    0.132165 0.910687 0.719880 0.269191
H16   H     H_    0.950081 0.854863 0.781612 0.248743
H17   H     H_    0.093830 0.825231 0.839612 0.249594
H18   H     H_    0.053497 0.634404 0.748556 0.209943
H19   H     H_    0.231045 0.700201 0.687249 0.246631
H20   H     H_    0.159702 0.768560 0.536019 0.202154
H21   H     H_    0.983462 0.781748 0.608790 0.151557
O9    O     O_3   0.427071 0.388978 0.172491 -0.629165
C32   C     C_3   0.498297 0.271313 0.151679 0.055058
H22   H     H_    0.575185 0.259943 0.198867 0.131412
H23   H     H_    0.560138 0.258542 0.066771 0.140111
C33   C     C_3   0.383026 0.171475 0.181873 -0.327618
H24   H     H_    0.314918 0.186597 0.264621 0.207293
H25   H     H_    0.310030 0.178477 0.131643 0.219069
C34   C     C_3   0.453876 0.041878 0.169078 -0.921060
H26   H     H_    0.519858 0.023585 0.086199 0.258589
H27   H     H_    0.367255 0.971792 0.192209 0.254967
H28   H     H_    0.525786 0.032406 0.219804 0.261941

loop_
_geom_bond_atom_site_label_1
_geom_bond_atom_site_label_2
_ccdc_geom_bond_type
C32   H23   S    
C29   C30   S    
C13   H2    S    
C4    C8    A    
C12   O3    A    
C9    C25   A    
Cu1   O3    S    
Cu2   O8    S    
C26   C27   A    
Cu1   O1    S    
Cu2   O2    S    
C3    C7    A    
C5    C6    A    
C31   H16   S    
C32   C33   S    
C15   C16   A    
C28   H11   S    
C24   H9    S    
C30   C31   S    
C18   C19   A    
C33   H25   S    
C16   H4    S    
C16   C17   A    
C29   H20   S    
C6    H8    S    
C7    H13   S    
C18   H5    S    
C20   N1    A    
C10   C26   A    
C32   H22   S    
Cu2   O4    S    
C8    O9    S    
C13   C14   A    
C8    C25   A    
C34   H28   S    
C18   N2    A    
C23   O7    A    
C34   H27   S    
C1    O1    A    
C31   H17   S    
Cu1   N1    S    
C33   C34   S    
C2    C4    A    
Cu1   Cu2   S    
C29   H21   S    
C11   H14   S    
C1    O2    A    
C10   C12   S    
C30   H19   S    
C23   O8    A    
C22   O6    A    
C21   N2    A    
Cu1   O5    S    
C19   C29   S    
Cu2   O6    S    
C11   C17   A    
C14   C15   A    
Cu2   N2    S    
C34   H26   S    
C12   O4    A    
C19   N1    A    
C9    C24   A    
C6    C7    A    
C1    C17   S    
C14   C22   S    
C2    C3    A    
C3    C10   A    
C11   C13   A    
C27   H12   S    
C26   H10   S    
C31   H15   S    
C5    C24   A    
Cu1   O7    S    
C23   C25   S    
C33   H24   S    
C9    H1    S    
C20   H6    S    
C4    C5    A    
C21   H7    S    
C20   C21   A    
O9    C32   S    
C27   C28   A    
C30   H18   S    
C2    C28   A    
C15   H3    S    
C22   O5    A    
