data_mof_unit_36592.cif
_audit_creation_date              2012-10-26T19:04:42-0400
_audit_creation_method            fapswitch 2.2
_symmetry_space_group_name_H-M    P1
_symmetry_Int_Tables_number       1
_space_group_crystal_system       triclinic
_cell_length_a                    9.658877
_cell_length_b                    10.766466
_cell_length_c                    13.344509
_cell_angle_alpha                 94.048081
_cell_angle_beta                  72.166059
_cell_angle_gamma                 89.804755
_cell_volume                      1317.28561287

loop_
_atom_site_label
_atom_site_type_symbol
_atom_type_description
_atom_site_fract_x
_atom_site_fract_y
_atom_site_fract_z
_atom_type_partial_charge
C1    C     C_R   0.499401 0.737122 0.501366 0.575324
C2    C     C_R   0.370800 0.512020 0.817833 -0.017556
C3    C     C_R   0.332042 0.886624 0.688585 -0.157284
C4    C     C_R   0.420789 0.505520 0.700873 0.522707
C5    C     C_R   0.248609 0.959004 0.777468 -0.046490
C6    C     C_R   0.245190 0.088204 0.777025 0.428758
C7    C     C_R   0.326015 0.145635 0.687806 -0.049598
C8    C     C_R   0.410897 0.073947 0.596729 -0.055763
C9    C     C_R   0.412644 0.942807 0.596639 -0.040952
C10   C     C_R   0.498260 0.871514 0.505572 0.068193
C11   C     C_R   0.586397 0.928320 0.417696 0.238348
C12   C     C_R   0.426611 0.532737 0.985401 0.053436
C13   C     C_R   0.585934 0.057881 0.419407 -0.094676
C14   C     C_R   0.497649 0.129701 0.506737 -0.008895
C15   C     C_R   0.911302 0.336284 0.357918 -0.117198
C16   C     C_R   0.499500 0.263096 0.501686 0.565528
C17   C     C_R   0.006857 0.254477 0.285237 0.266728
C18   C     C_R   0.151370 0.249355 0.281712 0.299797
C19   C     C_R   0.198965 0.327081 0.352123 0.409028
C20   C     C_R   0.103840 0.416445 0.428593 0.074619
C21   C     C_R   0.953894 0.418317 0.429703 0.019353
C22   C     C_R   0.896799 0.578457 0.565548 0.112225
C23   C     C_R   0.461666 0.556509 0.877699 -0.092884
C24   C     C_R   0.042532 0.579209 0.566803 0.371326
C25   C     C_R   0.578569 0.502728 0.299939 0.602774
C26   C     C_R   0.777336 0.622491 0.036944 0.280094
C27   C     C_R   0.622061 0.523958 0.187288 -0.045251
C28   C     C_R   0.233469 0.466415 0.870764 0.369649
C29   C     C_R   0.187759 0.464882 0.979863 -0.018410
C30   C     C_R   0.281325 0.499249 0.038814 0.216176
C31   C     C_R   0.537266 0.547643 0.035322 -0.009566
C32   C     C_R   0.667770 0.610088 0.985573 0.083939
C33   C     C_R   0.681833 0.661853 0.888758 0.257039
C34   C     C_R   0.581624 0.630937 0.834589 -0.107762
C35   C     C_R   0.523651 0.497264 0.131817 -0.072180
C36   C     C_R   0.749846 0.584852 0.139081 -0.066155
Cu1   Cu    Cu3+1 0.359340 0.500010 0.500010 1.084444
Cu2   Cu    Cu3+1 0.640660 0.499990 0.499990 0.963643
F1    F     F_    0.164908 0.158240 0.864015 -0.568825
F2    F     F_    0.956882 0.179520 0.218342 -0.621154
F3    F     F_    0.340027 0.306499 0.338984 -0.581499
F4    F     F_    0.140749 0.425666 0.817671 -0.588258
H1    H     H_    0.829057 0.603143 0.180515 0.173097
H2    H     H_    0.593877 0.671466 0.760656 0.111459
H3    H     H_    0.203169 0.120372 0.164783 0.388172
H4    H     H_    0.781179 0.775648 0.783593 0.334710
H5    H     H_    0.172717 0.655042 0.636115 0.374591
H6    H     H_    0.947391 0.632948 0.917062 0.388908
H7    H     H_    0.123798 0.490008 0.171049 0.320662
H8    H     H_    0.725100 0.909571 0.276107 0.360557
H9    H     H_    0.334790 0.786888 0.693399 0.111616
H10   H     H_    0.187396 0.914581 0.847216 0.180844
H11   H     H_    0.322933 0.246161 0.691262 0.180195
H12   H     H_    0.652594 0.103171 0.351703 0.161970
H13   H     H_    0.818152 0.643419 0.618735 0.123150
H14   H     H_    0.803971 0.331048 0.353894 0.224747
H15   H     H_    0.436586 0.435967 0.165841 0.239771
H16   H     H_    0.078031 0.436584 0.018888 0.169068
N1    N     N_R   0.852480 0.498790 0.499000 -0.266143
N2    N     N_R   0.148360 0.498710 0.498970 -0.236300
O1    O     O_R   0.381190 0.680360 0.500010 -0.525411
O2    O     O_3   0.790611 0.744846 0.849531 -0.638413
O3    O     O_3   0.071193 0.664713 0.638881 -0.687275
O4    O     O_3   0.911911 0.670447 0.990645 -0.639670
O5    O     O_3   0.227522 0.513071 0.147731 -0.705012
O6    O     O_3   0.670176 0.855078 0.330799 -0.671146
O7    O     O_R   0.618760 0.680340 0.500000 -0.487869
O8    O     O_R   0.323240 0.499990 0.650990 -0.475740
O9    O     O_R   0.560820 0.499960 0.650980 -0.519404
O10   O     O_R   0.381240 0.319660 0.500000 -0.418985
O11   O     O_R   0.618810 0.319640 0.499990 -0.527187
O12   O     O_R   0.439180 0.500040 0.349020 -0.418423
O13   O     O_R   0.676760 0.500010 0.349010 -0.524657
O14   O     O_3   0.251380 0.168544 0.210110 -0.604653

loop_
_geom_bond_atom_site_label_1
_geom_bond_atom_site_label_2
_ccdc_geom_bond_type
C26   C32   A    
C19   C20   A    
C7    C8    A    
C12   C23   A    
C29   C30   A    
H7    O5    S    
H4    O2    S    
C28   C29   A    
C21   N1    A    
H5    O3    S    
C5    C6    A    
H6    O4    S    
Cu1   O8    S    
C18   C19   A    
C26   O4    S    
C8    C9    A    
C5    H10   S    
C14   C16   S    
C20   N2    A    
C9    C10   A    
C25   O13   A    
C11   O6    S    
Cu2   O9    S    
C18   O14   S    
C13   C14   A    
C16   O11   A    
C4    O9    A    
C33   C34   A    
C30   O5    S    
C16   O10   A    
C22   N1    A    
C4    O8    A    
C3    H9    S    
C33   O2    S    
C27   C35   A    
H3    O14   S    
C17   F2    S    
C2    C4    S    
Cu1   Cu2   S    
C3    C9    A    
C31   C32   A    
C24   N2    A    
C23   C34   A    
C20   C21   A    
C17   C18   A    
C34   H2    S    
C25   O12   A    
C29   H16   S    
H8    O6    S    
C22   H13   S    
C26   C36   A    
C24   O3    S    
C12   C31   A    
C22   C24   A    
C7    H11   S    
C13   H12   S    
C15   C17   A    
Cu2   O11   S    
C8    C14   A    
C12   C30   A    
C1    C10   S    
C3    C5    A    
C1    O1    A    
Cu1   O1    S    
C6    C7    A    
C27   C36   A    
C25   C27   S    
C35   H15   S    
C32   C33   A    
C15   H14   S    
C11   C13   A    
C28   F4    S    
C1    O7    A    
C31   C35   A    
Cu1   N2    S    
C10   C11   A    
Cu2   N1    S    
C15   C21   A    
Cu2   O7    S    
Cu1   O12   S    
C2    C23   A    
C6    F1    S    
C36   H1    S    
C2    C28   A    
Cu1   O10   S    
C19   F3    S    
Cu2   O13   S    
