data_mof_unit_57715.cif
_audit_creation_date              2012-10-26T19:34:05-0400
_audit_creation_method            fapswitch 2.2
_symmetry_space_group_name_H-M    P1
_symmetry_Int_Tables_number       1
_space_group_crystal_system       triclinic
_cell_length_a                    8.786308
_cell_length_b                    19.508971
_cell_length_c                    18.123315
_cell_angle_alpha                 90.891544
_cell_angle_beta                  97.639909
_cell_angle_gamma                 89.874246
_cell_volume                      3078.60148877

loop_
_atom_site_label
_atom_site_type_symbol
_atom_type_description
_atom_site_fract_x
_atom_site_fract_y
_atom_site_fract_z
_atom_type_partial_charge
C1    C     C_R   0.499018 0.367601 0.499205 0.584769
C2    C     C_R   0.588044 0.453854 0.283886 0.088425
C3    C     C_R   0.393249 0.460643 0.790817 -0.081526
C4    C     C_R   0.590722 0.453369 0.206643 -0.076596
C5    C     C_R   0.497834 0.501097 0.838282 0.033238
C6    C     C_R   0.502414 0.500958 0.161742 0.035195
C7    C     C_R   0.604595 0.540421 0.805791 -0.151074
C8    C     C_R   0.411281 0.547442 0.196691 -0.151587
C9    C     C_R   0.603647 0.539164 0.728297 0.076855
C10   C     C_R   0.411750 0.546086 0.274115 0.082510
C11   C     C_R   0.636974 0.497393 0.968919 -0.134672
C12   C     C_R   0.504399 0.632922 0.500981 0.567853
C13   C     C_R   0.363570 0.506692 0.031191 -0.131508
C14   C     C_R   0.641184 0.498490 0.046983 0.274142
C15   C     C_R   0.359799 0.507940 0.953252 0.274396
C16   C     C_R   0.204047 0.499260 0.481328 0.550907
C17   C     C_R   0.795884 0.500366 0.518672 0.582895
C18   C     C_R   0.502988 0.501687 0.078978 -0.006925
C19   C     C_R   0.497480 0.501864 0.921107 -0.009959
C20   C     C_2   0.040747 0.488670 0.472674 0.003511
C21   C     C_2   0.959186 0.510271 0.527464 -0.009732
C22   C     C_R   0.543534 0.746014 0.439588 0.038121
C23   C     C_R   0.362034 0.964076 0.515214 -0.097733
C24   C     C_R   0.587524 0.255468 0.554892 0.035331
C25   C     C_R   0.527423 0.817590 0.437550 0.233063
C26   C     C_R   0.570714 0.183961 0.558701 0.234575
C27   C     C_R   0.502307 0.854519 0.502089 -0.037247
C28   C     C_R   0.479519 0.148102 0.500945 -0.047190
C29   C     C_R   0.484309 0.819960 0.568109 0.005218
C30   C     C_R   0.397087 0.183534 0.441157 0.011845
C31   C     C_R   0.483930 0.747591 0.568222 0.010372
C32   C     C_R   0.404148 0.255608 0.440047 0.003621
C33   C     C_R   0.510841 0.709601 0.503137 -0.096475
C34   C     C_R   0.616756 0.038882 0.484287 -0.060407
C35   C     C_R   0.498609 0.291890 0.497322 -0.085457
C36   C     C_2   0.977328 0.443115 0.409196 0.577832
C37   C     C_2   0.022166 0.556192 0.590577 0.581993
C38   C     C_3   0.853617 0.557765 0.096062 -0.107161
C39   C     C_3   0.176729 0.581777 0.903062 -0.111625
C40   C     C_2   0.606389 0.711534 0.376492 0.642564
C41   C     C_2   0.706488 0.290950 0.608266 0.637824
C42   C     C_3   0.406307 0.866189 0.332560 -0.066722
C43   C     C_3   0.567081 0.134334 0.671066 -0.055906
C44   C     C_2   0.468656 0.860029 0.637548 0.600716
C45   C     C_R   0.357307 0.035324 0.516364 -0.075971
C46   C     C_2   0.310789 0.145545 0.376993 0.610487
C47   C     C_2   0.465029 0.713384 0.638876 0.648579
C48   C     C_2   0.305152 0.291879 0.380261 0.627854
C49   C     C_R   0.622582 0.967576 0.484422 -0.036276
C50   C     C_R   0.484077 0.072867 0.500195 0.058248
C51   C     C_R   0.495260 0.929909 0.499971 0.068332
C52   C     C_R   0.395949 0.461027 0.713591 0.069943
Cu1   Cu    Cu3+1 0.499960 0.500000 0.573360 1.055607
Cu2   Cu    Cu3+1 0.500040 0.500000 0.426640 1.082563
H1    H     H_    0.687031 0.572591 0.839961 0.093914
H2    H     H_    0.726438 0.941730 0.473124 0.154087
H3    H     H_    0.314973 0.429789 0.677556 0.135232
H4    H     H_    0.655769 0.416902 0.317855 0.170734
H5    H     H_    0.311266 0.428203 0.813188 0.160484
H6    H     H_    0.659712 0.415392 0.182210 0.156932
H7    H     H_    0.955214 0.424017 0.298515 0.326437
H8    H     H_    0.047784 0.575208 0.701263 0.345906
H9    H     H_    0.781034 0.597957 0.118339 0.124108
H10   H     H_    0.884494 0.572886 0.040990 0.106491
H11   H     H_    0.961871 0.554284 0.135051 0.156022
H12   H     H_    0.341456 0.585095 0.164498 0.092774
H13   H     H_    0.263160 0.612460 0.878141 0.135960
H14   H     H_    0.158235 0.603838 0.958183 0.103878
H15   H     H_    0.066360 0.585403 0.865672 0.149827
H16   H     H_    0.588882 0.693885 0.265742 0.331241
H17   H     H_    0.876853 0.361103 0.623732 0.345079
H18   H     H_    0.342392 0.905422 0.361212 0.124895
H19   H     H_    0.335067 0.819095 0.321283 0.152694
H20   H     H_    0.425296 0.887254 0.278031 0.162771
H21   H     H_    0.514995 0.181831 0.691674 0.142835
H22   H     H_    0.641329 0.111723 0.718837 0.167313
H23   H     H_    0.685450 0.569947 0.703784 0.166546
H24   H     H_    0.475681 0.096439 0.651931 0.116056
H25   H     H_    0.547899 0.937338 0.707402 0.341049
H26   H     H_    0.276546 0.129567 0.265798 0.347588
H27   H     H_    0.558186 0.691229 0.743480 0.326728
H28   H     H_    0.089927 0.312267 0.332547 0.355390
H29   H     H_    0.341709 0.582227 0.300477 0.149582
H30   H     H_    0.743910 0.492315 0.945673 0.144673
H31   H     H_    0.256093 0.509133 0.054312 0.136672
H32   H     H_    0.262803 0.935455 0.527041 0.131281
H33   H     H_    0.715551 0.067673 0.472191 0.149510
H34   H     H_    0.255123 0.061314 0.529703 0.148517
N1    N     N_R   0.499980 0.500020 0.683620 -0.224950
N2    N     N_R   0.500020 0.499980 0.316380 -0.223919
O1    O     O_R   0.499930 0.400180 0.561970 -0.506913
O2    O     O_R   0.004731 0.458270 0.336963 -0.673585
O3    O     O_2   0.089186 0.608838 0.578412 -0.445435
O4    O     O_R   0.000369 0.540020 0.663321 -0.695608
O5    O     O_3   0.780712 0.493263 0.091853 -0.561341
O6    O     O_3   0.219814 0.512239 0.908692 -0.564547
O7    O     O_2   0.722388 0.676471 0.388479 -0.490599
O8    O     O_R   0.535040 0.720022 0.303568 -0.697849
O9    O     O_2   0.723880 0.276394 0.674220 -0.492208
O10   O     O_R   0.800539 0.340520 0.582492 -0.655565
O11   O     O_3   0.550626 0.852115 0.373740 -0.543405
O12   O     O_R   0.500070 0.599820 0.438030 -0.497782
O13   O     O_3   0.658354 0.148074 0.614532 -0.528082
O14   O     O_2   0.365621 0.846836 0.674291 -0.478834
O15   O     O_R   0.571259 0.913371 0.660156 -0.675648
O16   O     O_2   0.210060 0.104916 0.386873 -0.512995
O17   O     O_R   0.343206 0.157811 0.304903 -0.655053
O18   O     O_2   0.342631 0.686668 0.646631 -0.432424
O19   O     O_R   0.585931 0.714337 0.697363 -0.683022
O20   O     O_2   0.362178 0.320052 0.330737 -0.466946
O21   O     O_R   0.145785 0.289172 0.378045 -0.646457
O22   O     O_R   0.500010 0.400190 0.438070 -0.462019
O23   O     O_R   0.499990 0.599810 0.561930 -0.474370
O24   O     O_R   0.274810 0.500000 0.547650 -0.505515
O25   O     O_R   0.725190 0.500000 0.452350 -0.486132
O26   O     O_R   0.274880 0.500000 0.423750 -0.472343
O27   O     O_R   0.725120 0.500000 0.576250 -0.477531
O28   O     O_2   0.904330 0.391871 0.420507 -0.479757

loop_
_geom_bond_atom_site_label_1
_geom_bond_atom_site_label_2
_ccdc_geom_bond_type
C48   O20   D    
C8    H12   S    
C23   C45   A    
C27   C29   A    
C39   H14   S    
C14   C18   A    
C7    H1    S    
C44   O14   D    
C44   O15   S    
C43   H24   S    
C15   C19   A    
H26   O17   S    
C11   C19   A    
C13   C18   A    
C24   C26   A    
Cu2   N2    S    
C1    O22   A    
C40   O8    S    
C17   O25   A    
C11   C14   A    
Cu1   O27   S    
C10   H29   S    
H25   O15   S    
C2    N2    A    
C28   C50   S    
Cu1   O23   S    
C49   C51   A    
C23   H32   S    
Cu2   O26   S    
C38   O5    S    
Cu1   O1    S    
C41   O9    D    
C36   O28   D    
H7    O2    S    
C17   O27   A    
C36   O2    S    
C1    O1    A    
C31   C47   S    
Cu2   O25   S    
C24   C41   S    
C32   C48   S    
C52   N1    A    
C16   O26   A    
C42   H18   S    
C27   C51   S    
C38   H10   S    
C43   H21   S    
C6    C18   S    
C34   C50   A    
C24   C35   A    
C42   H20   S    
Cu2   O22   S    
C32   C35   A    
C45   H34   S    
C4    C6    A    
C9    N1    A    
C40   O7    D    
C5    C7    A    
C6    C8    A    
C47   O19   S    
C22   C25   A    
C17   C21   S    
C2    C4    A    
C12   O12   A    
C26   O13   S    
C23   C51   A    
C38   H11   S    
C16   C20   S    
C22   C40   S    
C46   O17   S    
C4    H6    S    
C31   C33   A    
C39   H15   S    
C41   O10   S    
C37   O3    D    
C9    H23   S    
H27   O19   S    
H8    O4    S    
C29   C44   S    
Cu1   N1    S    
C42   O11   S    
C14   O5    S    
C15   O6    S    
Cu1   O24   S    
C1    C35   S    
C38   H9    S    
C43   H22   S    
C7    C9    A    
C22   C33   A    
C42   H19   S    
C39   H13   S    
Cu2   O12   S    
C3    C5    A    
C16   O24   A    
C3    C52   A    
C2    H4    S    
Cu1   Cu2   S    
C5    C19   S    
C11   H30   S    
C25   C27   A    
C49   H2    S    
H17   O10   S    
C26   C28   A    
C30   C46   S    
H28   O21   S    
C13   C15   A    
C29   C31   A    
C30   C32   A    
C25   O11   S    
C45   C50   A    
C46   O16   D    
C28   C30   A    
C37   O4    S    
C12   O23   A    
C34   H33   S    
C43   O13   S    
C39   O6    S    
C52   H3    S    
C20   C36   S    
C48   O21   S    
C21   C37   S    
C20   C21   D    
C10   N2    A    
C34   C49   A    
C8    C10   A    
C47   O18   D    
C13   H31   S    
C12   C33   S    
H16   O8    S    
C3    H5    S    
