data_mof_unit_7822.cif
_audit_creation_date              2012-12-10T20:24:50-0500
_audit_creation_method            fapswitch 2.2
_symmetry_space_group_name_H-M    P1
_symmetry_Int_Tables_number       1
_space_group_crystal_system       triclinic
_cell_length_a                    10.715898
_cell_length_b                    19.203666
_cell_length_c                    18.553453
_cell_angle_alpha                 88.52045
_cell_angle_beta                  89.359218
_cell_angle_gamma                 90.582388
_cell_volume                      3816.29325093

loop_
_atom_site_label
_atom_site_type_symbol
_atom_type_description
_atom_site_fract_x
_atom_site_fract_y
_atom_site_fract_z
_atom_type_partial_charge
C1    C     C_R   0.502028 0.365687 0.500733 0.866154
C2    C     C_R   0.479052 0.177980 0.558667 0.454097
C3    C     C_R   0.553207 0.853476 0.493971 0.064728
C4    C     C_R   0.545550 0.147548 0.502244 0.077610
C5    C     C_R   0.523919 0.818713 0.559172 -0.156520
C6    C     C_R   0.598272 0.188433 0.446331 -0.148619
C7    C     C_R   0.505888 0.747142 0.560842 -0.207940
C8    C     C_R   0.583125 0.259962 0.445833 -0.178378
C9    C     C_R   0.516710 0.709963 0.497112 -0.118103
C10   C     C_R   0.515913 0.290744 0.501610 -0.085440
C11   C     C_R   0.657129 0.965146 0.524092 0.434459
C12   C     C_R   0.502355 0.634521 0.499117 0.873899
C13   C     C_R   0.452983 0.036501 0.465066 0.453390
C14   C     C_R   0.653179 0.037394 0.526139 -0.242677
C15   C     C_R   0.457021 0.964579 0.463011 -0.212387
C16   C     C_R   0.260195 0.502767 0.500145 0.869098
C17   C     C_R   0.739811 0.497168 0.499941 0.865552
C18   C     C_R   0.550895 0.072694 0.497429 -0.044206
C19   C     C_R   0.558037 0.928894 0.492677 -0.027815
C20   C     C_R   0.505618 0.562045 0.723369 -0.101629
C21   C     C_R   0.391204 0.485451 0.276546 -0.072802
C22   C     C_R   0.497876 0.565082 0.798737 -0.394093
C23   C     C_R   0.872376 0.495446 0.500014 -0.084109
C24   C     C_R   0.383574 0.489086 0.201122 -0.385012
C25   C     C_R   0.493219 0.503696 0.841654 0.021569
C26   C     C_R   0.490617 0.503036 0.158508 0.018376
C27   C     C_R   0.496514 0.439322 0.806693 0.404473
C28   C     C_R   0.605439 0.512384 0.193707 0.418766
C29   C     C_R   0.487981 0.439171 0.729793 0.537091
C30   C     C_R   0.605552 0.516278 0.270550 0.529001
C31   C     C_R   0.404036 0.461399 0.964172 0.601961
C32   C     C_R   0.547483 0.559789 0.035886 0.593382
C33   C     C_R   0.409172 0.459585 0.039997 -0.365122
C34   C     C_R   0.127721 0.504906 0.500540 -0.078490
C35   C     C_R   0.552897 0.556818 0.960185 -0.372659
C36   C     C_R   0.483008 0.507324 0.077252 -0.002945
C37   C     C_R   0.484034 0.506819 0.922899 -0.002306
C38   C     C_R   0.236792 0.680943 0.338799 0.586860
C39   C     C_R   0.768954 0.314079 0.655125 0.616208
C40   C     C_R   0.191241 0.638164 0.396562 -0.237881
C41   C     C_R   0.819855 0.357234 0.600016 -0.200441
C42   C     C_R   0.121630 0.577689 0.382917 0.082494
C43   C     C_R   0.876257 0.421271 0.615571 0.056272
C44   C     C_R   0.099233 0.559592 0.311308 -0.184078
C45   C     C_R   0.937408 0.463846 0.557377 0.036874
C46   C     C_R   0.878615 0.443450 0.686909 -0.157588
C47   C     C_R   0.148626 0.600195 0.254209 -0.262802
C48   C     C_R   0.823821 0.402408 0.741994 -0.214298
C49   C     C_R   0.218385 0.660050 0.267939 -0.158195
C50   C     C_R   0.769137 0.338211 0.726645 -0.194200
C51   C     C_R   0.934558 0.530864 0.443802 -0.232387
C52   C     C_R   0.065457 0.469974 0.557483 -0.247805
C53   C     C_3   0.456648 0.321523 0.836095 -0.135756
C54   C     C_3   0.804233 0.556376 0.163017 -0.145984
C55   C     C_3   0.328407 0.372671 0.689279 -0.342851
C56   C     C_R   0.062435 0.536409 0.443048 0.023478
C57   C     C_3   0.709936 0.609626 0.314637 -0.335736
C58   C     C_3   0.211813 0.453909 0.915478 -0.380312
C59   C     C_3   0.520726 0.665514 0.084723 -0.356245
C60   C     C_3   0.239675 0.785331 0.397026 -0.256430
C61   C     C_3   0.721762 0.198933 0.689659 -0.263786
C62   C     C_R   0.547395 0.744990 0.431945 -0.191215
C63   C     C_R   0.464953 0.249749 0.558153 -0.147141
C64   C     C_R   0.565443 0.816660 0.430023 0.428390
Cl1   Cl    Cl    0.786366 0.921621 0.560973 -0.575835
Cl2   Cl    Cl    0.323400 0.079696 0.427956 -0.550545
Cl3   Cl    Cl    0.602346 0.858767 0.346929 -0.579090
Cl4   Cl    Cl    0.410953 0.127567 0.629647 -0.613369
H1    H     H_    0.255872 0.691338 0.223232 0.153158
H2    H     H_    0.293982 0.480564 0.176273 0.181153
H3    H     H_    0.354000 0.420680 0.069626 0.195254
H4    H     H_    0.610817 0.594520 0.930658 0.191087
H5    H     H_    0.207831 0.652269 0.451769 0.117014
H6    H     H_    0.818253 0.339905 0.544897 0.139524
H7    H     H_    0.044385 0.513598 0.299801 0.161861
H8    H     H_    0.921999 0.492742 0.699658 0.147902
H9    H     H_    0.132479 0.585348 0.199180 0.153906
H10   H     H_    0.823998 0.420291 0.796848 0.176097
H11   H     H_    0.883384 0.556712 0.401419 0.197337
H12   H     H_    0.727193 0.308156 0.770755 0.157669
H13   H     H_    0.116693 0.444802 0.600722 0.147543
H14   H     H_    0.556315 0.717058 0.382318 0.188202
H15   H     H_    0.412925 0.273090 0.601088 0.184132
H16   H     H_    0.512656 0.847319 0.608376 0.178625
H17   H     H_    0.648629 0.164714 0.402498 0.172929
H18   H     H_    0.494535 0.291391 0.790754 0.179255
H19   H     H_    0.356636 0.334074 0.828459 0.180711
H20   H     H_    0.461215 0.287001 0.884822 0.185692
H21   H     H_    0.868466 0.541121 0.206998 0.176225
H22   H     H_    0.762603 0.608278 0.171912 0.175035
H23   H     H_    0.482580 0.721131 0.611765 0.163378
H24   H     H_    0.861904 0.561587 0.113117 0.173411
H25   H     H_    0.301218 0.385761 0.633310 0.209232
H26   H     H_    0.273145 0.405240 0.726884 0.120417
H27   H     H_    0.299684 0.317751 0.700391 0.180355
H28   H     H_    0.698413 0.620479 0.372516 0.209229
H29   H     H_    0.636955 0.638265 0.283540 0.141516
H30   H     H_    0.801887 0.632172 0.298029 0.168073
H31   H     H_    0.230562 0.498158 0.876827 0.161749
H32   H     H_    0.166374 0.472809 0.965467 0.175927
H33   H     H_    0.145114 0.418080 0.889552 0.201498
H34   H     H_    0.624294 0.291236 0.402141 0.170183
H35   H     H_    0.449189 0.645748 0.124321 0.159059
H36   H     H_    0.475092 0.686019 0.035011 0.174667
H37   H     H_    0.570312 0.709625 0.109646 0.216149
H38   H     H_    0.258553 0.769697 0.453878 0.160202
H39   H     H_    0.137297 0.786443 0.387063 0.169558
H40   H     H_    0.275447 0.839262 0.388491 0.213537
H41   H     H_    0.646005 0.205688 0.730137 0.179998
H42   H     H_    0.814954 0.197248 0.715601 0.155475
H43   H     H_    0.706159 0.147668 0.664884 0.218417
H44   H     H_    0.728610 0.066001 0.550677 0.194711
H45   H     H_    0.380372 0.936295 0.439471 0.181410
H46   H     H_    0.512077 0.610176 0.692203 0.176470
H47   H     H_    0.308506 0.472276 0.307906 0.188760
H48   H     H_    0.495957 0.615586 0.823292 0.186291
N1    N     N_R   0.500020 0.499980 0.689440 -0.141240
N2    N     N_R   0.499980 0.500020 0.310560 -0.147268
O1    O     O_R   0.500010 0.398180 0.560840 -0.561833
O2    O     O_3   0.714134 0.503593 0.153046 -0.592431
O3    O     O_3   0.459932 0.378181 0.696001 -0.600760
O4    O     O_3   0.712383 0.536597 0.305047 -0.610679
O5    O     O_3   0.321582 0.416980 0.931347 -0.599966
O6    O     O_3   0.608627 0.613910 0.068513 -0.610030
O7    O     O_3   0.303849 0.741866 0.349193 -0.616183
O8    O     O_3   0.715901 0.251151 0.634944 -0.624021
O9    O     O_R   0.499990 0.601820 0.439160 -0.624026
O10   O     O_R   0.499950 0.398180 0.439210 -0.615192
O11   O     O_R   0.500050 0.601820 0.560790 -0.632215
O12   O     O_R   0.316790 0.500010 0.560810 -0.633755
O13   O     O_R   0.683210 0.499990 0.439190 -0.570719
O14   O     O_R   0.316730 0.500000 0.439190 -0.620720
O15   O     O_R   0.683270 0.500000 0.560810 -0.605120
O16   O     O_3   0.531250 0.380965 0.847823 -0.613109
Zn1   Zn    Zn3+2 0.500040 0.500000 0.581210 0.977971
Zn2   Zn    Zn3+2 0.499960 0.500000 0.418790 0.982352

loop_
_geom_bond_atom_site_label_1
_geom_bond_atom_site_label_2
_ccdc_geom_bond_type
C38   C40   A    
C55   O3    S    
C34   C56   A    
C23   C45   A    
C54   O2    S    
C17   O13   A    
C14   C18   A    
C2    C4    A    
C10   C63   A    
C1    O10   A    
C21   H47   S    
C61   H41   S    
C46   H8    S    
C24   H2    S    
C39   C41   A    
C38   C49   A    
C3    C64   A    
C15   C19   A    
C11   C19   A    
C58   O5    S    
C59   H37   S    
C6    H17   S    
C13   C18   A    
C59   H36   S    
C32   C36   A    
C60   O7    S    
C35   C37   A    
C24   C26   A    
C54   H22   S    
C2    Cl4   S    
O10   Zn2   S    
C11   C14   A    
C27   C29   A    
C33   C36   A    
C40   H5    S    
C51   C56   A    
C1    O1    A    
C48   H10   S    
C32   O6    S    
C62   C64   A    
C42   C56   S    
C41   H6    S    
O11   Zn1   S    
C30   O4    S    
C57   H28   S    
C29   O3    S    
C15   H45   S    
C3    C19   S    
C53   H18   S    
C16   O12   A    
C60   H40   S    
C44   C47   A    
C55   H25   S    
C25   C37   S    
C22   H48   S    
C57   O4    S    
C7    H23   S    
C39   O8    S    
C49   H1    S    
C41   C43   A    
C42   C44   A    
C55   H26   S    
C61   H42   S    
C47   C49   A    
C20   N1    A    
C43   C46   A    
C53   O16   S    
C13   Cl2   S    
C46   C48   A    
C12   O11   A    
C58   H31   S    
C9    C62   A    
C64   Cl3   S    
C58   H32   S    
O9    Zn2   S    
C54   H21   S    
C55   H27   S    
O13   Zn2   S    
C28   O2    S    
C12   O9    A    
C5    H16   S    
C6    C8    A    
C30   N2    A    
C45   C52   A    
C29   N1    A    
C22   C25   A    
O1    Zn1   S    
C31   C37   A    
C63   H15   S    
C44   H7    S    
C14   H44   S    
C32   C35   A    
C54   H24   S    
C21   N2    A    
C23   C51   A    
O14   Zn2   S    
C57   H29   S    
C31   C33   A    
C53   H19   S    
C58   H33   S    
C17   C23   S    
C43   C45   S    
C61   O8    S    
C60   H39   S    
C4    C6    A    
O12   Zn1   S    
C20   C22   A    
C35   H4    S    
C13   C15   A    
C17   O15   A    
C47   H9    S    
C61   H43   S    
C38   O7    S    
N2    Zn2   S    
C2    C63   A    
C5    C7    A    
C26   C36   S    
C59   O6    S    
C7    C9    A    
C27   O16   S    
C34   C52   A    
C1    C10   S    
C40   C42   A    
C3    C5    A    
C50   H12   S    
C60   H38   S    
C25   C27   A    
C26   C28   A    
C16   C34   S    
C59   H35   S    
C28   C30   A    
C4    C18   S    
C20   H46   S    
C57   H30   S    
C48   C50   A    
C53   H20   S    
C62   H14   S    
C52   H13   S    
C16   O14   A    
C9    C12   S    
C51   H11   S    
C33   H3    S    
C31   O5    S    
C39   C50   A    
C8    C10   A    
C21   C24   A    
O15   Zn1   S    
C8    H34   S    
C11   Cl1   S    
N1    Zn1   S    
