data_mof_unit_59153.cif
_audit_creation_date              2013-03-05T16:19:41-0500
_audit_creation_method            fapswitch 2.2
_symmetry_space_group_name_H-M    P1
_symmetry_Int_Tables_number       1
_space_group_crystal_system       triclinic
_cell_length_a                    10.634787
_cell_length_b                    9.717612
_cell_length_c                    27.697609
_cell_angle_alpha                 89.905188
_cell_angle_beta                  89.982448
_cell_angle_gamma                 90.044457
_cell_volume                      2862.39711198

loop_
_atom_site_label
_atom_site_type_symbol
_atom_site_description
_atom_site_fract_x
_atom_site_fract_y
_atom_site_fract_z
_atom_type_partial_charge
O1    O     O_R   0.314910 0.616040 0.499990 -0.604930
O2    O     O_R   0.314910 0.383960 0.499990 -0.619946
C1    C     C_R   0.257924 0.499837 0.501030 0.949274
O3    O     O_R   0.500140 0.616020 0.428740 -0.629996
O4    O     O_R   0.500140 0.383980 0.428740 -0.631075
C2    C     C_R   0.500408 0.500189 0.405972 0.892033
Zn1   Zn    Zn3+2 0.500150 0.654960 0.499980 0.984066
Zn2   Zn    Zn3+2 0.500150 0.345040 0.499980 0.998919
O5    O     O_R   0.685320 0.616040 0.499970 -0.627253
O6    O     O_R   0.685320 0.383960 0.499970 -0.619934
O7    O     O_R   0.500090 0.616050 0.571230 -0.557530
O8    O     O_R   0.500090 0.383950 0.571230 -0.506362
C3    C     C_R   0.742470 0.499919 0.499821 0.894021
C4    C     C_R   0.500100 0.499911 0.593910 0.959852
C5    C     C_R   0.402168 0.452947 0.177197 0.514505
O9    O     O_2   0.307179 0.393858 0.202082 -0.552002
N1    N     N_R   0.502549 0.507654 0.201249 -0.357644
C6    C     C_R   0.600476 0.568363 0.177380 0.505093
C7    C     C_R   0.515966 0.380027 0.277290 -0.093406
C8    C     C_R   0.514930 0.377964 0.327478 -0.217637
C9    C     C_R   0.489484 0.626504 0.328342 -0.208583
C10   C     C_R   0.490155 0.628154 0.278254 -0.100829
C11   C     C_R   0.503361 0.505102 0.252706 0.311953
C12   C     C_R   0.495656 0.523864 0.101421 -0.053021
C13   C     C_R   0.396872 0.459839 0.126805 -0.021381
C14   C     C_R   0.296373 0.402384 0.101409 -0.165681
C15   C     C_R   0.599037 0.577437 0.126992 -0.020953
C16   C     C_R   0.501533 0.501323 0.353287 -0.036362
H1    H     H_    0.478820 0.722986 0.347440 0.158134
H2    H     H_    0.479817 0.724859 0.259175 0.143975
H3    H     H_    0.222083 0.347169 0.119948 0.196584
C17   C     C_R   0.496364 0.500633 0.646504 -0.119458
C18   C     C_R   0.375186 0.506935 0.974775 -0.007892
C19   C     C_R   0.597647 0.580886 0.974125 0.071175
C20   C     C_R   0.486179 0.543132 0.949172 0.007475
C21   C     C_R   0.260379 0.494108 0.948743 0.424694
C22   C     C_R   0.262728 0.490856 0.898168 -0.239786
C23   C     C_R   0.375027 0.509590 0.872893 -0.076942
C24   C     C_R   0.486075 0.540718 0.898164 -0.056234
C25   C     C_R   0.597403 0.568294 0.872322 -0.024462
C26   C     C_R   0.596224 0.560430 0.821934 0.589795
N2    N     N_R   0.488229 0.525194 0.798282 -0.328647
C27   C     C_R   0.378372 0.501238 0.822467 0.559804
C28   C     C_R   0.425254 0.611496 0.719424 -0.187112
C29   C     C_R   0.426356 0.603093 0.669585 -0.287187
C30   C     C_R   0.564650 0.403398 0.673631 0.292316
C31   C     C_R   0.556569 0.406859 0.724672 0.391889
C32   C     C_R   0.490307 0.514489 0.746904 0.237968
O10   O     O_2   0.273282 0.468015 0.797750 -0.544372
C33   C     C_R   0.383458 0.486478 0.025378 0.060206
C34   C     C_R   0.491504 0.533307 0.050482 0.058191
C35   C     C_R   0.596241 0.587414 0.025122 0.045728
C36   C     C_R   0.290625 0.413709 0.051513 -0.129701
H4    H     H_    0.372327 0.676879 0.648959 0.200028
H5    H     H_    0.372931 0.693002 0.736901 0.180397
H6    H     H_    0.175548 0.476191 0.878593 0.192602
H7    H     H_    0.215472 0.358511 0.033971 0.206118
O11   O     O_2   0.698987 0.619130 0.202421 -0.556349
C37   C     C_R   0.697954 0.639406 0.101878 -0.126339
H8    H     H_    0.524935 0.280299 0.345980 0.152655
H9    H     H_    0.526499 0.284794 0.257450 0.144114
H10   H     H_    0.777299 0.683835 0.120815 0.194281
C38   C     C_R   0.707793 0.607990 0.947157 -0.204904
C39   C     C_R   0.707469 0.601511 0.897162 -0.128117
O12   O     O_2   0.701900 0.587847 0.796646 -0.531280
C40   C     C_R   0.696971 0.644100 0.051806 -0.207714
H11   H     H_    0.797312 0.629524 0.963762 0.150079
H12   H     H_    0.794513 0.621658 0.878064 0.191065
H13   H     H_    0.775318 0.695791 0.034976 0.152575
C41   C     C_3   0.071163 0.601254 0.537976 -0.531643
C42   C     C_3   0.071091 0.354069 0.512494 -0.465668
H14   H     H_    0.113549 0.705553 0.535160 0.203573
H15   H     H_    0.097999 0.277618 0.484453 0.217596
H16   H     H_    0.095812 0.562806 0.574687 0.210579
H17   H     H_    0.111593 0.317921 0.547377 0.203916
C43   C     C_3   0.928495 0.611496 0.533401 -0.450561
C44   C     C_3   0.928707 0.358668 0.516932 -0.431707
H18   H     H_    0.885642 0.596843 0.569770 0.211456
H19   H     H_    0.901663 0.345458 0.555542 0.219276
H20   H     H_    0.902508 0.716939 0.521696 0.184152
H21   H     H_    0.888023 0.269151 0.497491 0.187668
C45   C     C_3   0.077424 0.539789 0.446823 0.801271
C46   C     C_3   0.121781 0.499741 0.499316 0.045271
C47   C     C_3   0.878997 0.499873 0.497727 0.084525
C48   C     C_3   0.928179 0.526960 0.444131 0.245182
C49   C     C_3   0.378406 0.081224 0.480686 -0.322713
C50   C     C_3   0.379466 0.918682 0.479585 -0.288975
H22   H     H_    0.359138 0.121698 0.443816 0.181610
H23   H     H_    0.364506 0.882347 0.441927 0.186086
H24   H     H_    0.298586 0.116949 0.503303 0.206571
H25   H     H_    0.297684 0.878910 0.500306 0.209986
H26   H     H_    0.579956 0.117263 0.428586 0.195614
H27   H     H_    0.585073 0.881370 0.429353 0.201188
C51   C     C_3   0.597911 0.081520 0.466152 -0.409646
C52   C     C_3   0.599424 0.919550 0.466811 -0.426113
C53   C     C_3   0.519093 0.082616 0.548941 0.810901
C54   C     C_3   0.515162 0.917054 0.549228 0.786370
N3    N     N_3   0.499750 0.138610 0.498940 -0.079271
N4    N     N_3   0.499750 0.861390 0.498940 -0.079904
H28   H     H_    0.692272 0.123204 0.474668 0.167067
H29   H     H_    0.694063 0.881312 0.476438 0.160562
O13   O     O_3   0.642123 0.312377 0.649611 -0.718672
H30   H     H_    0.711995 0.285267 0.671226 0.351042
O14   O     O_3   0.610137 0.307440 0.753787 -0.743056
H31   H     H_    0.616175 0.220494 0.735345 0.343344
O15   O     O_3   0.120359 0.673765 0.434781 -0.793628
H32   H     H_    0.084877 0.741358 0.457661 0.312411
O16   O     O_3   0.134994 0.447562 0.414232 -0.791519
H33   H     H_    0.128430 0.487933 0.381361 0.365462
C55   C     C_3   0.868189 0.657888 0.420942 -0.870819
H34   H     H_    0.877348 0.750544 0.443794 0.212404
H35   H     H_    0.913346 0.680641 0.385624 0.269659
H36   H     H_    0.766466 0.642657 0.413605 0.245833
C56   C     C_3   0.887615 0.405958 0.410360 -0.853554
H37   H     H_    0.911326 0.429239 0.372124 0.257553
H38   H     H_    0.935084 0.307914 0.419637 0.248770
H39   H     H_    0.784508 0.388464 0.411800 0.224639
O17   O     O_3   0.632666 0.134318 0.568504 -0.703299
H40   H     H_    0.705572 0.096761 0.550867 0.285964
O18   O     O_3   0.622813 0.860316 0.571867 -0.750979
H41   H     H_    0.698353 0.874348 0.551851 0.293905
O19   O     O_3   0.420341 0.132259 0.578216 -0.743989
H42   H     H_    0.446625 0.123748 0.612507 0.361968
O20   O     O_3   0.410327 0.873270 0.576560 -0.758178
H43   H     H_    0.430635 0.886259 0.611246 0.343707
O21   O     O_3   0.146317 0.496518 0.972710 -0.788314
H44   H     H_    0.076455 0.489201 0.949133 0.334583

loop_
_geom_bond_atom_site_label_1
_geom_bond_atom_site_label_2
_geom_bond_distance
_ccdc_geom_bond_type
C42   H17   1.114330 S    
O21   H44   0.991906 S    
C50   H25   1.110684 S    
C26   N2    1.366034 A    
C20   C24   1.413034 A    
C7    C8    1.390234 A    
C12   C15   1.407919 A    
C43   C47   1.559803 S    
C56   H37   1.111437 S    
C28   C29   1.383013 A    
Zn1   O7    2.008739 S    
C30   O13   1.380775 S    
C3    C47   1.453071 S    
N1    C11   1.425423 S    
Zn1   N4    2.006175 S    
C39   H12   1.083572 S    
C53   O17   1.416054 S    
C48   C56   1.564202 S    
C43   H18   1.114383 S    
C54   O20   1.412374 S    
C37   C40   1.387589 A    
C23   C24   1.405979 A    
O7    C4    1.290731 A    
C49   H22   1.112857 S    
C5    C13   1.398387 A    
C40   H13   1.078054 S    
O15   H32   0.988454 S    
C51   N3    1.491402 S    
C5    O9    1.350050 S    
C18   C21   1.423632 A    
O16   H33   0.993255 S    
C5    N1    1.366299 A    
C19   C20   1.420633 A    
C17   C29   1.399035 A    
O5    C3    1.282112 A    
C55   H34   1.105704 S    
Zn2   N3    2.006263 S    
O17   H40   0.986813 S    
C22   H6    1.083616 S    
C6    O11   1.350096 S    
C2    C16   1.459312 S    
C53   N3    1.501416 S    
C41   H16   1.114127 S    
C44   H21   1.111280 S    
C8    H8    1.083163 S    
C42   C46   1.557147 S    
C12   C34   1.414420 A    
C14   H3    1.083486 S    
H27   C52   1.112935 S    
C9    C10   1.387403 A    
O13   H30   0.989960 S    
O3    Zn1   2.009749 S    
O14   H31   0.990141 S    
C54   N4    1.503996 S    
C33   C34   1.418315 A    
C50   N4    1.494738 S    
C44   H19   1.114520 S    
C38   H11   1.077929 S    
C33   C36   1.412636 A    
C34   C35   1.417018 A    
C12   C13   1.407880 A    
O3    C2    1.291129 A    
C48   C55   1.561128 S    
C49   H24   1.111031 S    
C24   C25   1.408615 A    
C42   H15   1.113175 S    
C36   H7    1.078424 S    
C49   C50   1.579916 S    
C27   O10   1.350031 S    
C26   O12   1.350196 S    
C8    C16   1.404055 A    
C44   C47   1.563382 S    
C18   C33   1.418052 A    
C9    H1    1.083273 S    
O1    C1    1.281432 A    
C7    C11   1.398749 A    
C22   C23   1.395800 A    
C31   C32   1.404527 A    
C51   H28   1.107509 S    
Zn2   O8    2.009968 S    
C53   C54   1.609384 S    
H26   C51   1.112983 S    
N1    C6    1.366398 A    
N2    C32   1.427190 S    
C47   C48   1.595178 S    
C41   C46   1.553530 S    
C55   H36   1.110629 S    
C25   C26   1.397906 A    
C9    C16   1.403954 A    
O8    C4    1.291040 A    
C29   H4    1.081731 S    
C45   O16   1.412838 S    
C50   H23   1.113159 S    
C1    C46   1.448639 S    
N2    C27   1.366175 A    
C14   C36   1.387546 A    
C42   C44   1.519862 S    
C35   C40   1.413574 A    
O18   H41   0.985202 S    
Zn1   O5    2.005522 S    
C30   C31   1.416737 A    
C21   C22   1.401433 A    
C37   H10   1.083500 S    
C31   O14   1.380860 S    
C10   H2    1.083053 S    
O1    Zn1   2.005676 S    
C17   C30   1.408475 A    
C21   O21   1.382841 S    
C6    C15   1.398340 A    
C43   H20   1.109408 S    
C4    C17   1.457283 S    
O6    C3    1.279892 A    
O4    Zn2   2.008519 S    
C56   H38   1.108431 S    
C45   C48   1.593758 S    
C19   C35   1.414079 A    
C25   C39   1.395834 A    
C53   O19   1.412330 S    
C54   O18   1.417088 S    
O2    C1    1.279549 A    
C13   C14   1.396289 A    
C23   C27   1.399612 A    
C15   C37   1.396531 A    
C41   C43   1.525881 S    
C28   H5    1.083087 S    
O4    C2    1.292510 A    
C7    H9    1.082937 S    
C19   C38   1.413431 A    
C18   C20   1.420535 A    
C52   N4    1.493909 S    
C45   O15   1.418554 S    
C51   C52   1.574136 S    
C49   N3    1.494026 S    
C55   H35   1.111422 S    
C56   H39   1.110188 S    
C38   C39   1.386268 A    
C52   H29   1.105702 S    
Zn2   O6    2.004945 S    
C45   C46   1.576936 S    
O2    Zn2   2.006253 S    
C10   C11   1.397608 A    
C41   H14   1.111548 S    
O19   H42   0.993489 S    
C28   C32   1.394831 A    
O20   H43   0.993009 S    
