data_mof_unit_66332.cif
_audit_creation_date              2012-10-26T21:25:33-0400
_audit_creation_method            fapswitch 2.2
_symmetry_space_group_name_H-M    P1
_symmetry_Int_Tables_number       1
_space_group_crystal_system       triclinic
_cell_length_a                    16.017706
_cell_length_b                    14.755651
_cell_length_c                    14.367957
_cell_angle_alpha                 89.999985
_cell_angle_beta                  89.990048
_cell_angle_gamma                 90.000145
_cell_volume                      3395.89071751

loop_
_atom_site_label
_atom_site_type_symbol
_atom_type_description
_atom_site_fract_x
_atom_site_fract_y
_atom_site_fract_z
_atom_type_partial_charge
C1    C     C_1   0.251981 0.499999 0.500027 0.094593
C2    C     C_R   0.659126 0.500000 0.499974 0.551198
C3    C     C_R   0.500000 0.500000 0.330559 0.546037
C4    C     C_R   0.500000 0.500000 0.669441 0.546038
C5    C     C_1   0.499999 0.802742 0.500000 0.151424
C6    C     C_1   0.499999 0.197258 0.500000 0.151547
C7    C     C_1   0.500000 0.500000 0.228390 -0.005138
C8    C     C_1   0.500000 0.500000 0.771610 -0.005143
C9    C     C_1   0.500000 0.500000 0.143117 -0.004297
C10   C     C_1   0.500000 0.500000 0.856883 -0.004302
C11   C     C_1   0.500001 0.500000 0.042636 0.035293
C12   C     C_1   0.748019 0.499999 0.499972 0.094629
C13   C     C_1   0.500001 0.500000 0.957364 0.035291
C14   C     C_R   0.575252 0.952087 0.503865 -0.089956
C15   C     C_R   0.424746 0.047913 0.496127 -0.089697
C16   C     C_R   0.424746 0.952087 0.496135 -0.089948
C17   C     C_R   0.575252 0.047914 0.503874 -0.089701
C18   C     C_R   0.956252 0.583107 0.492919 0.205407
C19   C     C_R   0.043753 0.416839 0.493502 0.205400
C20   C     C_R   0.043748 0.583151 0.506505 0.205411
C21   C     C_R   0.956247 0.416882 0.507062 0.205423
C22   C     C_R   0.912806 0.499995 0.499984 -0.057191
C23   C     C_R   0.087194 0.499996 0.500011 -0.057195
C24   C     C_1   0.822981 0.499996 0.499975 0.141502
C25   C     C_1   0.177019 0.499997 0.500021 0.141470
C26   C     C_R   0.499999 0.902870 0.500000 -0.000927
C27   C     C_R   0.499999 0.097130 0.500000 -0.000537
C28   C     C_R   0.340874 0.500000 0.500026 0.551192
Cu1   Cu    Cu3+1 0.500000 0.589220 0.500000 1.040214
Cu2   Cu    Cu3+1 0.500000 0.410780 0.500000 1.040247
H1    H     H_    0.634262 0.083637 0.506916 0.144708
H2    H     H_    0.365736 0.916364 0.493108 0.145344
H3    H     H_    0.365737 0.083636 0.493084 0.144549
H4    H     H_    0.634263 0.916365 0.506892 0.145479
H5    H     H_    0.213898 0.717777 0.606822 0.372635
H6    H     H_    0.785991 0.282940 0.608166 0.372320
H7    H     H_    0.786060 0.717046 0.391746 0.372653
H8    H     H_    0.214102 0.282305 0.393470 0.372252
N1    N     N_1   0.500000 0.276710 0.500000 -0.174331
N2    N     N_1   0.500000 0.723290 0.500000 -0.174314
O1    O     O_R   0.380310 0.575320 0.500020 -0.480223
O2    O     O_2   0.044026 0.752383 0.581981 -0.155806
O3    O     O_3   0.179634 0.661893 0.606347 -0.536247
O4    O     O_2   0.866793 0.274578 0.447386 -0.234314
O5    O     O_2   0.955922 0.248144 0.583695 -0.155894
O6    O     O_3   0.820300 0.338789 0.607391 -0.536450
O7    O     O_2   0.866760 0.725410 0.552562 -0.234733
O8    O     O_2   0.955972 0.751844 0.416285 -0.155796
O9    O     O_3   0.820366 0.661195 0.392541 -0.536300
O10   O     O_2   0.133205 0.274930 0.554160 -0.234404
O11   O     O_2   0.044081 0.247603 0.418033 -0.155748
O12   O     O_R   0.619690 0.424680 0.499980 -0.480224
O13   O     O_3   0.179703 0.338094 0.393715 -0.536346
O14   O     O_R   0.619690 0.575320 0.499980 -0.480268
O15   O     O_R   0.380310 0.424680 0.500020 -0.480277
O16   O     O_R   0.500000 0.575360 0.376050 -0.474296
O17   O     O_R   0.500000 0.424640 0.623950 -0.474285
O18   O     O_R   0.500000 0.575360 0.623950 -0.474287
O19   O     O_R   0.500000 0.424640 0.376050 -0.474279
O20   O     O_2   0.133240 0.725066 0.445889 -0.234697
S1    S     S_3+6 0.099536 0.684681 0.534289 0.088828
S2    S     S_3+6 0.900443 0.315536 0.535521 0.088802
S3    S     S_3+6 0.900463 0.684453 0.464440 0.088838
S4    S     S_3+6 0.099558 0.315309 0.465743 0.088824

loop_
_geom_bond_atom_site_label_1
_geom_bond_atom_site_label_2
_ccdc_geom_bond_type
C4    O17   A    
C14   H4    S    
C1    C28   S    
C19   C23   A    
C10   C13   S    
H6    O6    S    
Cu1   Cu2   S    
O9    S3    S    
Cu1   O16   S    
C16   H2    S    
H7    O9    S    
Cu2   O15   S    
O5    S2    D    
C15   C27   A    
C6    C27   S    
O2    S1    D    
C20   C23   A    
C19   S4    S    
C4    C8    S    
C2    C12   S    
Cu2   O19   S    
Cu1   O1    S    
C2    O14   A    
C21   C22   A    
C14   C26   A    
C1    C25   T    
C9    C11   S    
C14   C17   A    
C21   S2    S    
H8    O13   S    
C2    O12   A    
O6    S2    S    
Cu1   N2    S    
C19   C21   A    
C28   O15   A    
Cu2   N1    S    
C3    C7    S    
C23   C25   S    
O7    S3    D    
C17   H1    S    
O13   S4    S    
C22   C24   S    
C18   S3    S    
Cu1   O14   S    
C15   C16   A    
C17   C27   A    
Cu2   O17   S    
H5    O3    S    
C28   O1    A    
C11   C13   T    
O10   S4    D    
Cu1   O18   S    
O3    S1    S    
C18   C20   A    
C8    C10   T    
C3    O16   A    
C5    N2    T    
C4    O18   A    
C20   S1    S    
C7    C9    T    
C12   C24   T    
C6    N1    T    
O8    S3    D    
Cu2   O12   S    
O4    S2    D    
C18   C22   A    
C15   H3    S    
O11   S4    D    
C5    C26   S    
O20   S1    D    
C16   C26   A    
C3    O19   A    
