data_mof_unit_39847.cif
_audit_creation_date              2012-10-26T21:12:32-0400
_audit_creation_method            fapswitch 2.2
_symmetry_space_group_name_H-M    P1
_symmetry_Int_Tables_number       1
_space_group_crystal_system       triclinic
_cell_length_a                    23.514809
_cell_length_b                    10.837615
_cell_length_c                    9.572982
_cell_angle_alpha                 90.795618
_cell_angle_beta                  89.884993
_cell_angle_gamma                 92.666275
_cell_volume                      2436.74302397

loop_
_atom_site_label
_atom_site_type_symbol
_atom_type_description
_atom_site_fract_x
_atom_site_fract_y
_atom_site_fract_z
_atom_type_partial_charge
C1    C     C_R   0.505547 0.263548 0.499495 0.596131
C2    C     C_R   0.121936 0.604087 0.455797 0.460188
C3    C     C_R   0.238989 0.564326 0.608558 0.303867
C4    C     C_R   0.391131 0.502954 0.500255 0.550998
C5    C     C_R   0.299138 0.571366 0.607238 0.204487
C6    C     C_R   0.328654 0.508239 0.500429 -0.058182
C7    C     C_R   0.297950 0.446473 0.393018 -0.184486
C8    C     C_R   0.238313 0.443537 0.391456 0.245745
C9    C     C_R   0.209194 0.501843 0.499814 0.279010
C10   C     C_R   0.761386 0.498083 0.370485 0.304673
C11   C     C_R   0.701622 0.498448 0.371987 -0.144134
C12   C     C_R   0.965891 0.289540 0.581593 -0.110652
C13   C     C_R   0.671681 0.500726 0.499173 -0.018427
C14   C     C_R   0.702032 0.503024 0.625405 -0.148743
C15   C     C_R   0.761261 0.503030 0.624521 -0.106764
C16   C     C_R   0.497542 0.738043 0.501982 0.529961
C17   C     C_R   0.791055 0.500655 0.497799 0.280969
C18   C     C_R   0.551504 0.125571 0.743134 0.272828
C19   C     C_R   0.545944 0.070144 0.874644 -0.119796
C20   C     C_R   0.515220 0.958429 0.888146 -0.158681
C21   C     C_R   0.495487 0.894267 0.769454 -0.114118
C22   C     C_R   0.505188 0.942819 0.634372 -0.016179
C23   C     C_R   0.025239 0.289478 0.581382 -0.111079
C24   C     C_R   0.523922 0.067890 0.625439 0.068576
C25   C     C_R   0.513092 0.130382 0.499685 0.018959
C26   C     C_R   0.500285 0.062768 0.377340 -0.169169
C27   C     C_R   0.495032 0.935408 0.380258 -0.154562
C28   C     C_R   0.609047 0.500438 0.499822 0.561604
C29   C     C_R   0.496835 0.873456 0.507558 -0.003101
C30   C     C_R   0.576537 0.663128 0.146192 -0.098462
C31   C     C_R   0.614192 0.741936 0.074681 -0.176818
C32   C     C_R   0.614206 0.741656 0.930791 -0.167273
C33   C     C_R   0.576415 0.662894 0.857594 -0.097411
C34   C     C_R   0.057807 0.394576 0.539635 0.028199
C35   C     C_R   0.537569 0.580166 0.926097 0.144884
C36   C     C_R   0.537589 0.580178 0.075841 0.152893
C37   C     C_R   0.464430 0.423329 0.072945 -0.000528
C38   C     C_R   0.464452 0.423354 0.924873 0.015428
C39   C     C_R   0.882808 0.604914 0.458626 0.445248
C40   C     C_R   0.878259 0.396976 0.539424 0.416052
C41   C     C_R   0.937879 0.394783 0.540306 0.031006
C42   C     C_R   0.970123 0.500678 0.498284 -0.024876
C43   C     C_R   0.942492 0.606797 0.456928 0.028544
C44   C     C_R   0.030142 0.500511 0.497726 -0.026755
C45   C     C_R   0.062355 0.606349 0.455390 0.028934
C46   C     C_R   0.034363 0.711589 0.414122 -0.109534
C47   C     C_R   0.975046 0.711870 0.415065 -0.112981
C48   C     C_R   0.117530 0.396947 0.539109 0.460494
Cu1   Cu    Cu3+1 0.500000 0.499990 0.640660 0.959968
Cu2   Cu    Cu3+1 0.500000 0.500010 0.359340 0.931516
H1    H     H_    0.942079 0.206949 0.614293 0.175026
H2    H     H_    0.435311 0.360534 0.127542 0.117133
H3    H     H_    0.045471 0.206883 0.614000 0.175249
H4    H     H_    0.580059 0.671770 0.256329 0.185590
H5    H     H_    0.643430 0.804132 0.131677 0.140699
H6    H     H_    0.643281 0.803969 0.875134 0.142955
H7    H     H_    0.579193 0.672279 0.747659 0.185447
H8    H     H_    0.435359 0.360539 0.868555 0.130865
H9    H     H_    0.058169 0.794120 0.381224 0.177603
H10   H     H_    0.954825 0.794584 0.382770 0.173945
H11   H     H_    0.320483 0.398977 0.310989 0.131731
H12   H     H_    0.678672 0.496541 0.273912 0.119129
H13   H     H_    0.602505 0.257358 0.817609 0.319092
H14   H     H_    0.233321 0.657168 0.784389 0.382976
H15   H     H_    0.363146 0.678256 0.668211 0.339558
H16   H     H_    0.234003 0.348301 0.217781 0.334416
H17   H     H_    0.764693 0.493034 0.167538 0.318802
H18   H     H_    0.680080 0.504934 0.724934 0.146771
H19   H     H_    0.784199 0.505161 0.722568 0.141327
H20   H     H_    0.493638 0.108264 0.279023 0.136243
H21   H     H_    0.564833 0.114136 0.966782 0.103301
H22   H     H_    0.508520 0.918942 0.990501 0.128556
H23   H     H_    0.470793 0.809597 0.787014 0.167496
H24   H     H_    0.487876 0.885640 0.282451 0.143326
N1    N     N_R   0.852077 0.500883 0.498771 -0.372700
N2    N     N_R   0.148148 0.500664 0.497747 -0.341143
N3    N     N_R   0.500540 0.501210 0.147910 -0.244544
N4    N     N_R   0.500560 0.501290 0.852040 -0.244034
O1    O     O_R   0.500000 0.319640 0.618810 -0.455796
O2    O     O_R   0.582120 0.500020 0.618760 -0.497953
O3    O     O_R   0.582120 0.500050 0.381190 -0.526205
O4    O     O_2   0.855629 0.706251 0.421048 -0.465074
O5    O     O_3   0.586875 0.229735 0.725625 -0.670188
O6    O     O_3   0.207585 0.619998 0.712065 -0.647079
O7    O     O_3   0.327326 0.642569 0.708508 -0.693883
O8    O     O_3   0.207341 0.384322 0.285798 -0.642105
O9    O     O_3   0.791724 0.494305 0.246988 -0.652479
O10   O     O_2   0.846653 0.295953 0.577877 -0.477364
O11   O     O_2   0.144851 0.296891 0.580171 -0.456434
O12   O     O_2   0.153521 0.704256 0.414614 -0.456251
O13   O     O_R   0.500000 0.319660 0.381240 -0.516270
O14   O     O_R   0.417880 0.499950 0.618810 -0.483721
O15   O     O_R   0.417880 0.499980 0.381240 -0.496524
O16   O     O_R   0.500000 0.680340 0.618760 -0.543862
O17   O     O_R   0.500000 0.680360 0.381190 -0.522080

loop_
_geom_bond_atom_site_label_1
_geom_bond_atom_site_label_2
_ccdc_geom_bond_type
C22   C29   A    
C46   H9    S    
C27   C29   A    
C41   C42   A    
C48   N2    A    
C19   H21   S    
C19   C20   A    
C11   H12   S    
C7    C8    A    
C45   C46   A    
C30   H4    S    
C12   C23   A    
C26   C27   A    
C37   C38   A    
C18   C24   A    
C36   N3    A    
C30   C31   A    
Cu2   O17   S    
C10   C17   A    
C21   H23   S    
Cu1   N4    S    
C18   C19   A    
C2    O12   S    
C7    H11   S    
C47   H10   S    
C38   H8    S    
H14   O6    S    
C35   C36   A    
C8    C9    A    
C13   C28   S    
C9    N2    S    
C39   N1    A    
Cu1   O16   S    
C27   H24   S    
C5    O7    S    
C1    O13   A    
C13   C14   A    
C1    C25   S    
C42   C44   A    
C23   H3    S    
C2    C45   A    
C15   H19   S    
C10   O9    S    
C34   C44   A    
C24   C25   A    
C4    C6    S    
C37   H2    S    
C39   C43   A    
C38   N4    A    
C16   C29   S    
C37   N3    A    
Cu1   O1    S    
H13   O5    S    
C12   C41   A    
C3    C9    A    
C31   C32   A    
C23   C34   A    
C18   O5    S    
C40   C41   A    
C48   O11   S    
C1    O1    A    
C22   C24   A    
C34   C48   A    
C42   C43   A    
Cu1   O14   S    
Cu2   N3    S    
C12   H1    S    
C2    N2    A    
C44   C45   A    
C15   C17   A    
C46   C47   A    
C16   O17   A    
C33   H7    S    
C28   O3    A    
C16   O16   A    
C39   O4    S    
C3    C5    A    
H16   O8    S    
Cu1   O2    S    
Cu2   O15   S    
H15   O7    S    
C6    C7    A    
C35   N4    A    
H17   O9    S    
C40   N1    A    
C30   C36   A    
C32   C33   A    
C40   O10   S    
C25   C26   A    
C11   C13   A    
C5    C6    A    
C26   H20   S    
C33   C35   A    
C8    O8    S    
C28   O2    A    
C10   C11   A    
C4    O15   A    
Cu2   O13   S    
C20   C21   A    
Cu1   Cu2   S    
C3    O6    S    
C17   N1    S    
C14   H18   S    
C14   C15   A    
C20   H22   S    
C31   H5    S    
C21   C22   A    
C43   C47   A    
C32   H6    S    
Cu2   O3    S    
C4    O14   A    
