data_mof_unit_12805.cif
_audit_creation_date              2012-12-10T18:06:38-0500
_audit_creation_method            fapswitch 2.2
_symmetry_space_group_name_H-M    P1
_symmetry_Int_Tables_number       1
_space_group_crystal_system       triclinic
_cell_length_a                    12.601976
_cell_length_b                    13.114672
_cell_length_c                    15.46201
_cell_angle_alpha                 83.351719
_cell_angle_beta                  98.612174
_cell_angle_gamma                 96.725884
_cell_volume                      2496.6276492

loop_
_atom_site_label
_atom_site_type_symbol
_atom_type_description
_atom_site_fract_x
_atom_site_fract_y
_atom_site_fract_z
_atom_type_partial_charge
C1    C     C_R   0.444948 0.307969 0.513467 0.879676
C2    C     C_R   0.644687 0.400780 0.938169 0.166901
C3    C     C_R   0.539057 0.424926 0.903165 0.130166
C4    C     C_R   0.434608 0.509888 0.336235 0.870428
C5    C     C_R   0.722970 0.401617 0.882314 -0.189232
C6    C     C_R   0.698323 0.430234 0.792467 -0.196613
C7    C     C_R   0.517665 0.457097 0.813775 -0.250819
C8    C     C_R   0.729726 0.925446 0.567329 -0.190234
C9    C     C_R   0.596007 0.798533 0.502579 -0.086300
C10   C     C_R   0.301896 0.162695 0.508063 -0.272006
C11   C     C_R   0.269326 0.057861 0.509337 -0.193840
C12   C     C_R   0.422771 0.447173 0.104966 0.014284
C13   C     C_R   0.345997 0.987497 0.521413 0.596467
C14   C     C_R   0.457865 0.022537 0.534481 -0.052206
C15   C     C_R   0.488884 0.126217 0.549876 0.016431
C16   C     C_R   0.557225 0.691579 0.492001 0.867267
C17   C     C_R   0.540319 0.958988 0.532776 0.097399
C18   C     C_R   0.648873 0.990953 0.565852 0.165020
C19   C     C_R   0.674680 0.087723 0.596574 -0.237061
C20   C     C_R   0.595916 0.155373 0.587630 -0.152207
C21   C     C_R   0.518393 0.866942 0.494257 -0.187625
C22   C     C_R   0.702833 0.828129 0.537507 -0.194003
C23   C     C_R   0.313326 0.458335 0.071098 0.024565
C24   C     C_R   0.411696 0.197657 0.526607 -0.124410
C25   C     C_R   0.138067 0.634510 0.627571 -0.250086
C26   C     C_R   0.756313 0.377398 0.398131 -0.094311
C27   C     C_R   0.850631 0.343545 0.381808 -0.307153
C28   C     C_R   0.563661 0.484516 0.664091 0.849227
C29   C     C_R   0.949167 0.384747 0.423486 0.609868
C30   C     C_R   0.953063 0.464100 0.479907 -0.122100
C31   C     C_R   0.853777 0.491989 0.497193 0.170796
C32   C     C_R   0.049305 0.515625 0.521183 0.005947
C33   C     C_R   0.044056 0.585508 0.584204 0.178080
C34   C     C_R   0.493719 0.419817 0.050764 0.070314
C35   C     C_R   0.945130 0.607418 0.602232 -0.271073
C36   C     C_R   0.851380 0.562719 0.557859 -0.181913
C37   C     C_R   0.151175 0.503931 0.500860 -0.016595
C38   C     C_R   0.236375 0.615385 0.607177 0.074091
C39   C     C_R   0.391423 0.498245 0.244353 -0.060241
C40   C     C_R   0.595601 0.459356 0.758255 -0.063678
C41   C     C_R   0.243294 0.484927 0.125649 -0.128109
C42   C     C_R   0.282025 0.503974 0.212201 -0.195915
C43   C     C_R   0.460560 0.471400 0.190270 -0.217352
C44   C     C_R   0.460123 0.424388 0.959371 -0.020969
C45   C     C_R   0.349495 0.430434 0.927347 -0.320313
C46   C     C_R   0.276686 0.445007 0.982953 0.602347
C47   C     C_R   0.597675 0.390162 0.084509 -0.194839
C48   C     C_R   0.671231 0.378806 0.028594 -0.226466
F1    F     F_    0.171499 0.451508 0.949233 -0.676626
F2    F     F_    0.309233 0.885784 0.527600 -0.696005
F3    F     F_    0.036944 0.340121 0.411907 -0.707827
H1    H     H_    0.803458 0.381661 0.908294 0.160898
H2    H     H_    0.441035 0.484405 0.786737 0.164699
H3    H     H_    0.940092 0.661138 0.649424 0.155393
H4    H     H_    0.135425 0.686955 0.676310 0.159017
H5    H     H_    0.164504 0.460180 0.449752 0.209495
H6    H     H_    0.679273 0.344316 0.367182 0.168885
H7    H     H_    0.847246 0.283529 0.338627 0.182550
H8    H     H_    0.777762 0.584561 0.572643 0.208219
H9    H     H_    0.759446 0.430124 0.750136 0.171037
H10   H     H_    0.750683 0.357468 0.056467 0.154394
H11   H     H_    0.158999 0.491992 0.101362 0.191801
H12   H     H_    0.764059 0.775200 0.544781 0.154659
H13   H     H_    0.226664 0.523105 0.253669 0.171133
H14   H     H_    0.545331 0.472808 0.214853 0.159683
H15   H     H_    0.316901 0.421907 0.859607 0.180109
H16   H     H_    0.623288 0.373413 0.154037 0.140944
H17   H     H_    0.756429 0.112542 0.624542 0.153064
H18   H     H_    0.812600 0.948236 0.593777 0.145643
H19   H     H_    0.440144 0.845620 0.458402 0.212285
H20   H     H_    0.241127 0.216446 0.492065 0.223381
H21   H     H_    0.184233 0.031122 0.498698 0.182793
H22   H     H_    0.619405 0.229916 0.612018 0.170730
H23   H     H_    0.310634 0.651392 0.640338 0.154851
N1    N     N_R   0.239390 0.551900 0.544730 -0.129897
N2    N     N_R   0.759950 0.448600 0.455730 -0.123119
O1    O     O_R   0.374950 0.371210 0.521360 -0.604475
O2    O     O_R   0.542050 0.338030 0.492790 -0.617988
O3    O     O_R   0.368720 0.526070 0.390200 -0.613205
O4    O     O_R   0.535820 0.492890 0.361630 -0.617888
O5    O     O_R   0.457950 0.661970 0.507210 -0.587135
O6    O     O_R   0.625050 0.628790 0.478640 -0.629010
O7    O     O_R   0.464180 0.507110 0.638370 -0.619992
O8    O     O_R   0.631280 0.473930 0.609800 -0.642942
Zn1   Zn    Zn3+2 0.388420 0.522150 0.519080 0.969960
Zn2   Zn    Zn3+2 0.611580 0.477850 0.480920 0.928881

loop_
_geom_bond_atom_site_label_1
_geom_bond_atom_site_label_2
_ccdc_geom_bond_type
N2    Zn2   S    
C28   O8    A    
C1    O1    A    
C41   C42   A    
C19   C20   A    
C36   H8    S    
C31   N2    A    
C45   C46   A    
C12   C23   A    
C26   C27   A    
C9    C16   S    
O8    Zn2   S    
C4    O4    A    
C12   C43   A    
C3    C7    A    
C38   H23   S    
C5    C6    A    
C9    C22   A    
C27   C29   A    
C28   C40   S    
C18   C19   A    
O4    Zn2   S    
C22   H12   S    
C37   H5    S    
N1    Zn1   S    
C35   C36   A    
C26   N2    A    
C7    C40   A    
C5    H1    S    
C10   H20   S    
O2    Zn2   S    
C37   N1    A    
O1    Zn1   S    
C23   C46   A    
C13   C14   A    
C35   H3    S    
C1    O2    A    
C14   C17   A    
C41   H11   S    
C47   H16   S    
C39   C42   A    
C38   N1    A    
C15   C20   A    
C3    C44   A    
C6    H9    S    
C34   C44   A    
C4    O3    A    
C11   H21   S    
C39   C43   A    
C2    C48   A    
O6    Zn2   S    
C8    C18   A    
C29   C30   A    
C25   C38   A    
C8    C22   A    
C47   C48   A    
C46   F1    S    
C4    C39   S    
C43   H14   S    
C16   O6    A    
C17   C18   A    
C8    H18   S    
C19   H17   S    
C32   C37   A    
C15   C24   A    
O7    Zn1   S    
C6    C40   A    
C2    C5    A    
C7    H2    S    
C12   C34   A    
C42   H13   S    
O3    Zn1   S    
C44   C45   A    
C29   F3    S    
C31   C36   A    
C25   H4    S    
C27   H7    S    
C23   C41   A    
C21   H19   S    
C10   C24   A    
C32   C33   A    
C2    C3    A    
C30   C32   A    
C11   C13   A    
C9    C21   A    
C48   H10   S    
C30   C31   A    
C16   O5    A    
C33   C35   A    
C20   H22   S    
C26   H6    S    
C17   C21   A    
C10   C11   A    
C13   F2    S    
C1    C24   S    
C45   H15   S    
C14   C15   A    
C34   C47   A    
O5    Zn1   S    
C25   C33   A    
C28   O7    A    
