data_mof_unit_47022.cif
_audit_creation_date              2012-12-10T16:48:00-0500
_audit_creation_method            fapswitch 2.2
_symmetry_space_group_name_H-M    P1
_symmetry_Int_Tables_number       1
_space_group_crystal_system       triclinic
_cell_length_a                    7.771908
_cell_length_b                    8.58218
_cell_length_c                    10.601824
_cell_angle_alpha                 90.597819
_cell_angle_beta                  86.158992
_cell_angle_gamma                 93.539523
_cell_volume                      704.192388079

loop_
_atom_site_label
_atom_site_type_symbol
_atom_type_description
_atom_site_fract_x
_atom_site_fract_y
_atom_site_fract_z
_atom_type_partial_charge
C1    C     C_R   0.545718 0.794710 0.496774 0.978555
C2    C     C_2   0.569797 0.958115 0.494551 -0.346165
C3    C     C_2   0.813158 0.651542 0.108115 0.954386
C4    C     C_2   0.430236 0.041856 0.504788 -0.378970
C5    C     C_R   0.502463 0.498460 0.737775 0.926576
C6    C     C_R   0.454291 0.205296 0.503062 0.963957
C7    C     C_R   0.500860 0.517933 0.263374 0.964971
C8    C     C_2   0.644309 0.598212 0.059043 0.002528
C9    C     C_2   0.500284 0.559875 0.132979 -0.414169
C10   C     C_2   0.633478 0.590661 0.922392 -0.193970
C11   C     C_2   0.510271 0.500499 0.870770 -0.308069
H1    H     H_    0.373496 0.554149 0.095430 0.183424
H2    H     H_    0.730537 0.657190 0.862769 0.172089
H3    H     H_    0.412579 0.428467 0.924501 0.153128
H4    H     H_    0.701665 0.008986 0.484602 0.184079
H5    H     H_    0.298374 0.990957 0.514644 0.181869
H6    H     H_    0.013207 0.382246 0.406303 0.198479
H7    H     H_    0.986776 0.617848 0.593612 0.194852
H8    H     H_    0.940830 0.774107 0.240057 0.338596
N1    N     N_2   0.950320 0.457950 0.466680 -0.166727
N2    N     N_2   0.049680 0.542050 0.533320 -0.169835
O1    O     O_R   0.389250 0.738570 0.508180 -0.622498
O2    O     O_R   0.818481 0.744807 0.216916 -0.791260
O3    O     O_R   0.678390 0.711630 0.486820 -0.610575
O4    O     O_R   0.355470 0.513470 0.691600 -0.603298
O5    O     O_R   0.644610 0.486520 0.670240 -0.621461
O6    O     O_R   0.321610 0.288370 0.513180 -0.629840
O7    O     O_R   0.610750 0.261430 0.491820 -0.613238
O8    O     O_R   0.355390 0.513480 0.329760 -0.625514
O9    O     O_R   0.644530 0.486530 0.308400 -0.587765
O10   O     O_2   0.947759 0.619084 0.050127 -0.644792
Zn1   Zn    Zn3+2 0.306940 0.517990 0.514260 0.959788
Zn2   Zn    Zn3+2 0.693060 0.482010 0.485740 0.970872

loop_
_geom_bond_atom_site_label_1
_geom_bond_atom_site_label_2
_ccdc_geom_bond_type
C4    H5    S    
C2    C4    D    
C7    O8    A    
H7    N2    S    
O5    Zn2   S    
H8    O2    S    
C6    O6    A    
O4    Zn1   S    
C1    O1    A    
C7    O9    A    
C3    O10   D    
C2    H4    S    
O1    Zn1   S    
C5    O4    A    
N1    Zn2   S    
C1    C2    S    
C8    C10   S    
N2    Zn1   S    
O7    Zn2   S    
C5    C11   S    
O8    Zn1   S    
C11   H3    S    
C10   C11   D    
C5    O5    A    
H6    N1    S    
N1    N2    D    
C1    O3    A    
C4    C6    S    
C3    C8    S    
C7    C9    S    
O9    Zn2   S    
O6    Zn1   S    
C9    H1    S    
C3    O2    S    
C6    O7    A    
O3    Zn2   S    
C8    C9    D    
C10   H2    S    
