data_mof_unit_21483.cif
_audit_creation_date              2012-12-10T18:09:34-0500
_audit_creation_method            fapswitch 2.2
_symmetry_space_group_name_H-M    P1
_symmetry_Int_Tables_number       1
_space_group_crystal_system       triclinic
_cell_length_a                    15.348647
_cell_length_b                    15.299394
_cell_length_c                    9.747871
_cell_angle_alpha                 90.589684
_cell_angle_beta                  90.844642
_cell_angle_gamma                 89.868727
_cell_volume                      2288.66860576

loop_
_atom_site_label
_atom_site_type_symbol
_atom_type_description
_atom_site_fract_x
_atom_site_fract_y
_atom_site_fract_z
_atom_type_partial_charge
C1    C     C_R   0.119530 0.380217 0.500054 0.740089
C2    C     C_R   0.119052 0.620575 0.500923 0.725861
C3    C     C_R   0.619528 0.880215 0.500057 0.740082
C4    C     C_R   0.619051 0.120577 0.500923 0.725869
C5    C     C_3   0.092983 0.515119 0.085549 0.436113
C6    C     C_3   0.094101 0.499426 0.919875 0.429090
C7    C     C_3   0.592982 0.015120 0.085554 0.436108
C8    C     C_3   0.594102 0.999435 0.919877 0.429086
C9    C     C_R   0.882631 0.378415 0.498887 0.741711
C10   C     C_R   0.885617 0.624490 0.499984 0.742587
C11   C     C_R   0.382628 0.878416 0.498886 0.741685
C12   C     C_R   0.385612 0.124485 0.499987 0.742598
C13   C     C_3   0.833677 0.237368 0.610930 0.082468
C14   C     C_3   0.804847 0.261155 0.353605 0.044523
C15   C     C_3   0.821642 0.754097 0.634871 0.053046
C16   C     C_3   0.824926 0.758582 0.371693 0.079031
C17   C     C_3   0.333690 0.737355 0.610902 0.082461
C18   C     C_3   0.304829 0.761171 0.353593 0.044533
C19   C     C_3   0.321545 0.254002 0.634977 0.052864
C20   C     C_3   0.325010 0.258664 0.371822 0.079201
C21   C     C_3   0.265260 0.663917 0.599803 -0.395713
C22   C     C_3   0.225955 0.699021 0.355490 -0.355899
C23   C     C_3   0.244214 0.318767 0.635757 -0.371601
C24   C     C_3   0.253419 0.329697 0.378918 -0.387522
C25   C     C_3   0.765246 0.163931 0.599835 -0.395701
C26   C     C_3   0.725972 0.199005 0.355498 -0.355911
C27   C     C_3   0.744389 0.818959 0.635588 -0.371706
C28   C     C_3   0.753248 0.829530 0.378649 -0.387127
C29   C     C_3   0.725850 0.350184 0.531941 -0.507518
C30   C     C_3   0.728361 0.652058 0.490711 -0.507372
C31   C     C_3   0.225851 0.850179 0.531975 -0.507514
C32   C     C_3   0.228361 0.152062 0.490486 -0.507460
C33   C     C_3   0.815513 0.307049 0.497475 0.144803
C34   C     C_3   0.819237 0.697399 0.499567 0.145206
C35   C     C_3   0.315511 0.807049 0.497472 0.144804
C36   C     C_3   0.319233 0.197393 0.499576 0.145298
C37   C     C_3   0.189212 0.689437 0.501587 0.100302
C38   C     C_3   0.191141 0.313474 0.499848 0.103921
C39   C     C_3   0.689211 0.189439 0.501587 0.100309
C40   C     C_3   0.691139 0.813474 0.499854 0.103892
C41   C     C_3   0.153904 0.779916 0.546701 -0.419974
C42   C     C_3   0.153874 0.220066 0.485582 -0.430166
C43   C     C_3   0.653899 0.279924 0.546667 -0.419981
C44   C     C_3   0.653854 0.720047 0.486049 -0.430161
C45   C     C_3   0.940669 0.567938 0.080092 0.044450
C46   C     C_3   0.947508 0.573081 0.916597 0.008000
C47   C     C_3   0.965027 0.416220 0.082241 0.014551
C48   C     C_3   0.956961 0.419775 0.916420 0.058290
C49   C     C_3   0.440666 0.067936 0.080095 0.044485
C50   C     C_3   0.447501 0.073076 0.916599 0.007958
C51   C     C_3   0.465032 0.916217 0.082237 0.014531
C52   C     C_3   0.456970 0.919771 0.916415 0.058287
Cu1   Cu    Cu3+1 0.000100 0.500000 0.642410 0.955325
Cu2   Cu    Cu3+1 0.000100 0.500000 0.357590 0.955336
Cu3   Cu    Cu3+1 0.500100 0.000000 0.642410 0.955337
Cu4   Cu    Cu3+1 0.500100 0.000000 0.357590 0.955349
H1    H     H_    0.822691 0.271560 0.710435 0.150783
H2    H     H_    0.790661 0.312552 0.276143 0.140917
H3    H     H_    0.811116 0.708641 0.721085 0.142646
H4    H     H_    0.808582 0.716961 0.281086 0.157357
H5    H     H_    0.322713 0.771535 0.710420 0.150774
H6    H     H_    0.290636 0.812576 0.276147 0.140908
H7    H     H_    0.311072 0.208493 0.721134 0.142660
H8    H     H_    0.308610 0.217129 0.281143 0.157377
H9    H     H_    0.294076 0.600525 0.566126 0.155667
H10   H     H_    0.244166 0.632929 0.317341 0.168956
H11   H     H_    0.265914 0.387367 0.654053 0.159397
H12   H     H_    0.281365 0.396538 0.389613 0.152728
H13   H     H_    0.794063 0.100532 0.566194 0.155672
H14   H     H_    0.744185 0.132909 0.317368 0.168927
H15   H     H_    0.766170 0.887571 0.653546 0.159278
H16   H     H_    0.781117 0.896430 0.388930 0.152702
H17   H     H_    0.240888 0.656652 0.704196 0.149800
H18   H     H_    0.174274 0.725728 0.286384 0.167467
H19   H     H_    0.201269 0.300831 0.721766 0.170569
H20   H     H_    0.216319 0.326884 0.280403 0.171850
H21   H     H_    0.740859 0.156689 0.704224 0.149801
H22   H     H_    0.674299 0.225709 0.286373 0.167490
H23   H     H_    0.701535 0.801197 0.721797 0.170600
H24   H     H_    0.716020 0.826491 0.280246 0.171776
H25   H     H_    0.730714 0.389014 0.628976 0.168584
H26   H     H_    0.706620 0.396546 0.449504 0.164099
H27   H     H_    0.719723 0.608854 0.580774 0.166387
H28   H     H_    0.723732 0.609361 0.397675 0.166798
H29   H     H_    0.230725 0.888998 0.629020 0.168585
H30   H     H_    0.206612 0.896550 0.449556 0.164096
H31   H     H_    0.219618 0.108881 0.580548 0.166412
H32   H     H_    0.223822 0.109346 0.397464 0.166813
H33   H     H_    0.132532 0.777435 0.655192 0.175469
H34   H     H_    0.096421 0.798383 0.482849 0.165283
H35   H     H_    0.109456 0.206814 0.571373 0.175869
H36   H     H_    0.116027 0.213101 0.387826 0.175834
H37   H     H_    0.632513 0.277456 0.655153 0.175446
H38   H     H_    0.596424 0.298387 0.482797 0.165309
H39   H     H_    0.609646 0.706893 0.572174 0.175944
H40   H     H_    0.615770 0.712964 0.388526 0.175745
H41   H     H_    0.872403 0.546095 0.098355 0.089732
H42   H     H_    0.879284 0.562909 0.877729 0.113356
H43   H     H_    0.896483 0.410098 0.117215 0.126868
H44   H     H_    0.885375 0.426528 0.895563 0.078485
H45   H     H_    0.372401 0.046087 0.098362 0.089713
H46   H     H_    0.379277 0.062896 0.877735 0.113351
H47   H     H_    0.396488 0.910092 0.117209 0.126866
H48   H     H_    0.385383 0.926515 0.895554 0.078488
N1    N     N_3   0.001260 0.500000 0.143650 -0.139496
N2    N     N_3   0.001260 0.500000 0.856350 -0.138836
N3    N     N_3   0.501260 0.000000 0.143650 -0.139486
N4    N     N_3   0.501260 0.000000 0.856350 -0.138833
O1    O     O_R   0.091250 0.408820 0.620260 -0.536784
O2    O     O_R   0.091250 0.408820 0.379740 -0.562389
O3    O     O_R   0.091250 0.591180 0.620260 -0.583873
O4    O     O_R   0.091250 0.591180 0.379740 -0.556334
O5    O     O_R   0.591250 0.908820 0.620260 -0.536760
O6    O     O_R   0.591250 0.908820 0.379740 -0.562388
O7    O     O_R   0.591250 0.091180 0.620260 -0.583865
O8    O     O_R   0.591250 0.091180 0.379740 -0.556324
O9    O     O_R   0.908940 0.408800 0.620260 -0.563656
O10   O     O_R   0.908940 0.408800 0.379740 -0.573891
O11   O     O_R   0.908940 0.591200 0.620260 -0.568285
O12   O     O_R   0.908940 0.591200 0.379740 -0.550719
O13   O     O_R   0.408940 0.908800 0.620260 -0.563664
O14   O     O_R   0.408940 0.908800 0.379740 -0.573893
O15   O     O_R   0.408940 0.091200 0.620260 -0.568284
O16   O     O_R   0.408940 0.091200 0.379740 -0.550713
C53   C     C_3   0.926737 0.199684 0.621472 -0.927150
H49   H     H_    0.936662 0.169754 0.723823 0.221037
H50   H     H_    0.940009 0.147059 0.546540 0.237872
H51   H     H_    0.975437 0.251946 0.609831 0.255917
C54   C     C_3   0.885436 0.210719 0.303276 -0.879615
H52   H     H_    0.879873 0.202276 0.190418 0.211353
H53   H     H_    0.946780 0.244626 0.331968 0.267894
H54   H     H_    0.888473 0.143378 0.343539 0.225567
C55   C     C_3   0.907743 0.803374 0.664740 -0.888783
H55   H     H_    0.911097 0.823438 0.774329 0.210971
H56   H     H_    0.965268 0.762467 0.640287 0.254248
H57   H     H_    0.911336 0.865883 0.609802 0.234577
C56   C     C_3   0.914566 0.800098 0.343420 -0.901648
H58   H     H_    0.968638 0.754843 0.368995 0.247291
H59   H     H_    0.918072 0.817322 0.233368 0.214321
H60   H     H_    0.925518 0.862808 0.397598 0.229558
C57   C     C_3   0.426755 0.699677 0.621401 -0.927109
H61   H     H_    0.436704 0.669752 0.723751 0.221031
H62   H     H_    0.440016 0.647051 0.546464 0.237882
H63   H     H_    0.475450 0.751940 0.609724 0.255889
C58   C     C_3   0.385411 0.710738 0.303232 -0.879636
H64   H     H_    0.379838 0.702310 0.190373 0.211356
H65   H     H_    0.446758 0.744640 0.331924 0.267897
H66   H     H_    0.388450 0.643393 0.343475 0.225564
C59   C     C_3   0.407575 0.303393 0.664886 -0.888645
H67   H     H_    0.410903 0.323438 0.774484 0.210919
H68   H     H_    0.465159 0.262577 0.640401 0.254271
H69   H     H_    0.411062 0.365920 0.609974 0.234572
C60   C     C_3   0.414704 0.300072 0.343579 -0.901974
H70   H     H_    0.468712 0.254717 0.369030 0.247366
H71   H     H_    0.418210 0.317362 0.233552 0.214385
H72   H     H_    0.425777 0.362718 0.397875 0.229595
N5    N     N_3   0.940787 0.653237 0.148878 -0.526445
H73   H     H_    0.891960 0.691191 0.103117 0.166491
H74   H     H_    0.997109 0.689689 0.146130 0.230525
N6    N     N_3   0.968701 0.659379 0.862794 -0.537091
H75   H     H_    0.913126 0.697289 0.876451 0.189125
H76   H     H_    0.013891 0.693918 0.920820 0.174593
N7    N     N_3   0.005208 0.337387 0.140303 -0.544868
H77   H     H_    0.978263 0.282261 0.092973 0.174866
H78   H     H_    0.071833 0.331927 0.131014 0.238034
N8    N     N_3   0.977296 0.337246 0.844954 -0.497973
H79   H     H_    0.925827 0.294823 0.864099 0.169325
H80   H     H_    0.029791 0.302705 0.884602 0.204849
N9    N     N_3   0.440783 0.153237 0.148883 -0.526362
H81   H     H_    0.391915 0.191169 0.103188 0.166471
H82   H     H_    0.497081 0.189718 0.146027 0.230426
N10   N     N_3   0.468680 0.159377 0.862797 -0.537066
H83   H     H_    0.413112 0.197286 0.876523 0.189137
H84   H     H_    0.513894 0.193909 0.920786 0.174579
N11   N     N_3   0.505217 0.837387 0.140298 -0.544839
H85   H     H_    0.478266 0.782262 0.092974 0.174867
H86   H     H_    0.571840 0.831924 0.130977 0.237989
N12   N     N_3   0.477319 0.837245 0.844947 -0.497942
H87   H     H_    0.425850 0.794817 0.864064 0.169322
H88   H     H_    0.529808 0.802706 0.884616 0.204828
N13   N     N_3   0.124680 0.604173 0.120377 -0.575511
H89   H     H_    0.192448 0.605813 0.110328 0.190095
H90   H     H_    0.106914 0.652086 0.052680 0.172217
N14   N     N_3   0.150546 0.566986 0.862711 -0.649292
H91   H     H_    0.120906 0.625841 0.839629 0.246316
H92   H     H_    0.187134 0.543210 0.781048 0.240792
N15   N     N_3   0.157363 0.457073 0.152290 -0.601278
H93   H     H_    0.215587 0.456972 0.098008 0.155584
H94   H     H_    0.179012 0.485274 0.244537 0.253625
N16   N     N_3   0.138028 0.415499 0.884072 -0.551756
H95   H     H_    0.205489 0.422724 0.875278 0.177206
H96   H     H_    0.135212 0.368355 0.958507 0.177534
N17   N     N_3   0.624675 0.104175 0.120389 -0.575455
H97   H     H_    0.692443 0.105816 0.110350 0.190082
H98   H     H_    0.606911 0.152089 0.052691 0.172218
N18   N     N_3   0.650540 0.067003 0.862720 -0.649300
H99   H     H_    0.687136 0.043234 0.781062 0.240795
H100  H     H_    0.620893 0.125853 0.839627 0.246296
N19   N     N_3   0.657364 0.957071 0.152294 -0.601231
H101  H     H_    0.715589 0.956970 0.098015 0.155602
H102  H     H_    0.679013 0.985270 0.244542 0.253603
N20   N     N_3   0.638037 0.915516 0.884066 -0.551761
H103  H     H_    0.635231 0.868366 0.958494 0.177519
H104  H     H_    0.705499 0.922750 0.875255 0.177204

loop_
_geom_bond_atom_site_label_1
_geom_bond_atom_site_label_2
_ccdc_geom_bond_type
C16   C28   S    
C41   H33   S    
Cu3   Cu4   S    
Cu3   O13   S    
N5    H73   S    
C31   H29   S    
Cu2   O12   S    
C8    N20   S    
C9    O9    A    
N9    H81   S    
C4    O7    A    
C16   C56   S    
C18   C58   S    
C30   C44   S    
C14   C33   S    
N12   H87   S    
C7    C8    S    
N11   H86   S    
C5    N1    S    
N13   H89   S    
C29   H25   S    
C56   H59   S    
C2    O4    A    
C26   H22   S    
N20   H104  S    
C37   C41   S    
C25   H21   S    
C32   C36   S    
N7    H78   S    
C38   C42   S    
C27   H23   S    
C19   C36   S    
C59   H68   S    
C49   H45   S    
C5    C6    S    
Cu1   O9    S    
C26   C39   S    
C13   H1    S    
C28   C40   S    
C51   H47   S    
C32   H32   S    
C21   H17   S    
C43   H38   S    
C47   H43   S    
N14   H91   S    
Cu2   O2    S    
C21   C37   S    
C17   C57   S    
C42   H35   S    
C16   H4    S    
C23   H11   S    
C30   H27   S    
C22   H10   S    
C10   O11   A    
C17   H5    S    
Cu1   N2    S    
C48   N2    S    
C20   C24   S    
C29   C33   S    
C19   H7    S    
N10   H84   S    
C47   N1    S    
C53   H51   S    
C24   C38   S    
C7    N17   S    
C18   C35   S    
C15   C34   S    
N17   H97   S    
C54   H54   S    
C47   N7    S    
Cu1   O3    S    
C41   H34   S    
C46   H42   S    
C46   N6    S    
N19   H101  S    
N5    H74   S    
C31   H30   S    
C29   C43   S    
C9    C33   S    
C9    O10   A    
N9    H82   S    
C13   C25   S    
N8    H79   S    
C11   O13   A    
C48   H44   S    
C8    N4    S    
C5    N13   S    
C58   H65   S    
C45   N1    S    
C58   H64   S    
C52   N12   S    
N13   H90   S    
C6    N2    S    
C14   H2    S    
C56   H60   S    
Cu3   O15   S    
C2    O3    A    
N15   H94   S    
C20   C60   S    
C30   C34   S    
C51   C52   S    
N8    H80   S    
C45   N5    S    
C48   N8    S    
N18   H100  S    
C3    O5    A    
C57   H63   S    
C4    O8    A    
C24   H20   S    
C39   C43   S    
Cu3   O5    S    
N17   H98   S    
Cu1   Cu2   S    
C22   C37   S    
C49   N3    S    
C1    O1    A    
C6    N14   S    
N6    H76   S    
C20   H8    S    
C19   C23   S    
Cu4   N3    S    
C13   C33   S    
C44   H40   S    
C1    O2    A    
C55   H57   S    
C25   C39   S    
C15   C27   S    
C47   C48   S    
C12   O16   A    
C4    C39   S    
C27   C40   S    
C16   C34   S    
C6    N16   S    
Cu4   O8    S    
Cu2   O4    S    
C10   C34   S    
C14   C26   S    
C60   H72   S    
C51   N11   S    
N19   H102  S    
C60   H71   S    
C1    C38   S    
C51   N3    S    
C3    C40   S    
C50   H46   S    
Cu2   O10   S    
C53   H49   S    
C26   H14   S    
C7    N3    S    
C59   H69   S    
C11   O14   A    
C12   C36   S    
C5    N15   S    
Cu4   O16   S    
C58   H66   S    
C27   H15   S    
N10   H83   S    
C55   H56   S    
C54   H52   S    
Cu1   O1    S    
C52   H48   S    
N16   H96   S    
C7    N19   S    
C31   C41   S    
Cu2   N1    S    
C21   H9    S    
C18   C22   S    
C15   H3    S    
C50   N4    S    
C18   H6    S    
C23   H19   S    
N18   H99   S    
C3    O6    A    
C45   C46   S    
N12   H88   S    
Cu1   O11   S    
C15   C55   S    
C23   C38   S    
C56   H58   S    
Cu3   N4    S    
C43   H37   S    
N6    H75   S    
C57   H62   S    
C13   C53   S    
N15   H93   S    
N11   H85   S    
C45   H41   S    
C59   H67   S    
C28   H16   S    
C49   N9    S    
C32   H31   S    
C2    C37   S    
C55   H55   S    
C12   O15   A    
Cu3   O7    S    
C32   C42   S    
C46   N2    S    
C31   C35   S    
C11   C35   S    
C19   C59   S    
N14   H92   S    
C8    N18   S    
C42   H36   S    
C30   H28   S    
C28   H24   S    
C17   C21   S    
N16   H95   S    
N7    H77   S    
C10   O12   A    
C24   H12   S    
C20   C36   S    
Cu4   O6    S    
C40   C44   S    
C25   H13   S    
C29   H26   S    
C52   N4    S    
N20   H103  S    
C49   C50   S    
C53   H50   S    
C22   H18   S    
C50   N10   S    
C17   C35   S    
C60   H70   S    
C57   H61   S    
C44   H39   S    
Cu4   O14   S    
C54   H53   S    
C14   C54   S    
