data_mof_unit_35999.cif
_audit_creation_date              2012-12-10T17:28:36-0500
_audit_creation_method            fapswitch 2.2
_symmetry_space_group_name_H-M    P1
_symmetry_Int_Tables_number       1
_space_group_crystal_system       triclinic
_cell_length_a                    10.662425
_cell_length_b                    12.118203
_cell_length_c                    13.047915
_cell_angle_alpha                 92.736475
_cell_angle_beta                  92.395648
_cell_angle_gamma                 87.206186
_cell_volume                      1680.67262507

loop_
_atom_site_label
_atom_site_type_symbol
_atom_type_description
_atom_site_fract_x
_atom_site_fract_y
_atom_site_fract_z
_atom_type_partial_charge
C1    C     C_R   0.495850 0.521266 0.699382 0.942067
C2    C     C_R   0.529359 0.555596 0.128079 0.002917
C3    C     C_R   0.468735 0.452762 0.972194 0.024296
C4    C     C_R   0.532223 0.541656 0.021796 0.062254
C5    C     C_R   0.391440 0.953845 0.394037 0.460818
C6    C     C_R   0.610028 0.047947 0.606765 0.408270
C7    C     C_R   0.395545 0.838989 0.408144 0.052155
C8    C     C_R   0.599468 0.164200 0.594532 -0.000899
C9    C     C_R   0.550297 0.859553 0.544178 0.575770
C10   C     C_R   0.454392 0.140341 0.453263 0.533301
C11   C     C_R   0.541180 0.976818 0.538101 -0.140751
C12   C     C_R   0.500100 0.478997 0.299367 0.929441
C13   C     C_R   0.462042 0.023837 0.461245 -0.169358
C14   C     C_R   0.741207 0.502321 0.502660 0.867726
C15   C     C_R   0.262605 0.500906 0.516967 0.861412
C16   C     C_R   0.880695 0.405566 0.685689 0.396346
C17   C     C_R   0.112118 0.714515 0.566330 0.435352
C18   C     C_R   0.942852 0.325972 0.746149 0.292677
C19   C     C_R   0.053463 0.809739 0.526059 0.314412
C20   C     C_R   0.060993 0.279610 0.716769 0.317687
C21   C     C_R   0.945902 0.799530 0.459109 0.301126
C22   C     C_R   0.119152 0.320603 0.632892 0.018371
C23   C     C_R   0.494864 0.467546 0.186872 -0.206688
C24   C     C_R   0.894944 0.695277 0.440029 0.093301
C25   C     C_R   0.065768 0.417057 0.585750 -0.075290
C26   C     C_R   0.942606 0.603929 0.496860 -0.075019
C27   C     C_R   0.936729 0.439965 0.596392 -0.129642
C28   C     C_R   0.064475 0.609122 0.538061 -0.170132
C29   C     C_R   0.132096 0.506032 0.548183 -0.120059
C30   C     C_R   0.875317 0.511871 0.525310 -0.095540
C31   C     C_R   0.501641 0.533418 0.809809 -0.114741
C32   C     C_R   0.593282 0.618034 0.964352 0.034782
C33   C     C_R   0.435002 0.363084 0.030221 0.014660
C34   C     C_R   0.576775 0.614197 0.857377 0.397831
C35   C     C_R   0.453127 0.369226 0.137580 0.424888
C36   C     C_R   0.442625 0.456369 0.866401 -0.020749
H1    H     H_    0.895156 0.955386 0.458803 0.349731
H2    H     H_    0.199410 0.248241 0.505539 0.235547
H3    H     H_    0.724426 0.724852 0.370675 0.236811
H4    H     H_    0.795602 0.599388 0.334108 0.171509
H5    H     H_    0.470086 0.699092 0.204185 0.227746
H6    H     H_    0.626956 0.658852 0.225903 0.220058
H7    H     H_    0.284679 0.440384 0.774097 0.170321
H8    H     H_    0.386992 0.326980 0.772369 0.222612
H9    H     H_    0.399721 0.217575 0.153929 0.383900
H10   H     H_    0.671464 0.746802 0.838217 0.358139
H11   H     H_    0.769605 0.676125 0.982273 0.210818
H12   H     H_    0.103519 0.202744 0.841574 0.338185
H13   H     H_    0.650168 0.772908 0.004758 0.202927
H14   H     H_    0.451270 0.233413 0.924486 0.221073
H15   H     H_    0.298705 0.273894 0.954692 0.235805
H16   H     H_    0.366373 0.264254 0.390967 0.390616
H17   H     H_    0.635098 0.734946 0.607562 0.397906
H18   H     H_    0.646027 0.233882 0.733944 0.211072
H19   H     H_    0.766081 0.211386 0.651225 0.183084
H20   H     H_    0.218677 0.797145 0.367705 0.196082
H21   H     H_    0.322167 0.691222 0.353839 0.265698
H22   H     H_    0.297520 0.942365 0.261435 0.347081
H23   H     H_    0.719963 0.059898 0.731835 0.323630
H24   H     H_    0.763945 0.531458 0.699055 0.342239
H25   H     H_    0.226373 0.659186 0.674001 0.315356
H26   H     H_    0.904854 0.213157 0.839558 0.333328
H27   H     H_    0.091636 0.958209 0.490791 0.344598
H28   H     H_    0.300433 0.263517 0.614425 0.221534
N1    N     N_R   0.523130 0.207800 0.519340 -0.191631
N2    N     N_3   0.309659 0.774737 0.345379 -0.479121
N3    N     N_R   0.476870 0.792200 0.480660 -0.194982
N4    N     N_3   0.210406 0.246986 0.585355 -0.362021
N5    N     N_3   0.809322 0.682752 0.353241 -0.390741
N6    N     N_3   0.551865 0.663578 0.172918 -0.413788
N7    N     N_3   0.346216 0.390499 0.818426 -0.454645
N8    N     N_3   0.681761 0.690873 0.014352 -0.424005
N9    N     N_3   0.391410 0.261956 0.982443 -0.456474
N10   N     N_3   0.672069 0.237843 0.657889 -0.325321
O1    O     O_R   0.506170 0.421700 0.658830 -0.610944
O2    O     O_3   0.123543 0.194991 0.768136 -0.717900
O3    O     O_3   0.315935 0.999151 0.316301 -0.680266
O4    O     O_3   0.686257 0.002231 0.683859 -0.678952
O5    O     O_3   0.770865 0.454506 0.721517 -0.700492
O6    O     O_3   0.212149 0.727842 0.635949 -0.662062
O7    O     O_3   0.881847 0.292135 0.829681 -0.729071
O8    O     O_3   0.108844 0.909136 0.548703 -0.685786
O9    O     O_3   0.423822 0.283103 0.196938 -0.705656
O10   O     O_3   0.635959 0.684777 0.796637 -0.746442
O11   O     O_3   0.375744 0.184374 0.378122 -0.664496
O12   O     O_R   0.493830 0.578300 0.341170 -0.681342
O13   O     O_3   0.635260 0.815297 0.614801 -0.663351
O14   O     O_R   0.491330 0.609310 0.646410 -0.580676
O15   O     O_R   0.508670 0.390690 0.353590 -0.558131
O16   O     O_R   0.690650 0.406190 0.506220 -0.563389
O17   O     O_R   0.309350 0.593810 0.493780 -0.612832
O18   O     O_R   0.675800 0.593810 0.493800 -0.673344
O19   O     O_R   0.324200 0.406190 0.506200 -0.683444
O20   O     O_3   0.886714 0.888878 0.412416 -0.740449
Zn1   Zn    Zn3+2 0.509910 0.374730 0.508290 0.976475
Zn2   Zn    Zn3+2 0.490090 0.625270 0.491710 0.954884

loop_
_geom_bond_atom_site_label_1
_geom_bond_atom_site_label_2
_ccdc_geom_bond_type
O14   Zn2   S    
C10   O11   S    
H12   O2    S    
C1    C31   S    
H21   N2    S    
O1    Zn1   S    
O16   Zn1   S    
C32   N8    S    
C12   C23   S    
H28   N4    S    
H16   O11   S    
C19   C21   A    
C24   C26   A    
C6    O4    S    
C21   O20   S    
C3    C33   A    
H25   O6    S    
O18   Zn2   S    
C18   O7    S    
C20   O2    S    
H8    N7    S    
C14   O16   A    
H22   O3    S    
C17   C19   A    
O17   Zn2   S    
H18   N10   S    
H19   N10   S    
C22   C25   A    
C19   O8    S    
C5    C13   A    
C36   N7    S    
C1    O14   A    
C8    N1    A    
O19   Zn1   S    
C27   C30   A    
H9    O9    S    
C34   O10   S    
C14   C30   S    
H23   O4    S    
C24   N5    S    
C15   C29   S    
C25   C29   A    
H4    N5    S    
H27   O8    S    
C1    O1    A    
C12   O15   A    
H14   N9    S    
C6    C11   A    
C5    C7    A    
C35   O9    S    
C6    C8    A    
C15   O17   A    
H13   N8    S    
C17   O6    S    
C32   C34   A    
O15   Zn1   S    
C2    C4    A    
C9    N3    A    
H6    N6    S    
C22   N4    S    
C8    N10   S    
H3    N5    S    
C31   C34   A    
H17   O13   S    
C9    C11   A    
C14   O18   A    
C4    C32   A    
O12   Zn2   S    
H10   O10   S    
C33   N9    S    
H26   O7    S    
C20   C22   A    
C26   C30   A    
C23   C35   A    
N3    Zn2   S    
C5    O3    S    
C3    C4    A    
C10   N1    A    
C28   C29   A    
H7    N7    S    
C17   C28   A    
H15   N9    S    
H2    N4    S    
C10   C13   A    
C15   O19   A    
C25   C27   A    
C26   C28   A    
C12   O12   A    
C16   O5    S    
C9    O13   S    
C7    N2    S    
C11   C13   A    
C3    C36   A    
C16   C27   A    
H20   N2    S    
C33   C35   A    
H1    O20   S    
C18   C20   A    
H11   N8    S    
C7    N3    A    
N1    Zn1   S    
C16   C18   A    
C21   C24   A    
C2    C23   A    
C31   C36   A    
C2    N6    S    
H24   O5    S    
H5    N6    S    
