data_mof_unit_7559.cif
_audit_creation_date              2012-12-10T16:53:31-0500
_audit_creation_method            fapswitch 2.2
_symmetry_space_group_name_H-M    P1
_symmetry_Int_Tables_number       1
_space_group_crystal_system       triclinic
_cell_length_a                    7.839618
_cell_length_b                    8.564942
_cell_length_c                    13.616927
_cell_angle_alpha                 92.796115
_cell_angle_beta                  78.036477
_cell_angle_gamma                 93.621143
_cell_volume                      892.078767849

loop_
_atom_site_label
_atom_site_type_symbol
_atom_type_description
_atom_site_fract_x
_atom_site_fract_y
_atom_site_fract_z
_atom_type_partial_charge
C1    C     C_R   0.545934 0.794558 0.497592 0.957574
C2    C     C_1   0.566634 0.480825 0.119947 -0.039689
C3    C     C_2   0.570138 0.958043 0.496166 -0.382424
C4    C     C_2   0.429862 0.041957 0.503834 -0.382424
C5    C     C_3   0.265567 0.577991 0.054395 -0.409298
C6    C     C_3   0.140369 0.439091 0.090379 -0.860390
C7    C     C_3   0.734433 0.422009 0.945605 -0.409298
C8    C     C_3   0.859631 0.560909 0.909621 -0.860391
C9    C     C_R   0.454066 0.205442 0.502408 0.957574
C10   C     C_R   0.469808 0.504119 0.687079 0.899129
C11   C     C_R   0.530192 0.495881 0.312921 0.899128
C12   C     C_1   0.552174 0.487702 0.208340 -0.208702
C13   C     C_1   0.447826 0.512297 0.791660 -0.208702
C14   C     C_2   0.570047 0.476029 0.015644 0.156211
C15   C     C_2   0.429953 0.523971 0.984356 0.156211
C16   C     C_1   0.433366 0.519175 0.880053 -0.039689
H1    H     H_    0.702734 0.008790 0.488817 0.173452
H2    H     H_    0.981354 0.518017 0.861743 0.257811
H3    H     H_    0.801753 0.342564 0.985470 0.204924
H4    H     H_    0.702773 0.353023 0.879857 0.210349
H5    H     H_    0.982596 0.237324 0.430694 0.167706
H6    H     H_    0.026995 0.365395 0.338182 0.173838
H7    H     H_    0.017404 0.762676 0.569306 0.167706
H8    H     H_    0.973004 0.634604 0.661817 0.173838
H9    H     H_    0.297266 0.991210 0.511183 0.173452
H10   H     H_    0.106321 0.370438 0.025149 0.261652
H11   H     H_    0.200754 0.361833 0.135204 0.257223
H12   H     H_    0.018646 0.481983 0.138257 0.257811
H13   H     H_    0.297227 0.646977 0.120142 0.210349
H14   H     H_    0.198247 0.657436 0.014530 0.204924
H15   H     H_    0.799246 0.638167 0.864796 0.257223
H16   H     H_    0.893679 0.629562 0.974851 0.261652
N1    N     N_2   0.954190 0.457600 0.473930 -0.000526
N2    N     N_2   0.045810 0.542400 0.526070 -0.000526
N3    N     N_3   0.044799 0.345922 0.410436 -0.319758
N4    N     N_3   0.955201 0.654077 0.589564 -0.319758
O1    O     O_R   0.388300 0.738660 0.506400 -0.623376
O2    O     O_R   0.611700 0.261340 0.493600 -0.623375
O3    O     O_R   0.679920 0.711490 0.489690 -0.612184
O4    O     O_R   0.320080 0.288510 0.510310 -0.612185
O5    O     O_R   0.333200 0.515510 0.649910 -0.622824
O6    O     O_R   0.666800 0.484490 0.350090 -0.622824
O7    O     O_R   0.624820 0.488340 0.633200 -0.598686
O8    O     O_R   0.375180 0.511660 0.366800 -0.598686
Zn1   Zn    Zn3+2 0.305280 0.518140 0.511160 0.957990
Zn2   Zn    Zn3+2 0.694720 0.481860 0.488840 0.957990

loop_
_geom_bond_atom_site_label_1
_geom_bond_atom_site_label_2
_ccdc_geom_bond_type
C11   C12   S    
N1    Zn2   S    
O4    Zn1   S    
N2    N4    S    
C6    H11   S    
C1    O1    A    
C2    C12   T    
N1    N2    D    
C4    C9    S    
C7    C8    S    
N2    Zn1   S    
H8    N4    S    
C10   O5    A    
H6    N3    S    
C6    H10   S    
O3    Zn2   S    
H5    N3    S    
C9    O2    A    
N1    N3    S    
C3    H1    S    
C5    H13   S    
C9    O4    A    
C5    C6    S    
C2    C14   S    
O7    Zn2   S    
C8    H2    S    
O2    Zn2   S    
C5    C15   S    
C1    O3    A    
O1    Zn1   S    
C3    C4    D    
C8    H16   S    
C4    H9    S    
C11   O8    A    
O8    Zn1   S    
C11   O6    A    
H7    N4    S    
O6    Zn2   S    
C13   C16   T    
O5    Zn1   S    
C14   C15   D    
C7    H3    S    
C10   O7    A    
C8    H15   S    
C7    H4    S    
C7    C14   S    
C6    H12   S    
C15   C16   S    
C5    H14   S    
C1    C3    S    
C10   C13   S    
