data_mof_unit_63951.cif
_audit_creation_date              2012-12-10T20:32:48-0500
_audit_creation_method            fapswitch 2.2
_symmetry_space_group_name_H-M    P1
_symmetry_Int_Tables_number       1
_space_group_crystal_system       triclinic
_cell_length_a                    28.113043
_cell_length_b                    28.113017
_cell_length_c                    34.521951
_cell_angle_alpha                 89.999951
_cell_angle_beta                  90.000024
_cell_angle_gamma                 89.999748
_cell_volume                      27284.1635314

loop_
_atom_site_label
_atom_site_type_symbol
_atom_type_description
_atom_site_fract_x
_atom_site_fract_y
_atom_site_fract_z
_atom_type_partial_charge
C1    C     C_R   0.801113 0.698889 0.749999 -0.019633
C2    C     C_R   0.198942 0.698942 0.750000 -0.019509
C3    C     C_1   0.265126 0.765125 0.250000 -0.009158
C4    C     C_1   0.234876 0.265125 0.750000 -0.009128
C5    C     C_1   0.765125 0.734875 0.250000 -0.009127
C6    C     C_1   0.265126 0.765126 0.750000 -0.009162
C7    C     C_1   0.734875 0.234874 0.250000 -0.009159
C8    C     C_1   0.765071 0.265070 0.250000 -0.009259
C9    C     C_1   0.234930 0.734930 0.750000 -0.009261
C10   C     C_1   0.734929 0.765070 0.250000 -0.009236
C11   C     C_1   0.265072 0.234929 0.750000 -0.009236
C12   C     C_1   0.234930 0.734930 0.250000 -0.009259
C13   C     C_R   0.698942 0.801058 0.250000 -0.019482
C14   C     C_1   0.765069 0.265069 0.750000 -0.009258
C15   C     C_1   0.265072 0.234928 0.250000 -0.009234
C16   C     C_1   0.734929 0.765072 0.750000 -0.009237
C17   C     C_R   0.032859 0.419871 0.979830 -0.115024
C18   C     C_R   0.967140 0.580129 0.020170 -0.115033
C19   C     C_R   0.419850 0.967189 0.979830 -0.114962
C20   C     C_R   0.580149 0.032812 0.020170 -0.114970
C21   C     C_R   0.967140 0.580129 0.979830 -0.115032
C22   C     C_R   0.032859 0.419871 0.020170 -0.115033
C23   C     C_R   0.580149 0.032812 0.979830 -0.114964
C24   C     C_R   0.301060 0.198941 0.750000 -0.019473
C25   C     C_R   0.419850 0.967189 0.020170 -0.114963
C26   C     C_R   0.532810 0.080150 0.479830 -0.114964
C27   C     C_R   0.467189 0.919850 0.520170 -0.114964
C28   C     C_R   0.080136 0.467156 0.479830 -0.115032
C29   C     C_R   0.919863 0.532844 0.520170 -0.115023
C30   C     C_R   0.467189 0.919850 0.479830 -0.114970
C31   C     C_R   0.532810 0.080150 0.520170 -0.114962
C32   C     C_R   0.919863 0.532844 0.479830 -0.115032
C33   C     C_R   0.080136 0.467155 0.520170 -0.115032
C34   C     C_R   0.983577 0.540126 0.918775 0.078563
C35   C     C_R   0.198943 0.698942 0.250000 -0.019509
C36   C     C_R   0.016423 0.459873 0.081225 0.078560
C37   C     C_R   0.540136 0.016399 0.918776 0.078728
C38   C     C_R   0.459863 0.983601 0.081224 0.078728
C39   C     C_R   0.016422 0.459873 0.918775 0.078598
C40   C     C_R   0.983577 0.540126 0.081225 0.078566
C41   C     C_R   0.459863 0.983601 0.918776 0.078732
C42   C     C_R   0.540136 0.016400 0.081224 0.078700
C43   C     C_R   0.483601 0.959863 0.418776 0.078701
C44   C     C_R   0.516398 0.040137 0.581224 0.078734
C45   C     C_R   0.959870 0.516415 0.418776 0.078561
C46   C     C_R   0.801056 0.301056 0.750000 -0.019503
C47   C     C_R   0.040130 0.483585 0.581224 0.078565
C48   C     C_R   0.516398 0.040137 0.418776 0.078728
C49   C     C_R   0.483601 0.959863 0.581224 0.078726
C50   C     C_R   0.040130 0.483585 0.418776 0.078569
C51   C     C_R   0.959870 0.516414 0.581224 0.078600
C52   C     C_R   1.000000 0.500000 0.898409 0.011665
C53   C     C_R   1.000000 0.500000 0.101591 0.011658
C54   C     C_R   0.500000 0.000000 0.898409 0.011719
C55   C     C_R   0.500000 0.000000 0.101590 0.011712
C56   C     C_R   0.500000 0.000000 0.398410 0.011711
C57   C     C_R   0.301060 0.198940 0.250000 -0.019473
C58   C     C_R   0.500000 0.000000 0.601590 0.011719
C59   C     C_R   0.000000 0.500000 0.398409 0.011653
C60   C     C_R   1.000000 0.500000 0.601591 0.011660
C61   C     C_R   0.016485 0.459679 0.959276 0.008585
C62   C     C_R   0.983514 0.540321 0.040724 0.008584
C63   C     C_R   0.459669 0.983539 0.959276 0.008603
C64   C     C_R   0.540331 0.016462 0.040724 0.008601
C65   C     C_R   0.983514 0.540321 0.959276 0.008583
C66   C     C_R   0.016486 0.459679 0.040724 0.008583
C67   C     C_R   0.540331 0.016462 0.959276 0.008602
C68   C     C_R   0.698941 0.801060 0.750000 -0.019475
C69   C     C_R   0.459669 0.983539 0.040724 0.008602
C70   C     C_R   0.516461 0.040331 0.459276 0.008603
C71   C     C_R   0.483538 0.959669 0.540724 0.008603
C72   C     C_R   0.040325 0.483522 0.459276 0.008584
C73   C     C_R   0.959675 0.516478 0.540724 0.008585
C74   C     C_R   0.483538 0.959669 0.459276 0.008601
C75   C     C_R   0.516461 0.040331 0.540724 0.008602
C76   C     C_R   0.959675 0.516478 0.459276 0.008583
C77   C     C_R   0.040324 0.483522 0.540724 0.008584
C78   C     C_R   0.500000 0.000000 0.855894 0.525584
C79   C     C_R   0.836633 0.699423 0.778239 -0.107572
C80   C     C_R   0.500000 0.000000 0.144106 0.525566
C81   C     C_R   1.000000 0.500000 0.855894 0.525445
C82   C     C_R   1.000000 0.500000 0.144106 0.525427
C83   C     C_R   1.000000 0.500000 0.355893 0.525424
C84   C     C_R   1.000000 0.500000 0.644106 0.525442
C85   C     C_R   0.500000 0.000000 0.355894 0.525565
C86   C     C_R   0.500000 0.000000 0.644106 0.525584
C87   C     C_R   0.408984 0.908984 0.750000 0.515383
C88   C     C_R   0.591016 0.091016 0.250000 0.515393
C89   C     C_R   0.908984 0.591016 0.750000 0.515504
C90   C     C_R   0.163359 0.300569 0.221768 -0.107571
C91   C     C_R   0.091016 0.408984 0.250000 0.515520
C92   C     C_R   0.591016 0.091016 0.750000 0.515388
C93   C     C_R   0.408984 0.908984 0.250000 0.515395
C94   C     C_R   0.091016 0.408984 0.750000 0.515504
C95   C     C_R   0.908984 0.591016 0.250000 0.515519
C96   C     C_R   0.408972 0.091028 0.250000 0.513451
C97   C     C_R   0.591028 0.908972 0.750000 0.513445
C98   C     C_R   0.908971 0.408971 0.250000 0.513424
C99   C     C_R   0.091029 0.591029 0.750000 0.513422
C100  C     C_R   0.591029 0.908971 0.250000 0.513424
C101  C     C_R   0.699375 0.163411 0.778278 -0.107603
C102  C     C_R   0.408972 0.091028 0.750000 0.513452
C103  C     C_R   0.091029 0.591029 0.250000 0.513419
C104  C     C_R   0.908971 0.408971 0.750000 0.513407
C105  C     C_R   1.000000 0.500000 0.979615 0.016379
C106  C     C_R   1.000000 0.500000 0.020385 0.016381
C107  C     C_R   0.500000 0.000001 0.979615 0.016379
C108  C     C_R   0.500000 0.000000 0.020385 0.016381
C109  C     C_R   0.500000 0.000000 0.479615 0.016381
C110  C     C_R   0.500000 0.000000 0.520385 0.016379
C111  C     C_R   1.000000 0.500000 0.479615 0.016379
C112  C     C_R   0.198888 0.301112 0.250000 -0.019635
C113  C     C_R   0.300600 0.836612 0.221742 -0.107608
C114  C     C_R   1.000000 0.500000 0.520385 0.016377
C115  C     C_R   0.163369 0.300578 0.778240 -0.107579
C116  C     C_R   0.836648 0.699437 0.221773 -0.107576
C117  C     C_R   0.300606 0.836607 0.778262 -0.107608
C118  C     C_R   0.699405 0.163383 0.221746 -0.107603
C119  C     C_R   0.840587 0.296514 0.225832 -0.107580
C120  C     C_R   0.159439 0.703462 0.774198 -0.107581
C121  C     C_R   0.702215 0.839315 0.224383 -0.107556
C122  C     C_R   0.298146 0.161042 0.775998 -0.107547
C123  C     C_R   0.159500 0.703401 0.225728 -0.107582
C124  C     C_R   0.698886 0.198886 0.750000 -0.019625
C125  C     C_R   0.840165 0.296931 0.774666 -0.107577
C126  C     C_R   0.298126 0.161022 0.224023 -0.107545
C127  C     C_R   0.701922 0.839025 0.775927 -0.107548
C128  C     C_R   0.338978 0.201874 0.275977 -0.107546
C129  C     C_R   0.660976 0.798079 0.724072 -0.107549
C130  C     C_R   0.203401 0.659499 0.274271 -0.107580
C131  C     C_R   0.796932 0.340165 0.725334 -0.107578
C132  C     C_R   0.660684 0.797784 0.275617 -0.107556
C133  C     C_R   0.338959 0.201855 0.724003 -0.107545
C134  C     C_R   0.796514 0.340586 0.274169 -0.107582
C135  C     C_R   0.301114 0.801113 0.250000 -0.019634
C136  C     C_R   0.203462 0.659438 0.725802 -0.107582
C137  C     C_R   0.336607 0.800605 0.721738 -0.107607
C138  C     C_R   0.663384 0.199404 0.278255 -0.107608
C139  C     C_R   0.199423 0.336633 0.721761 -0.107572
C140  C     C_R   0.800563 0.663352 0.278226 -0.107574
C141  C     C_R   0.663411 0.199375 0.721722 -0.107604
C142  C     C_R   0.336613 0.800599 0.278257 -0.107602
C143  C     C_R   0.800578 0.663368 0.721760 -0.107579
C144  C     C_R   0.199431 0.336641 0.278232 -0.107573
C145  C     C_R   0.871819 0.664432 0.778387 0.092853
C146  C     C_R   0.198889 0.301112 0.750000 -0.019632
C147  C     C_R   0.128173 0.335560 0.221620 0.092856
C148  C     C_R   0.664384 0.128225 0.778426 0.092676
C149  C     C_R   0.335591 0.871798 0.221595 0.092670
C150  C     C_R   0.128182 0.335569 0.778388 0.092803
C151  C     C_R   0.871834 0.664446 0.221626 0.092845
C152  C     C_R   0.335597 0.871792 0.778410 0.092669
C153  C     C_R   0.664413 0.128198 0.221598 0.092711
C154  C     C_R   0.875795 0.331481 0.225700 0.091513
C155  C     C_R   0.124230 0.668494 0.774330 0.091512
C156  C     C_R   0.667241 0.874518 0.224244 0.091518
C157  C     C_R   0.801112 0.698887 0.250000 -0.019640
C158  C     C_R   0.333122 0.125841 0.776138 0.091504
C159  C     C_R   0.124292 0.668433 0.225596 0.091515
C160  C     C_R   0.875371 0.331901 0.774800 0.091523
C161  C     C_R   0.333102 0.125822 0.223882 0.091506
C162  C     C_R   0.666945 0.874225 0.776068 0.091505
C163  C     C_R   0.374178 0.166898 0.276118 0.091506
C164  C     C_R   0.625775 0.833055 0.723932 0.091506
C165  C     C_R   0.168433 0.624291 0.274404 0.091516
C166  C     C_R   0.831901 0.375371 0.725200 0.091523
C167  C     C_R   0.625482 0.832758 0.275756 0.091517
C168  C     C_R   0.301113 0.801113 0.750000 -0.019632
C169  C     C_R   0.374159 0.166878 0.723862 0.091503
C170  C     C_R   0.831482 0.375795 0.274300 0.091513
C171  C     C_R   0.168494 0.624230 0.725670 0.091513
C172  C     C_R   0.371793 0.835597 0.721590 0.092676
C173  C     C_R   0.628198 0.164413 0.278402 0.092670
C174  C     C_R   0.164431 0.371819 0.721613 0.092853
C175  C     C_R   0.835553 0.628166 0.278374 0.092855
C176  C     C_R   0.628225 0.164384 0.721574 0.092668
C177  C     C_R   0.371799 0.835590 0.278405 0.092711
C178  C     C_R   0.835569 0.628182 0.721612 0.092803
C179  C     C_R   0.698888 0.198886 0.250000 -0.019636
C180  C     C_R   0.164440 0.371827 0.278380 0.092844
C181  C     C_R   0.871756 0.628244 0.750000 0.028002
C182  C     C_R   0.128244 0.371756 0.250000 0.028001
C183  C     C_R   0.628243 0.128243 0.750000 0.028010
C184  C     C_R   0.371757 0.871756 0.250000 0.028003
C185  C     C_R   0.128244 0.371756 0.750000 0.028001
C186  C     C_R   0.871756 0.628244 0.250000 0.028000
C187  C     C_R   0.371757 0.871757 0.750000 0.028004
C188  C     C_R   0.628244 0.128243 0.250000 0.028001
C189  C     C_R   0.871720 0.371719 0.250000 0.027585
C190  C     C_R   0.801058 0.301058 0.250000 -0.019510
C191  C     C_R   0.128280 0.628280 0.750000 0.027584
C192  C     C_R   0.628280 0.871720 0.250000 0.027614
C193  C     C_R   0.371721 0.128279 0.750000 0.027657
C194  C     C_R   0.128281 0.628281 0.250000 0.027581
C195  C     C_R   0.871718 0.371718 0.750000 0.027572
C196  C     C_R   0.371721 0.128279 0.250000 0.027653
C197  C     C_R   0.628279 0.871721 0.750000 0.027649
C198  C     C_1   0.765125 0.734876 0.750000 -0.009128
C199  C     C_1   0.234876 0.265124 0.250000 -0.009124
C200  C     C_1   0.734873 0.234873 0.750000 -0.009159
F1    F     F_    0.905500 0.666001 0.806537 -0.151901
F2    F     F_    0.086358 0.674324 0.798258 -0.153311
F3    F     F_    0.671757 0.911075 0.198817 -0.153363
F4    F     F_    0.328989 0.089663 0.801963 -0.153402
F5    F     F_    0.086484 0.674200 0.201590 -0.153310
F6    F     F_    0.912826 0.326485 0.799223 -0.153314
F7    F     F_    0.328948 0.089623 0.198078 -0.153398
F8    F     F_    0.671149 0.910474 0.801820 -0.153396
F9    F     F_    0.410377 0.171051 0.301922 -0.153398
F10   F     F_    0.589526 0.828851 0.698180 -0.153395
F11   F     F_    0.174200 0.586484 0.298410 -0.153309
F12   F     F_    0.094483 0.333981 0.193477 -0.151896
F13   F     F_    0.826485 0.412826 0.700777 -0.153314
F14   F     F_    0.588925 0.828243 0.301183 -0.153363
F15   F     F_    0.410337 0.171011 0.698037 -0.153403
F16   F     F_    0.825625 0.413693 0.298197 -0.153309
F17   F     F_    0.174324 0.586358 0.701742 -0.153311
F18   F     F_    0.405445 0.834057 0.693416 -0.152037
F19   F     F_    0.594536 0.165963 0.306568 -0.152039
F20   F     F_    0.166000 0.405499 0.693462 -0.151901
F21   F     F_    0.833968 0.594469 0.306511 -0.151895
F22   F     F_    0.594592 0.165903 0.693384 -0.152046
F23   F     F_    0.665903 0.094592 0.806616 -0.152040
F24   F     F_    0.405457 0.834045 0.306574 -0.152010
F25   F     F_    0.834000 0.594501 0.693462 -0.151934
F26   F     F_    0.166018 0.405517 0.306523 -0.151904
F27   F     F_    0.966774 0.578662 0.899261 -0.158321
F28   F     F_    0.033225 0.421337 0.100738 -0.158324
F29   F     F_    0.578683 0.033179 0.899262 -0.158231
F30   F     F_    0.421316 0.966822 0.100737 -0.158234
F31   F     F_    0.033225 0.421337 0.899262 -0.158304
F32   F     F_    0.966774 0.578662 0.100738 -0.158321
F33   F     F_    0.421317 0.966821 0.899262 -0.158232
F34   F     F_    0.334045 0.905456 0.193425 -0.152039
F35   F     F_    0.578683 0.033179 0.100737 -0.158246
F36   F     F_    0.466822 0.921316 0.399263 -0.158246
F37   F     F_    0.533177 0.078684 0.600737 -0.158229
F38   F     F_    0.921330 0.533211 0.399262 -0.158322
F39   F     F_    0.078670 0.466789 0.600738 -0.158318
F40   F     F_    0.533177 0.078684 0.399263 -0.158235
F41   F     F_    0.466822 0.921316 0.600738 -0.158234
F42   F     F_    0.078670 0.466789 0.399262 -0.158317
F43   F     F_    0.921330 0.533210 0.600738 -0.158300
F44   F     F_    0.094502 0.334001 0.806539 -0.151934
F45   F     F_    0.905531 0.666032 0.193488 -0.151902
F46   F     F_    0.334057 0.905445 0.806584 -0.152043
F47   F     F_    0.665963 0.094535 0.193433 -0.152009
F48   F     F_    0.913693 0.325625 0.201803 -0.153309
H1    H     H_    0.837078 0.726934 0.800229 0.134737
H2    H     H_    0.155850 0.734120 0.793007 0.134818
H3    H     H_    0.731891 0.841921 0.204455 0.134782
H4    H     H_    0.268754 0.158719 0.796225 0.134770
H5    H     H_    0.155960 0.734011 0.206862 0.134816
H6    H     H_    0.843442 0.266585 0.793843 0.134805
H7    H     H_    0.268719 0.158684 0.203811 0.134772
H8    H     H_    0.731366 0.841400 0.796100 0.134774
H9    H     H_    0.341315 0.231281 0.296189 0.134772
H10   H     H_    0.658601 0.768635 0.703900 0.134772
H11   H     H_    0.234011 0.655959 0.293138 0.134818
H12   H     H_    0.162907 0.273051 0.199784 0.134738
H13   H     H_    0.766585 0.343442 0.706157 0.134805
H14   H     H_    0.658079 0.768109 0.295545 0.134782
H15   H     H_    0.341281 0.231247 0.703776 0.134772
H16   H     H_    0.765837 0.344194 0.292954 0.134819
H17   H     H_    0.234119 0.655850 0.706993 0.134819
H18   H     H_    0.337031 0.773116 0.699730 0.134753
H19   H     H_    0.662952 0.226901 0.300256 0.134755
H20   H     H_    0.226933 0.337078 0.699771 0.134736
H21   H     H_    0.773040 0.662894 0.300206 0.134744
H22   H     H_    0.663001 0.226850 0.699702 0.134741
H23   H     H_    0.726850 0.163001 0.800298 0.134741
H24   H     H_    0.337042 0.773105 0.300261 0.134756
H25   H     H_    0.773067 0.662923 0.699770 0.134733
H26   H     H_    0.226949 0.337093 0.300216 0.134737
H27   H     H_    0.045692 0.388571 0.964804 0.146818
H28   H     H_    0.954307 0.611428 0.035195 0.146812
H29   H     H_    0.388543 0.954375 0.964804 0.146844
H30   H     H_    0.611456 0.045626 0.035195 0.146840
H31   H     H_    0.954307 0.611428 0.964804 0.146812
H32   H     H_    0.045692 0.388571 0.035196 0.146812
H33   H     H_    0.611456 0.045626 0.964804 0.146843
H34   H     H_    0.273106 0.837041 0.199738 0.134752
H35   H     H_    0.388543 0.954375 0.035195 0.146844
H36   H     H_    0.545623 0.111458 0.464805 0.146844
H37   H     H_    0.454376 0.888543 0.535196 0.146843
H38   H     H_    0.111438 0.454329 0.464805 0.146812
H39   H     H_    0.888561 0.545670 0.535195 0.146818
H40   H     H_    0.454376 0.888543 0.464805 0.146840
H41   H     H_    0.545623 0.111458 0.535195 0.146845
H42   H     H_    0.888561 0.545670 0.464804 0.146812
H43   H     H_    0.111438 0.454329 0.535196 0.146811
H44   H     H_    0.162924 0.273068 0.800230 0.134732
H45   H     H_    0.837105 0.726960 0.199794 0.134743
H46   H     H_    0.273116 0.837031 0.800270 0.134753
H47   H     H_    0.726902 0.162951 0.199745 0.134759
H48   H     H_    0.844194 0.265836 0.207047 0.134822
O1    O     O_3   0.500000 0.000000 0.750000 -0.473002
O2    O     O_R   0.539300 0.000000 0.162640 -0.516792
O3    O     O_R   0.000000 0.539300 0.837360 -0.517011
O4    O     O_R   0.000000 0.460700 0.162640 -0.517007
O5    O     O_R   0.039300 0.500000 0.337360 -0.516987
O6    O     O_R   0.960700 0.500000 0.662640 -0.516920
O7    O     O_R   0.500000 0.960700 0.337360 -0.516791
O8    O     O_R   0.500000 0.039300 0.662640 -0.516720
O9    O     O_R   0.960700 0.500000 0.337360 -0.517007
O10   O     O_R   0.039300 0.500000 0.662640 -0.517010
O11   O     O_R   0.500000 0.039300 0.337360 -0.516719
O12   O     O_3   0.500000 0.000000 0.250000 -0.473002
O13   O     O_R   0.500000 0.960700 0.662640 -0.516737
O14   O     O_R   0.405600 0.944810 0.772850 -0.515805
O15   O     O_R   0.594400 0.055190 0.227150 -0.515738
O16   O     O_R   0.944810 0.594400 0.772850 -0.515532
O17   O     O_R   0.055190 0.405600 0.227150 -0.515533
O18   O     O_R   0.594400 0.055190 0.772850 -0.515794
O19   O     O_R   0.405600 0.944810 0.227150 -0.515807
O20   O     O_R   0.055190 0.405600 0.772850 -0.515614
O21   O     O_R   0.944810 0.594400 0.227150 -0.515552
O22   O     O_R   0.405600 0.055190 0.227150 -0.518128
O23   O     O_3   1.000000 0.500000 0.750000 -0.472995
O24   O     O_R   0.594400 0.944810 0.772850 -0.518131
O25   O     O_R   0.944810 0.405600 0.227150 -0.518125
O26   O     O_R   0.055190 0.594400 0.772850 -0.518126
O27   O     O_R   0.594400 0.944810 0.227150 -0.518120
O28   O     O_R   0.405600 0.055190 0.772850 -0.518130
O29   O     O_R   0.055190 0.594400 0.227150 -0.518122
O30   O     O_R   0.944810 0.405600 0.772850 -0.518116
O31   O     O_R   0.905600 0.444810 0.272850 -0.518123
O32   O     O_R   0.094400 0.555190 0.727150 -0.518124
O33   O     O_R   0.444810 0.094400 0.272850 -0.518128
O34   O     O_3   0.000000 0.500000 0.250000 -0.472994
O35   O     O_R   0.555190 0.905600 0.727150 -0.518128
O36   O     O_R   0.094400 0.555190 0.272850 -0.518122
O37   O     O_R   0.905600 0.444810 0.727150 -0.518115
O38   O     O_R   0.555190 0.905600 0.272850 -0.518121
O39   O     O_R   0.444810 0.094400 0.727150 -0.518133
O40   O     O_R   0.905600 0.555190 0.727150 -0.515615
O41   O     O_R   0.094400 0.444810 0.272850 -0.515552
O42   O     O_R   0.444810 0.905600 0.727150 -0.515792
O43   O     O_R   0.555190 0.094400 0.272850 -0.515807
O44   O     O_R   0.094400 0.444810 0.727150 -0.515533
O45   O     O_R   0.539300 0.000000 0.837360 -0.516735
O46   O     O_R   0.905600 0.555190 0.272850 -0.515534
O47   O     O_R   0.555190 0.094400 0.727150 -0.515807
O48   O     O_R   0.444810 0.905600 0.272850 -0.515739
O49   O     O_R   0.460700 0.000000 0.162640 -0.516719
O50   O     O_R   1.000000 0.460700 0.837360 -0.516921
O51   O     O_R   0.000000 0.539300 0.162640 -0.516989
O52   O     O_R   0.460700 0.000000 0.837360 -0.516722
Zn1   Zn    Zn3+2 0.500000 0.943960 0.717190 0.984510
Zn2   Zn    Zn3+2 0.000000 0.556040 0.782810 0.984491
Zn3   Zn    Zn3+2 0.443960 0.000000 0.217190 0.984511
Zn4   Zn    Zn3+2 0.556040 0.000000 0.782810 0.984511
Zn5   Zn    Zn3+2 0.000000 0.556040 0.217190 0.984492
Zn6   Zn    Zn3+2 0.000000 0.443960 0.782810 0.984496
Zn7   Zn    Zn3+2 0.556040 0.000000 0.217190 0.984508
Zn8   Zn    Zn3+2 0.443960 0.000000 0.782810 0.984512
Zn9   Zn    Zn3+2 0.500000 0.056040 0.282810 0.984511
Zn10  Zn    Zn3+2 0.943960 0.500000 0.717190 0.984496
Zn11  Zn    Zn3+2 0.056040 0.500000 0.282810 0.984493
Zn12  Zn    Zn3+2 0.500000 0.056040 0.717190 0.984512
Zn13  Zn    Zn3+2 0.500000 0.943960 0.282810 0.984508
Zn14  Zn    Zn3+2 0.056040 0.500000 0.717190 0.984491
Zn15  Zn    Zn3+2 0.943960 0.500000 0.282810 0.984492
Zn16  Zn    Zn3+2 0.000000 0.443960 0.217190 0.984492

loop_
_geom_bond_atom_site_label_1
_geom_bond_atom_site_label_2
_ccdc_geom_bond_type
C159  C194  A    
C102  C193  S    
C101  C148  A    
C18   C21   A    
C15   C57   S    
C102  O39   A    
C1    C198  S    
C94   C185  S    
C90   H12   S    
C57   C128  A    
C91   O17   A    
C172  F18   S    
O9    Zn15  S    
O6    Zn10  S    
C50   C59   A    
C120  H2    S    
C43   F36   S    
C81   O3    A    
C36   C66   A    
C121  H3    S    
C142  C177  A    
C83   O9    A    
O8    Zn12  S    
C118  C153  A    
C144  H26   S    
C143  C178  A    
C50   C72   A    
C36   C53   A    
C17   C61   A    
C135  C142  A    
C38   C55   A    
C131  C166  A    
C8    C190  S    
O44   Zn14  S    
C119  C190  A    
C64   C108  A    
C40   F32   S    
C155  F2    S    
C61   C105  A    
O27   Zn7   S    
O26   Zn2   S    
C83   O5    A    
C38   C69   A    
O14   Zn8   S    
O37   Zn10  S    
C103  O29   A    
C150  C185  A    
C152  C187  A    
C180  C182  A    
O34   Zn5   S    
C163  F9    S    
C39   C61   A    
C116  H45   S    
C158  C193  A    
C96   O22   A    
C169  C193  A    
C120  C155  A    
C73   C114  A    
C129  C164  A    
C53   C82   S    
C102  O28   A    
C42   C55   A    
O23   Zn2   S    
C136  C171  A    
C122  C158  A    
C141  H22   S    
C84   O6    A    
C173  C188  A    
C85   O7    A    
C154  C189  A    
C28   C33   A    
C86   O8    A    
C1    C79   A    
O39   Zn12  S    
C25   C69   A    
C95   O21   A    
C147  F12   S    
C42   C64   A    
C57   C126  A    
C16   C198  T    
C164  C197  A    
C80   O49   A    
C45   C59   A    
O21   Zn5   S    
C48   C70   A    
C49   F41   S    
C62   C106  A    
O11   Zn9   S    
C177  C184  A    
C175  C186  A    
C55   C80   S    
C130  C165  A    
C41   F33   S    
C163  C196  A    
C104  C195  S    
C82   O4    A    
C128  C163  A    
C177  F24   S    
C122  H4    S    
C49   C71   A    
C91   C182  S    
C115  H44   S    
O10   Zn14  S    
C161  F7    S    
O50   Zn6   S    
C137  C168  A    
C95   C186  S    
O34   Zn11  S    
C151  C186  A    
C20   C64   A    
C121  C156  A    
O46   Zn15  S    
C99   O26   A    
C6    C9    T    
C125  C160  A    
C7    C8    T    
C37   F29   S    
C115  C146  A    
C176  F22   S    
O12   Zn3   S    
O38   Zn13  S    
C20   H30   S    
O23   Zn6   S    
C21   H31   S    
C30   C74   A    
C22   H32   S    
C138  H19   S    
C117  C168  A    
C5    C10   T    
C145  C181  A    
C140  H21   S    
C42   F35   S    
C23   C67   A    
O18   Zn4   S    
O5    Zn11  S    
C13   C132  A    
C144  C180  A    
O7    Zn13  S    
C149  C184  A    
C107  C108  A    
C103  C194  S    
C25   H35   S    
O25   Zn16  S    
C26   H36   S    
C113  H34   S    
O33   Zn9   S    
O22   Zn3   S    
C100  C192  S    
O19   Zn3   S    
C138  C179  A    
C58   C86   S    
C65   C105  A    
C17   H27   S    
C159  F5    S    
C18   H28   S    
O4    Zn16  S    
C169  F15   S    
C6    C168  S    
C101  C124  A    
O13   Zn1   S    
C97   C197  S    
C164  F10   S    
C2    C120  A    
C18   C62   A    
C87   C187  S    
C160  F6    S    
C27   C71   A    
O23   Zn14  S    
C90   C147  A    
C13   C121  A    
C137  H18   S    
C20   C23   A    
C175  F21   S    
O1    Zn8   S    
C12   C35   S    
C35   C130  A    
C19   C63   A    
C97   O35   A    
C47   F39   S    
O32   Zn14  S    
C127  C162  A    
C113  C135  A    
C124  C141  A    
C100  O27   A    
O52   Zn8   S    
C132  H14   S    
C133  H15   S    
C100  O38   A    
C75   C110  A    
C162  F8    S    
C51   F43   S    
C32   C76   A    
C31   H41   S    
C94   O44   A    
O12   Zn7   S    
C85   O11   A    
C128  H9    S    
C35   C123  A    
O2    Zn7   S    
C84   O10   A    
C33   C77   A    
C76   C111  A    
C37   C67   A    
C180  F26   S    
C94   O20   A    
C52   C81   S    
C166  F13   S    
C134  C170  A    
C139  C174  A    
C51   C60   A    
C156  F3    S    
C116  C151  A    
O30   Zn6   S    
C131  H13   S    
C99   O32   A    
C86   O13   A    
C139  C146  A    
C46   C125  A    
C132  C167  A    
C165  C194  A    
C14   C46   S    
C101  H23   S    
C170  C189  A    
C45   C76   A    
C148  F23   S    
C59   C83   S    
C29   C32   A    
O20   Zn6   S    
O23   Zn10  S    
C174  C185  A    
O45   Zn4   S    
O1    Zn4   S    
C170  F16   S    
C172  C187  A    
C71   C110  A    
C133  C169  A    
C178  F25   S    
O34   Zn15  S    
C98   O25   A    
C44   C58   A    
C141  C176  A    
C126  C161  A    
C152  F46   S    
O36   Zn11  S    
C150  F44   S    
C72   C111  A    
C96   O33   A    
C29   H39   S    
C30   H40   S    
C28   C72   A    
C98   C189  S    
C48   F40   S    
C23   H33   S    
O12   Zn9   S    
C89   O40   A    
O24   Zn4   S    
C79   C145  A    
C14   C200  T    
C10   C13   S    
O40   Zn10  S    
C88   O43   A    
C27   H37   S    
C31   C75   A    
C138  C173  A    
C24   C122  A    
C171  C191  A    
C4    C11   T    
C68   C127  A    
C171  F17   S    
C160  C195  A    
C147  C182  A    
C19   H29   S    
C119  C154  A    
C5    C157  S    
C26   C70   A    
C60   C84   S    
C77   C114  A    
C89   O16   A    
O35   Zn1   S    
O41   Zn11  S    
C95   O46   A    
C88   O15   A    
C134  H16   S    
O43   Zn9   S    
C21   C65   A    
C151  F45   S    
C153  C188  A    
C105  C106  A    
C124  C200  S    
C34   C52   A    
C17   C22   A    
O1    Zn12  S    
C117  H46   S    
C109  C110  A    
C99   C191  S    
O48   Zn13  S    
C112  C144  A    
C56   C85   S    
C98   O31   A    
C140  C175  A    
C153  F47   S    
C111  C114  A    
C3    C135  S    
C123  H5    S    
C178  C181  A    
C96   C196  S    
O17   Zn16  S    
C161  C196  A    
O15   Zn7   S    
C143  H25   S    
C103  O36   A    
C78   O52   A    
C82   O51   A    
C89   C181  S    
C54   C78   S    
C32   H42   S    
C24   C133  A    
C176  C183  A    
C139  H20   S    
O31   Zn15  S    
C158  F4    S    
C90   C112  A    
C44   F37   S    
C74   C109  A    
C130  H11   S    
C38   F30   S    
O16   Zn2   S    
C167  C192  A    
C162  C197  A    
C81   O50   A    
C78   O45   A    
C148  C183  A    
C93   C184  S    
C29   C73   A    
C93   O19   A    
C11   C24   S    
O3    Zn2   S    
C40   C62   A    
C45   F38   S    
C22   C66   A    
C3    C12   T    
C47   C60   A    
O1    Zn1   S    
C126  H7    S    
C16   C68   S    
C112  C199  S    
C80   O2    A    
C118  C179  A    
C87   O14   A    
C39   C52   A    
C26   C31   A    
C36   F28   S    
O42   Zn1   S    
C27   C30   A    
C79   H1    S    
C125  H6    S    
C66   C106  A    
C173  F19   S    
C34   C65   A    
C33   H43   S    
C69   C108  A    
C92   O18   A    
C127  H8    S    
C113  C149  A    
C118  H47   S    
C166  C195  A    
C92   O47   A    
C129  H10   S    
C46   C131  A    
C165  F11   S    
C97   O24   A    
C2    C136  A    
C49   C58   A    
C136  H17   S    
O49   Zn3   S    
C44   C75   A    
O28   Zn8   S    
C39   F31   S    
C1    C143  A    
C70   C109  A    
C140  C157  A    
C15   C199  T    
C137  C172  A    
C4    C146  S    
C7    C179  S    
O51   Zn5   S    
C93   O48   A    
C155  C191  A    
C37   C54   A    
C156  C192  A    
C154  F48   S    
O12   Zn13  S    
C47   C77   A    
C63   C107  A    
C48   C56   A    
C119  H48   S    
C51   C73   A    
C50   F42   S    
C92   C183  S    
C149  F34   S    
C91   O41   A    
C134  C190  A    
C34   F27   S    
C116  C157  A    
C104  O37   A    
C145  F1    S    
C2    C9    S    
C67   C107  A    
C43   C74   A    
C115  C150  A    
C28   H38   S    
C117  C152  A    
C68   C129  A    
C19   C25   A    
C87   O42   A    
C142  H24   S    
C41   C54   A    
C123  C159  A    
O34   Zn16  S    
O47   Zn12  S    
C43   C56   A    
C88   C188  S    
C174  F20   S    
C40   C53   A    
C41   C63   A    
C167  F14   S    
C104  O30   A    
O29   Zn5   S    
