data_mof_unit_29080.cif
_audit_creation_date              2012-10-26T18:26:27-0400
_audit_creation_method            fapswitch 2.2
_symmetry_space_group_name_H-M    P1
_symmetry_Int_Tables_number       1
_space_group_crystal_system       triclinic
_cell_length_a                    15.844592
_cell_length_b                    8.693312
_cell_length_c                    7.452735
_cell_angle_alpha                 102.996384
_cell_angle_beta                  94.050409
_cell_angle_gamma                 92.228485
_cell_volume                      996.174813945

loop_
_atom_site_label
_atom_site_type_symbol
_atom_type_description
_atom_site_fract_x
_atom_site_fract_y
_atom_site_fract_z
_atom_type_partial_charge
C1    C     C_R   0.497481 0.199742 0.453277 0.547952
C2    C     C_3   0.977109 0.648727 0.570836 -0.126048
C3    C     C_1   0.250539 0.500136 0.507369 -0.002838
C4    C     C_1   0.749461 0.499864 0.492631 -0.002838
C5    C     C_3   0.032838 0.547766 0.671127 0.257553
C6    C     C_3   0.967162 0.452234 0.328873 0.257553
C7    C     C_3   0.083247 0.499483 0.502345 0.046842
C8    C     C_3   0.916753 0.500517 0.497655 0.046842
C9    C     C_1   0.174980 0.499990 0.507030 0.000574
C10   C     C_1   0.825020 0.500010 0.492970 0.000574
C11   C     C_R   0.502519 0.800258 0.546723 0.547952
C12   C     C_R   0.339995 0.499824 0.502489 0.548640
C13   C     C_R   0.660005 0.500176 0.497511 0.548639
C14   C     C_2   0.496274 0.031852 0.427033 -0.149292
C15   C     C_2   0.503726 0.968148 0.572967 -0.149292
C16   C     C_3   0.971825 0.400770 0.602228 -0.122634
C17   C     C_3   0.028175 0.599230 0.397772 -0.122634
C18   C     C_3   0.022891 0.351273 0.429164 -0.126048
Cu1   Cu    Cu3+1 0.509330 0.517380 0.684380 0.981413
Cu2   Cu    Cu3+1 0.490670 0.482620 0.315620 0.981413
H1    H     H_    0.042179 0.230536 0.367978 0.119881
H2    H     H_    0.022229 0.623441 0.930134 0.324169
H3    H     H_    0.957821 0.769464 0.632022 0.119881
H4    H     H_    0.948269 0.322284 0.688724 0.128650
H5    H     H_    0.051731 0.677716 0.311276 0.128650
H6    H     H_    0.489245 0.960297 0.286371 0.137631
H7    H     H_    0.510755 0.039703 0.713629 0.137631
H8    H     H_    0.434439 0.377513 0.948756 0.242763
H9    H     H_    0.565561 0.622487 0.051244 0.242762
H10   H     H_    0.977771 0.376559 0.069866 0.324169
N1    N     N_2   0.476600 0.456420 0.038510 -0.252529
N2    N     N_2   0.523400 0.543580 0.961490 -0.252529
O1    O     O_R   0.506070 0.286130 0.619780 -0.507033
O2    O     O_3   0.070075 0.597982 0.851745 -0.690505
O3    O     O_R   0.493930 0.713870 0.380220 -0.507033
O4    O     O_R   0.490300 0.256770 0.308360 -0.497265
O5    O     O_R   0.509700 0.743230 0.691640 -0.497266
O6    O     O_R   0.386960 0.514660 0.655680 -0.495756
O7    O     O_R   0.613040 0.485340 0.344320 -0.495756
O8    O     O_R   0.371190 0.485310 0.344260 -0.492169
O9    O     O_R   0.628810 0.514690 0.655740 -0.492168
O10   O     O_3   0.929925 0.402018 0.148255 -0.690505

loop_
_geom_bond_atom_site_label_1
_geom_bond_atom_site_label_2
_ccdc_geom_bond_type
C12   O8    A    
C3    C9    T    
Cu1   O6    S    
C1    C14   S    
C18   H1    S    
C15   H7    S    
N1    N2    D    
C7    C18   S    
C17   H5    S    
C5    O2    S    
C8    C16   S    
C13   O9    A    
C1    O1    A    
C6    C17   S    
C16   H4    S    
C14   H6    S    
C2    C17   S    
Cu1   O9    S    
H2    O2    S    
Cu1   N2    S    
C8    C10   S    
H9    N2    S    
C5    C7    S    
C12   O6    A    
Cu2   O8    S    
C6    C18   S    
C13   O7    A    
C2    C5    S    
C4    C10   T    
Cu2   O4    S    
C7    C9    S    
C2    H3    S    
C16   C18   S    
C6    O10   S    
C4    C13   S    
C11   O5    A    
Cu2   O7    S    
C14   C15   D    
H10   O10   S    
C5    C16   S    
C6    C8    S    
C3    C12   S    
Cu1   O5    S    
Cu2   O3    S    
C11   C15   S    
C11   O3    A    
H8    N1    S    
C2    C8    S    
Cu1   Cu2   S    
C1    O4    A    
Cu1   O1    S    
C7    C17   S    
Cu2   N1    S    
