data_mof_unit_13440.cif
_audit_creation_date              2012-10-26T18:53:23-0400
_audit_creation_method            fapswitch 2.2
_symmetry_space_group_name_H-M    P1
_symmetry_Int_Tables_number       1
_space_group_crystal_system       triclinic
_cell_length_a                    14.711698
_cell_length_b                    14.621318
_cell_length_c                    15.873257
_cell_angle_alpha                 76.87105
_cell_angle_beta                  102.595766
_cell_angle_gamma                 114.708862
_cell_volume                      2991.32356431

loop_
_atom_site_label
_atom_site_type_symbol
_atom_type_description
_atom_site_fract_x
_atom_site_fract_y
_atom_site_fract_z
_atom_type_partial_charge
C1    C     C_R   0.880475 0.311926 0.515123 0.541413
C2    C     C_R   0.187097 0.797435 0.487047 -0.030290
C3    C     C_R   0.784186 0.024840 0.545092 -0.128408
C4    C     C_R   0.999638 0.500091 0.659658 0.550981
C5    C     C_R   0.850596 0.126789 0.538543 -0.133219
C6    C     C_R   0.709998 0.176937 0.524033 -0.136354
C7    C     C_R   0.641908 0.074645 0.533328 0.030712
C8    C     C_R   0.680093 0.998371 0.540909 0.047903
C9    C     C_R   0.536584 0.046745 0.531401 0.033797
C10   C     C_R   0.469084 0.943994 0.525624 0.037927
C11   C     C_R   0.510337 0.869895 0.534170 -0.137702
C12   C     C_3   0.045089 0.424341 0.073218 -0.212848
C13   C     C_R   0.613979 0.896738 0.543024 -0.133472
C14   C     C_R   0.496849 0.118051 0.536294 -0.134631
C15   C     C_R   0.393750 0.091752 0.528483 -0.130405
C16   C     C_R   0.119591 0.688550 0.486500 0.547440
C17   C     C_R   0.326393 0.994005 0.514781 0.022728
C18   C     C_R   0.362801 0.919020 0.512779 0.027749
C19   C     C_R   0.222598 0.971249 0.502454 -0.129411
C20   C     C_R   0.152420 0.874490 0.487386 0.054603
C21   C     C_R   0.291471 0.822153 0.496715 -0.155090
C22   C     C_R   0.713602 0.665929 0.352729 -0.150410
C23   C     C_3   0.000668 0.500035 0.082883 0.067544
C24   C     C_R   0.794842 0.635810 0.375401 0.074231
C25   C     C_R   0.715896 0.510751 0.489845 0.036140
C26   C     C_R   0.629370 0.536057 0.468745 0.002417
C27   C     C_R   0.631016 0.616912 0.399422 0.033235
C28   C     C_R   0.000406 0.499992 0.340332 0.552673
C29   C     C_R   0.542270 0.484874 0.513473 0.025558
C30   C     C_R   0.459426 0.517581 0.489005 0.022442
C31   C     C_R   0.466795 0.600634 0.421102 -0.144365
C32   C     C_R   0.550482 0.648479 0.377022 -0.129969
C33   C     C_R   0.534690 0.401475 0.581040 -0.144075
C34   C     C_3   0.064950 0.607881 0.039339 -0.215190
C35   C     C_R   0.449925 0.352000 0.623695 -0.135439
C36   C     C_R   0.368974 0.382974 0.600791 0.038829
C37   C     C_R   0.371890 0.465754 0.533138 0.003124
C38   C     C_R   0.284370 0.330928 0.644850 -0.158124
C39   C     C_R   0.202671 0.360391 0.621590 0.044136
C40   C     C_3   0.044366 0.424501 0.975407 -0.214581
C41   C     C_R   0.285747 0.491673 0.512447 0.037317
C42   C     C_3   0.890512 0.468238 0.936242 -0.214665
C43   C     C_3   0.891228 0.468067 0.034056 -0.213321
C44   C     C_1   0.001180 0.499854 0.250801 -0.032786
C45   C     C_3   0.064225 0.608051 0.941522 -0.212396
C46   C     C_3   0.999453 0.500318 0.917049 0.067463
C47   C     C_2   0.044786 0.859367 0.470993 0.589574
C48   C     C_1   0.001214 0.499888 0.175209 -0.075614
C49   C     C_1   0.998905 0.500424 0.824735 -0.074329
C50   C     C_1   0.998918 0.500361 0.749163 -0.030484
C51   C     C_R   0.813396 0.203457 0.526378 -0.006303
Cu1   Cu    Cu3+1 0.081750 0.475690 0.522550 0.933479
Cu2   Cu    Cu3+1 0.918250 0.524310 0.477450 0.967723
H1    H     H_    0.000068 0.346096 0.103923 0.119370
H2    H     H_    0.683726 0.237905 0.511617 0.119744
H3    H     H_    0.999004 0.346326 0.959195 0.115816
H4    H     H_    0.464850 0.789653 0.536666 0.106826
H5    H     H_    0.543687 0.194533 0.548693 0.098589
H6    H     H_    0.195951 0.029970 0.503157 0.128521
H7    H     H_    0.552152 0.711175 0.324661 0.109958
H8    H     H_    0.280434 0.552219 0.461134 0.116895
H9    H     H_    0.136998 0.319824 0.655110 0.125568
H10   H     H_    0.447527 0.288165 0.675024 0.107557
H11   H     H_    0.715285 0.727135 0.298912 0.101713
H12   H     H_    0.122842 0.445994 0.962925 0.117555
H13   H     H_    0.858154 0.672809 0.338870 0.167990
H14   H     H_    0.722682 0.452491 0.543050 0.116042
H15   H     H_    0.856543 0.521715 0.895175 0.119416
H16   H     H_    0.408650 0.630635 0.399799 0.090904
H17   H     H_    0.592958 0.371638 0.602368 0.086961
H18   H     H_    0.281198 0.267430 0.696687 0.093191
H19   H     H_    0.842374 0.390862 0.919302 0.114631
H20   H     H_    0.843418 0.390606 0.064036 0.117582
H21   H     H_    0.857577 0.521452 0.039912 0.117843
H22   H     H_    0.143058 0.632875 0.928417 0.118642
H23   H     H_    0.123907 0.445781 0.107652 0.118156
H24   H     H_    0.033371 0.664040 0.900560 0.122575
H25   H     H_    0.144126 0.632611 0.073160 0.115800
H26   H     H_    0.929336 0.867708 0.513490 0.329605
H27   H     H_    0.034451 0.663798 0.045301 0.118343
H28   H     H_    0.642384 0.837575 0.549602 0.116193
H29   H     H_    0.315391 0.764064 0.490609 0.121989
H30   H     H_    0.366539 0.149003 0.532122 0.116711
H31   H     H_    0.814023 0.966713 0.552125 0.116251
H32   H     H_    0.930474 0.145640 0.540914 0.136925
N1    N     N_R   0.795410 0.560790 0.443550 -0.235203
N2    N     N_R   0.204590 0.439170 0.556520 -0.231638
O1    O     O_R   0.977910 0.338120 0.529720 -0.506434
O2    O     O_R   0.003165 0.879028 0.532691 -0.711248
O3    O     O_R   0.839850 0.379180 0.491640 -0.513318
O4    O     O_R   0.069060 0.479460 0.639610 -0.497658
O5    O     O_R   0.931000 0.520530 0.601530 -0.496274
O6    O     O_R   0.160150 0.620820 0.508360 -0.516117
O7    O     O_R   0.022090 0.661880 0.470280 -0.458329
O8    O     O_R   0.069000 0.479470 0.398470 -0.497713
O9    O     O_R   0.930940 0.520540 0.360390 -0.499830
O10   O     O_2   0.993986 0.835159 0.401646 -0.537358

loop_
_geom_bond_atom_site_label_1
_geom_bond_atom_site_label_2
_ccdc_geom_bond_type
C43   H20   S    
C1    O3    A    
C29   C33   A    
C18   C21   A    
C19   C20   A    
C25   H14   S    
C41   H8    S    
C6    H2    S    
C7    C8    A    
C45   C46   S    
C40   C46   S    
C46   C49   S    
C16   O6    A    
C8    C13   A    
C28   O8    A    
C36   C37   A    
C10   C18   A    
C40   H12   S    
C33   C35   A    
C13   H28   S    
C23   C43   S    
Cu1   O8    S    
C7    C9    A    
C42   C46   S    
C34   H27   S    
C35   C36   A    
C40   H3    S    
Cu2   N1    S    
C39   N2    A    
C6    C51   A    
C2    C16   S    
C9    C10   A    
C24   H13   S    
C4    O4    A    
C5    H32   S    
C43   H21   S    
Cu2   O7    S    
Cu2   O9    S    
C42   H15   S    
C47   O2    S    
Cu2   O5    S    
C41   N2    A    
C14   H5    S    
C2    C20   A    
Cu1   O1    S    
C3    C8    A    
C15   H30   S    
C19   H6    S    
C25   C26   A    
C28   C44   S    
C30   C37   A    
C4    C50   S    
C12   C40   S    
C9    C14   A    
C29   C30   A    
C31   C32   A    
C12   C23   S    
C30   C31   A    
C23   C34   S    
C2    C21   A    
C42   H19   S    
C17   C18   A    
C26   C27   A    
Cu1   O6    S    
C34   C45   S    
C1    C51   S    
C33   H17   S    
C22   C27   A    
C12   H23   S    
C22   C24   A    
C42   C43   S    
C32   H7    S    
Cu2   O3    S    
Cu1   Cu2   S    
C15   C17   A    
C39   H9    S    
C38   H18   S    
C23   C48   S    
C27   C32   A    
Cu1   N2    S    
C3    C5    A    
C45   H24   S    
C6    C7    A    
C16   O7    A    
C47   O10   D    
C28   O9    A    
C45   H22   S    
C36   C38   A    
C34   H25   S    
C11   C13   A    
C38   C39   A    
C1    O1    A    
C25   N1    A    
C17   C19   A    
C37   C41   A    
H26   O2    S    
C20   C47   S    
C10   C11   A    
C22   H11   S    
C31   H16   S    
C21   H29   S    
C26   C29   A    
C49   C50   T    
C3    H31   S    
C14   C15   A    
C5    C51   A    
Cu1   O4    S    
C35   H10   S    
C11   H4    S    
C24   N1    A    
C12   H1    S    
C44   C48   T    
C4    O5    A    
