data_mof_unit_6531.cif
_audit_creation_date              2012-12-10T17:32:15-0500
_audit_creation_method            fapswitch 2.2
_symmetry_space_group_name_H-M    P1
_symmetry_Int_Tables_number       1
_space_group_crystal_system       triclinic
_cell_length_a                    12.34806
_cell_length_b                    13.317957
_cell_length_c                    15.070507
_cell_angle_alpha                 77.100691
_cell_angle_beta                  101.420999
_cell_angle_gamma                 116.967101
_cell_volume                      2139.73391578

loop_
_atom_site_label
_atom_site_type_symbol
_atom_type_description
_atom_site_fract_x
_atom_site_fract_y
_atom_site_fract_z
_atom_type_partial_charge
C1    C     C_R   0.854734 0.286476 0.512164 0.772082
C2    C     C_R   0.094839 0.487497 0.110791 0.105890
C3    C     C_R   0.811715 0.525112 0.010849 -0.206665
C4    C     C_R   0.811399 0.524787 0.918344 -0.211061
C5    C     C_R   0.905020 0.512321 0.889213 0.109319
C6    C     C_R   0.999812 0.499819 0.953486 0.065715
C7    C     C_R   0.094343 0.487079 0.924837 0.104505
C8    C     C_R   0.188228 0.474853 0.989140 -0.210644
C9    C     C_R   0.188492 0.475089 0.081653 -0.188433
C10   C     C_R   0.905547 0.512215 0.796860 -0.255399
C11   C     C_R   0.999454 0.499582 0.768122 -0.069955
C12   C     C_R   0.999668 0.499709 0.671152 0.797903
C13   C     C_R   0.093422 0.486903 0.832292 -0.238821
C14   C     C_R   0.283323 0.995057 0.570216 -0.189282
C15   C     C_R   0.228557 0.830982 0.498695 -0.046508
C16   C     C_R   0.814343 0.101626 0.472291 -0.189580
C17   C     C_R   0.734395 0.992662 0.453924 -0.134162
C18   C     C_R   0.612033 0.947188 0.468288 -0.159008
C19   C     C_R   0.567764 0.008702 0.504932 0.074503
C20   C     C_R   0.653346 0.113896 0.533410 0.087386
C21   C     C_R   0.442089 0.969217 0.515552 0.073925
C22   C     C_R   0.406823 0.030602 0.560972 0.160488
C23   C     C_R   0.145288 0.712746 0.489743 0.808434
C24   C     C_R   0.495621 0.124161 0.600032 -0.219935
C25   C     C_R   0.617511 0.164187 0.587526 -0.196046
C26   C     C_R   0.350187 0.870294 0.483363 -0.225870
C27   C     C_R   0.194405 0.895540 0.539126 -0.193482
C28   C     C_R   0.774218 0.164505 0.509854 -0.093067
C29   C     C_R   0.366020 0.361828 0.662363 -0.316066
C30   C     C_R   0.759895 0.637981 0.370650 0.035598
C31   C     C_R   0.664763 0.668964 0.338181 -0.269527
C32   C     C_R   0.560109 0.621898 0.383514 0.124778
C33   C     C_R   0.550760 0.539555 0.465225 -0.047034
C34   C     C_R   0.000314 0.500265 0.328850 0.826367
C35   C     C_R   0.654079 0.512712 0.495571 0.268717
C36   C     C_R   0.448672 0.482987 0.519977 -0.019094
C37   C     C_R   0.459985 0.414506 0.605456 0.185433
C38   C     C_R   0.563216 0.395037 0.632960 -0.310962
C39   C     C_R   0.653557 0.437162 0.576222 -0.177880
C40   C     C_R   0.334507 0.487811 0.495093 0.036249
C41   C     C_R   0.259583 0.375979 0.635151 0.070866
C42   C     C_R   0.094244 0.487490 0.203157 -0.214634
C43   C     C_R   0.000442 0.500292 0.231878 -0.074709
C44   C     C_R   0.906534 0.513079 0.167697 -0.241525
C45   C     C_R   0.905587 0.512862 0.075155 0.107796
C46   C     C_R   0.000086 0.500067 0.046511 0.060538
Cu1   Cu    Cu3+1 0.098270 0.475420 0.521130 0.947039
Cu2   Cu    Cu3+1 0.901730 0.524580 0.478870 0.934687
H1    H     H_    0.167031 0.477749 0.252502 0.171502
H2    H     H_    0.470268 0.165202 0.641311 0.148059
H3    H     H_    0.256167 0.042026 0.604561 0.137600
H4    H     H_    0.370611 0.819416 0.448768 0.166302
H5    H     H_    0.906929 0.138113 0.454553 0.156791
H6    H     H_    0.555360 0.862745 0.452328 0.163979
H7    H     H_    0.766474 0.944398 0.425589 0.154862
H8    H     H_    0.685016 0.231772 0.623485 0.128815
H9    H     H_    0.187683 0.338213 0.679584 0.126206
H10   H     H_    0.571894 0.341847 0.697389 0.145545
H11   H     H_    0.375107 0.310300 0.727621 0.135996
H12   H     H_    0.833744 0.522801 0.189606 0.158822
H13   H     H_    0.310801 0.527023 0.429908 0.169161
H14   H     H_    0.839674 0.676050 0.334051 0.145342
H15   H     H_    0.673819 0.731568 0.276902 0.175668
H16   H     H_    0.722516 0.408160 0.597534 0.198457
H17   H     H_    0.738622 0.534911 0.032113 0.146094
H18   H     H_    0.738070 0.534314 0.869606 0.147890
H19   H     H_    0.832672 0.521817 0.747563 0.162262
H20   H     H_    0.166279 0.477292 0.810376 0.155434
H21   H     H_    0.261355 0.465112 0.967869 0.144818
H22   H     H_    0.261818 0.465557 0.130389 0.158271
H23   H     H_    0.100626 0.865203 0.552212 0.154861
N1    N     N_R   0.246280 0.438190 0.553160 -0.189305
N2    N     N_R   0.754320 0.561190 0.447410 -0.206544
O1    O     O_R   0.972510 0.318130 0.526570 -0.581496
O2    O     O_R   0.806530 0.359650 0.490890 -0.582879
O3    O     O_R   0.082980 0.479210 0.647590 -0.590064
O4    O     O_R   0.917000 0.520730 0.611900 -0.610084
O5    O     O_R   0.193470 0.640350 0.509110 -0.567340
O6    O     O_R   0.027490 0.681870 0.473430 -0.589506
O7    O     O_R   0.083000 0.479270 0.388100 -0.588637
O8    O     O_R   0.917020 0.520790 0.352410 -0.592993
I1    I     I_    0.440631 0.699134 0.316325 -0.512757

loop_
_geom_bond_atom_site_label_1
_geom_bond_atom_site_label_2
_ccdc_geom_bond_type
C16   C28   A    
C21   C26   A    
C19   C20   A    
C25   H8    S    
C7    C8    A    
C10   H19   S    
C2    C46   A    
C39   H16   S    
C8    H21   S    
C1    O1    A    
Cu2   O6    S    
C36   C37   A    
C19   C21   A    
C44   H12   S    
Cu1   O3    S    
C5    C6    A    
C20   C25   A    
C33   C36   A    
Cu2   O8    S    
C18   C19   A    
C16   H5    S    
C34   O7    A    
C38   H10   S    
Cu1   Cu2   S    
C8    C9    A    
C1    C28   S    
C34   O8    A    
C14   C27   A    
C40   N1    A    
C17   H7    S    
C15   C23   S    
C21   C22   A    
Cu2   O2    S    
C3    H17   S    
Cu1   O7    S    
C24   H2    S    
C38   C39   A    
C1    O2    A    
C31   H15   S    
C36   C40   A    
C24   C25   A    
C30   N2    A    
C16   C17   A    
C15   C26   A    
C20   C28   A    
C45   C46   A    
C3    C45   A    
C40   H13   S    
Cu2   O4    S    
C35   C39   A    
C43   C44   A    
C37   C38   A    
C26   H4    S    
C15   C27   A    
C14   H3    S    
C12   O4    A    
C17   C18   A    
C9    H22   S    
C41   N1    A    
C12   O3    A    
C22   C24   A    
C42   C43   A    
C3    C4    A    
C27   H23   S    
C44   C45   A    
C35   N2    A    
C6    C46   A    
C29   C41   A    
Cu2   N2    S    
C31   C32   A    
C34   C43   S    
Cu1   O1    S    
C4    C5    A    
C11   C12   S    
C6    C7    A    
C32   I1    S    
C32   C33   A    
C14   C22   A    
C30   H14   S    
C41   H9    S    
C5    C10   A    
C4    H18   S    
C11   C13   A    
C30   C31   A    
C2    C42   A    
C33   C35   A    
C23   O5    A    
Cu1   N1    S    
C10   C11   A    
C18   H6    S    
C42   H1    S    
C7    C13   A    
C29   C37   A    
C29   H11   S    
Cu1   O5    S    
C23   O6    A    
C2    C9    A    
C13   H20   S    
