data_mof_unit_37275.cif
_audit_creation_date              2012-12-11T14:36:21-0500
_audit_creation_method            fapswitch 2.2
_symmetry_space_group_name_H-M    P1
_symmetry_Int_Tables_number       1
_space_group_crystal_system       triclinic
_cell_length_a                    13.473618
_cell_length_b                    13.53523
_cell_length_c                    27.523376
_cell_angle_alpha                 91.074445
_cell_angle_beta                  90.295265
_cell_angle_gamma                 60.338374
_cell_volume                      4360.85524125

loop_
_atom_site_label
_atom_site_type_symbol
_atom_type_description
_atom_site_fract_x
_atom_site_fract_y
_atom_site_fract_z
_atom_type_partial_charge
C1    C     C_R   0.619742 0.100295 0.570732 0.542609
C2    C     C_1   0.647720 0.713215 0.658742 -0.039028
C3    C     C_3   0.900017 0.671807 0.115895 -0.127660
C4    C     C_3   0.394833 0.590082 0.202068 -0.139119
C5    C     C_3   0.046123 0.993940 0.131105 -0.261919
C6    C     C_3   0.757605 0.969341 0.103413 -0.134169
C7    C     C_3   0.465262 0.586792 0.749480 -0.140924
C8    C     C_3   0.792836 0.380351 0.716027 -0.303563
C9    C     C_3   0.119621 0.925233 0.756713 -0.118743
C10   C     C_3   0.357123 0.904438 0.694125 -0.132422
C11   C     C_3   0.076411 0.170684 0.737470 -0.189676
C12   C     C_R   0.599249 0.780617 0.568791 0.543285
C13   C     C_3   0.147959 0.077083 0.774639 0.301606
C14   C     C_1   0.098414 0.200582 0.902492 -0.007212
C15   C     C_1   0.231895 0.138187 0.617689 -0.010575
C16   C     C_3   0.081981 0.261010 0.771659 -0.184128
C17   C     C_3   0.153239 0.166216 0.808463 0.000644
C18   C     C_3   0.195366 0.235842 0.747006 0.286056
C19   C     C_3   0.189513 0.147737 0.712708 -0.008637
C20   C     C_1   0.629354 0.737637 0.616695 -0.012213
C21   C     C_3   0.264797 0.142237 0.783614 0.158463
C22   C     C_3   0.260108 0.053143 0.749586 0.293027
C23   C     C_1   0.127887 0.180757 0.860586 -0.022548
C24   C     C_R   0.277880 0.121984 0.569587 0.540780
C25   C     C_1   0.207167 0.145532 0.660082 -0.030956
C26   C     C_3   0.616561 0.264749 0.743703 -0.118567
C27   C     C_3   0.545254 0.239345 0.780302 -0.118902
C28   C     C_1   0.685673 0.203490 0.905096 -0.015870
C29   C     C_1   0.633596 0.128410 0.620026 -0.006396
C30   C     C_3   0.724177 0.198583 0.775582 -0.139116
C31   C     C_3   0.716515 0.556761 0.761982 0.175078
C32   C     C_3   0.652512 0.173697 0.811652 0.046920
C33   C     C_3   0.756036 0.086818 0.746950 -0.107267
C34   C     C_3   0.647831 0.153280 0.716053 0.002925
C35   C     C_3   0.684276 0.063686 0.783571 0.311814
C36   C     C_R   0.622123 0.098920 0.431409 0.537577
C37   C     C_3   0.576585 0.127032 0.751937 -0.045377
C38   C     C_1   0.665086 0.188612 0.863805 -0.050292
C39   C     C_1   0.641661 0.142591 0.663010 -0.048523
C40   C     C_R   0.737792 0.698401 0.361495 -0.140620
C41   C     C_R   0.751099 0.679181 0.311408 0.018024
C42   C     C_3   0.686733 0.642740 0.804228 -0.003251
C43   C     C_R   0.769181 0.655151 0.209870 0.028370
C44   C     C_R   0.858344 0.652749 0.237584 -0.115563
C45   C     C_R   0.848600 0.666385 0.287900 -0.148345
C46   C     C_R   0.781698 0.632644 0.159678 0.253458
C47   C     C_R   0.689838 0.634989 0.133277 -0.024269
C48   C     C_R   0.602235 0.774725 0.430825 0.542678
C49   C     C_R   0.556445 0.700625 0.357516 -0.135355
C50   C     C_R   0.565293 0.688368 0.307497 -0.039425
C51   C     C_R   0.661979 0.679505 0.284060 0.040678
C52   C     C_R   0.475286 0.692203 0.280622 -0.117495
C53   C     C_3   0.603630 0.637185 0.737942 0.332795
C54   C     C_R   0.479362 0.689090 0.230009 0.277746
C55   C     C_R   0.575777 0.680580 0.206261 -0.000421
C56   C     C_R   0.668619 0.672700 0.233324 -0.036253
C57   C     C_R   0.584548 0.670922 0.156060 -0.171415
C58   C     C_R   0.637362 0.715589 0.384018 -0.004276
C59   C     C_R   0.224102 0.051133 0.357091 -0.135568
C60   C     C_R   0.277685 0.120317 0.431249 0.544600
C61   C     C_R   0.199583 0.064179 0.307535 0.007996
C62   C     C_R   0.162206 0.088381 0.206534 0.016490
C63   C     C_R   0.193868 0.984109 0.228886 -0.115606
C64   C     C_3   0.663459 0.690315 0.710560 0.030843
C65   C     C_R   0.212005 0.972413 0.278838 -0.129184
C66   C     C_R   0.136101 0.104715 0.156484 0.118260
C67   C     C_R   0.103385 0.212140 0.136228 0.019718
C68   C     C_R   0.177502 0.248805 0.363998 -0.128369
C69   C     C_R   0.155861 0.262168 0.314522 0.016293
C70   C     C_R   0.168452 0.169067 0.285872 0.064363
C71   C     C_R   0.128683 0.365188 0.292890 -0.127283
C72   C     C_3   0.777911 0.609590 0.734788 -0.139452
C73   C     C_R   0.115391 0.375624 0.242864 -0.114740
C74   C     C_R   0.125692 0.284419 0.214197 0.001906
C75   C     C_3   0.572154 0.725200 0.779807 -0.107065
C76   C     C_R   0.152010 0.180511 0.235465 0.035210
C77   C     C_R   0.105559 0.297841 0.164805 -0.151932
C78   C     C_R   0.218439 0.141854 0.384798 -0.005473
C79   C     C_R   0.638572 0.221292 0.369325 -0.142902
C80   C     C_R   0.645320 0.243715 0.320357 0.019405
C81   C     C_R   0.663909 0.284072 0.222101 -0.014113
C82   C     C_R   0.663465 0.358618 0.258341 -0.128452
C83   C     C_R   0.653527 0.338942 0.307176 -0.129139
C84   C     C_3   0.747350 0.697522 0.777340 -0.127700
C85   C     C_R   0.678946 0.300553 0.173587 -0.193438
C86   C     C_3   0.632937 0.779551 0.751993 -0.103064
C87   C     C_R   0.682551 0.224424 0.137543 0.018546
C88   C     C_R   0.632984 0.050113 0.345456 -0.116907
C89   C     C_R   0.636186 0.072885 0.296629 0.007714
C90   C     C_R   0.644278 0.168992 0.283868 0.063416
C91   C     C_R   0.631096 0.001323 0.260485 -0.146090
C92   C     C_R   0.637001 0.022976 0.211613 -0.117983
C93   C     C_R   0.650752 0.115220 0.198141 0.021792
C94   C     C_R   0.652542 0.189654 0.234653 0.015860
C95   C     C_R   0.665739 0.133272 0.149113 0.256575
C96   C     C_1   0.701316 0.599064 0.898848 -0.011806
C97   C     C_1   0.695186 0.620612 0.856332 -0.058878
C98   C     C_R   0.634664 0.123564 0.381570 0.013233
C99   C     C_R   0.049349 0.236212 0.949970 0.544108
C100  C     C_R   0.712535 0.560801 0.947746 0.542654
C101  C     C_R   0.721310 0.224808 0.951439 0.551324
C102  C     C_R   0.047944 0.245504 0.088563 0.569457
C103  C     C_R   0.708855 0.574400 0.086666 0.550124
C104  C     C_R   0.718464 0.235246 0.089285 0.579384
C105  C     C_3   0.422480 0.037398 0.840239 -0.276802
C106  C     C_3   0.182053 0.410953 0.760393 -0.125621
C107  C     C_3   0.826724 0.909974 0.823133 -0.131981
Cr1   Cr    Cr6+3 0.417550 0.169090 0.500530 1.033924
Cr2   Cr    Cr6+3 0.669180 0.913420 0.499920 1.021458
Cr3   Cr    Cr6+3 0.413260 0.917540 0.499520 1.014981
Cr4   Cr    Cr6+3 0.909170 0.177380 0.020380 1.017677
Cr5   Cr    Cr6+3 0.912710 0.429210 0.018220 1.034170
Cr6   Cr    Cr6+3 0.657170 0.432570 0.019030 1.026767
H1    H     H_    0.808543 0.720114 0.793996 0.138592
H2    H     H_    0.935522 0.641364 0.220501 0.134821
H3    H     H_    0.917445 0.666444 0.308409 0.103993
H4    H     H_    0.513605 0.676296 0.135235 0.186831
H5    H     H_    0.400566 0.699872 0.298799 0.104648
H6    H     H_    0.479666 0.711206 0.374946 0.130581
H7    H     H_    0.255660 0.968320 0.373099 0.125904
H8    H     H_    0.204942 0.910751 0.208234 0.169256
H9    H     H_    0.599009 0.871879 0.746812 0.172241
H10   H     H_    0.236111 0.891353 0.295033 0.114752
H11   H     H_    0.082593 0.379543 0.149438 0.179964
H12   H     H_    0.010459 0.346648 0.781295 0.109093
H13   H     H_    0.096380 0.455227 0.226569 0.113445
H14   H     H_    0.120138 0.436782 0.314503 0.102369
H15   H     H_    0.171715 0.319517 0.385470 0.130663
H16   H     H_    0.692724 0.370266 0.163897 0.127081
H17   H     H_    0.637599 0.278384 0.397726 0.102070
H18   H     H_    0.671795 0.431580 0.248913 0.123376
H19   H     H_    0.653855 0.397250 0.334624 0.117432
H20   H     H_    0.488797 0.770631 0.799027 0.140488
H21   H     H_    0.633527 0.965579 0.184600 0.154498
H22   H     H_    0.623139 0.928205 0.270029 0.128455
H23   H     H_    0.458960 0.301981 0.794101 0.114780
H24   H     H_    0.626629 0.976270 0.355581 0.123315
H25   H     H_    0.002684 0.176158 0.717399 0.106315
H26   H     H_    0.347832 0.208734 0.825175 0.242400
H27   H     H_    0.365451 0.041827 0.870172 0.139448
H28   H     H_    0.497989 0.038026 0.856240 0.172380
H29   H     H_    0.453158 0.956833 0.819427 0.200738
H30   H     H_    0.199272 0.389249 0.799460 0.097836
H31   H     H_    0.088765 0.464632 0.754189 0.114526
H32   H     H_    0.222903 0.461989 0.751059 0.132032
H33   H     H_    0.844062 0.971433 0.843625 0.140213
H34   H     H_    0.589883 0.347131 0.726164 0.149676
H35   H     H_    0.888373 0.870628 0.792557 0.105411
H36   H     H_    0.840976 0.841722 0.848619 0.131482
H37   H     H_    0.987725 0.634373 0.100814 0.132995
H38   H     H_    0.887801 0.740668 0.141951 0.083479
H39   H     H_    0.839628 0.706048 0.084977 0.116083
H40   H     H_    0.389459 0.560817 0.238986 0.120644
H41   H     H_    0.474448 0.525972 0.183319 0.133503
H42   H     H_    0.321651 0.596882 0.180781 0.138873
H43   H     H_    0.220041 0.942121 0.125491 0.254064
H44   H     H_    0.069852 0.918942 0.154038 0.102926
H45   H     H_    0.517984 0.095186 0.740899 0.161777
H46   H     H_    0.023618 0.975477 0.094522 0.164122
H47   H     H_    0.969633 0.068615 0.147243 0.171686
H48   H     H_    0.737973 0.902235 0.091778 0.123881
H49   H     H_    0.814694 0.938272 0.135685 0.082970
H50   H     H_    0.803577 0.981543 0.072917 0.156172
H51   H     H_    0.399205 0.669701 0.765127 0.117996
H52   H     H_    0.518692 0.529193 0.778811 0.141742
H53   H     H_    0.419940 0.546811 0.731288 0.133001
H54   H     H_    0.819547 0.395775 0.790041 0.243835
H55   H     H_    0.812258 0.291273 0.717756 0.131459
H56   H     H_    0.842354 0.025216 0.732805 0.096914
H57   H     H_    0.869996 0.381200 0.702632 0.135395
H58   H     H_    0.722840 0.423236 0.689367 0.198591
H59   H     H_    0.208362 0.858505 0.747954 0.148514
H60   H     H_    0.074205 0.971290 0.723475 0.092604
H61   H     H_    0.074290 0.881573 0.770295 0.117748
H62   H     H_    0.398794 0.938416 0.670159 0.140947
H63   H     H_    0.271439 0.925057 0.680198 0.100123
H64   H     H_    0.409478 0.810918 0.692762 0.188293
H65   H     H_    0.785652 0.225529 0.788085 0.140202
H66   H     H_    0.862286 0.563304 0.716321 0.108143
H67   H     H_    0.801313 0.708023 0.382175 0.122963
N1    N     N_2   0.363584 0.133374 0.808689 -0.515771
N2    N     N_2   0.141279 0.015022 0.126604 -0.508261
N3    N     N_2   0.759320 0.435734 0.763481 -0.522477
O1    O     O_R   0.301710 0.195650 0.554160 -0.495613
O2    O     O_R   0.635520 0.542770 0.964420 -0.506838
O3    O     O_R   0.665950 0.325030 0.970100 -0.492696
O4    O     O_R   0.522390 0.158990 0.550460 -0.490373
O5    O     O_R   0.816620 0.158530 0.074540 -0.541785
O6    O     O_R   0.004460 0.188870 0.069750 -0.472724
O7    O     O_R   0.025800 0.341780 0.072300 -0.507991
O8    O     O_R   0.807650 0.528950 0.067500 -0.450680
O9    O     O_R   0.633420 0.550490 0.071810 -0.534280
O10   O     O_R   0.664000 0.332180 0.069640 -0.500126
O11   O     O_3   0.826350 0.346390 0.019210 -0.257492
O12   O     O_R   0.658900 0.818120 0.449760 -0.504791
O13   O     O_R   0.694390 0.003530 0.554040 -0.509259
O14   O     O_R   0.657700 0.819660 0.549320 -0.495887
O15   O     O_R   0.501930 0.803280 0.552920 -0.509871
O16   O     O_R   0.318170 0.023580 0.549580 -0.505534
O17   O     O_R   0.303010 0.193990 0.446760 -0.517247
O18   O     O_R   0.523600 0.157450 0.450900 -0.494525
O19   O     O_R   0.695690 0.001860 0.446640 -0.514734
O20   O     O_3   0.227849 0.313532 0.729897 -0.546081
O21   O     O_3   0.713734 0.959704 0.805790 -0.588491
O22   O     O_3   0.889822 0.585866 0.139366 -0.561590
O23   O     O_R   0.503220 0.801620 0.445520 -0.523101
O24   O     O_3   0.387529 0.697671 0.203875 -0.600350
O25   O     O_3   0.652869 0.069653 0.112237 -0.568291
O26   O     O_3   0.531739 0.602906 0.714547 -0.582922
O27   O     O_3   0.119448 0.998261 0.793829 -0.552775
O28   O     O_3   0.354044 0.942725 0.742314 -0.601125
O29   O     O_R   0.319370 0.022040 0.450020 -0.503772
O30   O     O_3   0.499990 0.000010 0.499990 -0.249937
O31   O     O_R   0.818720 0.150820 0.967160 -0.509630
O32   O     O_R   0.006410 0.181720 0.970200 -0.488626
O33   O     O_R   0.027890 0.334070 0.964920 -0.515611
O34   O     O_R   0.809600 0.521790 0.967960 -0.504237

loop_
_geom_bond_atom_site_label_1
_geom_bond_atom_site_label_2
_ccdc_geom_bond_type
C61   C70   A    
C14   C23   T    
C46   O22   S    
C4    H41   S    
C55   C56   A    
C63   C65   A    
C93   C94   A    
C107  H35   S    
C31   C42   S    
C24   O1    A    
C34   C37   S    
C73   C74   A    
Cr1   O4    S    
Cr2   O14   S    
C67   C77   A    
Cr4   O31   S    
C33   H56   S    
C81   C82   A    
Cr3   O16   S    
C106  H30   S    
C21   N1    S    
C11   C19   S    
C42   C75   S    
C17   C23   S    
C106  H32   S    
C74   C76   A    
C12   C20   S    
C27   H23   S    
Cr2   O19   S    
C35   C37   S    
C11   H25   S    
Cr4   O32   S    
C51   C56   A    
Cr2   O30   S    
C65   H10   S    
C105  H28   S    
C53   C64   S    
C35   O21   S    
C15   C25   T    
Cr3   O15   S    
C99   O33   A    
C73   H13   S    
C18   C21   S    
C60   C78   S    
C102  O6    A    
Cr2   O13   S    
C18   C19   S    
Cr6   O11   S    
C26   H34   S    
C69   C71   A    
C8    H55   S    
C85   H16   S    
C106  O20   S    
C40   H67   S    
C28   C101  S    
C26   C34   S    
H54   N3    S    
C6    H49   S    
C44   H2    S    
C2    C64   S    
C16   C17   S    
C5    H46   S    
C74   C77   A    
C87   C95   A    
C86   H9    S    
C50   C52   A    
Cr5   O34   S    
C9    H60   S    
C18   O20   S    
C32   C38   S    
C89   C91   A    
C16   H12   S    
C9    O27   S    
C6    O25   S    
Cr1   O30   S    
H26   N1    S    
C8    H58   S    
C88   C89   A    
Cr5   O33   S    
C66   C67   A    
C66   N2    S    
C93   C95   A    
C21   C22   S    
C96   C97   T    
C10   H63   S    
C62   C76   A    
C53   C75   S    
C12   O14   A    
C36   O19   A    
C80   C83   A    
C59   C78   A    
C64   C86   S    
C63   H8    S    
C52   C54   A    
C90   C94   A    
C102  O7    A    
C1    O4    A    
C59   H7    S    
C68   C78   A    
C104  O5    A    
Cr3   O29   S    
C59   C61   A    
C47   C103  S    
Cr1   O1    S    
C85   C87   A    
C2    C20   T    
C34   C39   S    
C3    O22   S    
C32   C35   S    
C14   C99   S    
C19   C22   S    
C40   C58   A    
C24   O16   A    
C42   C97   S    
C91   C92   A    
C71   C73   A    
C107  H33   S    
H43   N2    S    
C68   C69   A    
C71   H14   S    
C50   C51   A    
C79   H17   S    
C29   C39   T    
C82   C83   A    
C17   C21   S    
C49   C58   A    
C79   C80   A    
C37   H45   S    
Cr1   O17   S    
C43   C44   A    
C62   C63   A    
C30   C32   S    
C47   C57   A    
C11   C16   S    
C10   O28   S    
C75   C86   S    
C6    H48   S    
C28   C38   T    
C101  O31   A    
C104  O10   A    
C5    H47   S    
Cr6   O2    S    
C22   O28   S    
C1    O13   A    
C1    C29   S    
C33   C34   S    
C3    H39   S    
C42   C84   S    
C9    H61   S    
Cr3   O23   S    
C46   C47   A    
C31   C53   S    
C48   C58   S    
C60   O29   A    
Cr5   O11   S    
C72   C84   S    
Cr4   O5    S    
C8    N3    S    
C53   O26   S    
C40   C41   A    
C7    H53   S    
C105  H27   S    
C100  O34   A    
Cr4   O6    S    
C5    H44   S    
C55   C57   A    
C48   O12   A    
C26   C27   S    
C95   O25   S    
C49   C50   A    
C103  O8    A    
C36   O18   A    
C7    O26   S    
C101  O3    A    
C5    N2    S    
C105  H29   S    
C44   C45   A    
C4    O24   S    
C57   H4    S    
C10   H62   S    
Cr6   O9    S    
C68   H15   S    
C54   C55   A    
C31   C72   S    
C3    H37   S    
C84   H1    S    
C30   C33   S    
C31   N3    S    
C27   C32   S    
C10   H64   S    
Cr6   O10   S    
C13   O27   S    
C92   H21   S    
C84   C86   S    
C9    H59   S    
C30   H65   S    
C75   H20   S    
C106  H31   S    
C8    H57   S    
C7    H51   S    
C3    H38   S    
C13   C17   S    
C100  O2    A    
C89   C90   A    
C83   H19   S    
C77   H11   S    
C41   C45   A    
C15   C24   S    
C70   C76   A    
C81   C94   A    
C11   C13   S    
C45   H3    S    
Cr3   O30   S    
C49   H6    S    
C99   O32   A    
C27   C37   S    
Cr6   O3    S    
C96   C100  S    
C92   C93   A    
C33   C35   S    
C13   C22   S    
C4    H40   S    
Cr2   O12   S    
C64   C72   S    
C7    H52   S    
C69   C70   A    
C19   C25   S    
C43   C46   A    
C88   C98   A    
C88   H24   S    
Cr1   O18   S    
C62   C66   A    
C60   O17   A    
Cr4   O11   S    
Cr5   O7    S    
C87   C104  S    
C107  H36   S    
C61   C65   A    
C43   C56   A    
C107  O21   S    
C4    H42   S    
C91   H22   S    
C6    H50   S    
C16   C18   S    
C54   O24   S    
C48   O23   A    
C12   O15   A    
C79   C98   A    
C36   C98   S    
C103  O9    A    
C72   H66   S    
C105  N1    S    
C82   H18   S    
C80   C90   A    
C41   C51   A    
C81   C85   A    
C67   C102  S    
Cr5   O8    S    
C26   C30   S    
C52   H5    S    
