data_mof_unit_13513.cif
_audit_creation_date              2012-12-11T15:52:12-0500
_audit_creation_method            fapswitch 2.2
_symmetry_space_group_name_H-M    P1
_symmetry_Int_Tables_number       1
_space_group_crystal_system       triclinic
_cell_length_a                    11.080893
_cell_length_b                    11.071756
_cell_length_c                    18.853544
_cell_angle_alpha                 89.936974
_cell_angle_beta                  90.015233
_cell_angle_gamma                 120.001128
_cell_volume                      2003.13249114

loop_
_atom_site_label
_atom_site_type_symbol
_atom_type_description
_atom_site_fract_x
_atom_site_fract_y
_atom_site_fract_z
_atom_type_partial_charge
C1    C     C_R   0.519294 0.457257 0.147683 0.561326
C2    C     C_R   0.542839 0.062096 0.147689 0.560041
C3    C     C_R   0.937942 0.480796 0.147687 0.560837
C4    C     C_R   0.450026 0.520261 0.855036 0.557715
C5    C     C_R   0.070288 0.549915 0.855048 0.558484
C6    C     C_R   0.479603 0.929576 0.855062 0.558842
C7    C     C_3   0.740492 0.025642 0.539794 -0.277696
C8    C     C_3   0.976508 0.718263 0.539007 -0.277577
C9    C     C_3   0.279850 0.255862 0.547233 -0.268633
C10   C     C_3   0.965488 0.715450 0.459122 -0.266799
C11   C     C_3   0.750407 0.040570 0.460145 -0.267728
C12   C     C_3   0.282177 0.251202 0.467200 -0.264162
C13   C     C_R   0.520405 0.455025 0.354835 0.549550
C14   C     C_R   0.542216 0.059792 0.352978 0.550334
C15   C     C_R   0.939734 0.482109 0.353144 0.549307
C16   C     C_R   0.457416 0.519458 0.646377 0.546523
C17   C     C_R   0.067737 0.546063 0.644410 0.540898
C18   C     C_R   0.476939 0.929532 0.643739 0.542582
C19   C     C_R   0.503632 0.968037 0.929795 -0.006280
C20   C     C_R   0.031902 0.535554 0.929783 -0.006036
C21   C     C_R   0.464489 0.496092 0.929756 -0.005939
C22   C     C_R   0.001924 0.505540 0.078079 0.009052
C23   C     C_R   0.503506 0.998019 0.078101 0.009153
C24   C     C_R   0.494644 0.496676 0.078061 0.008989
C25   C     C_R   0.425796 0.018291 0.960943 0.025291
C26   C     C_R   0.981684 0.407430 0.961044 0.025092
C27   C     C_R   0.592564 0.574049 0.960882 0.025312
C28   C     C_R   0.963464 0.391846 0.033127 0.037459
C29   C     C_R   0.428429 0.036541 0.033023 0.037430
C30   C     C_R   0.608209 0.571678 0.032973 0.037244
C31   C     C_R   0.572227 0.931626 0.048648 0.067022
C32   C     C_R   0.068231 0.640700 0.048511 0.066942
C33   C     C_R   0.359559 0.427940 0.048612 0.067037
C34   C     C_R   0.070222 0.654841 0.974092 0.070112
C35   C     C_R   0.584432 0.929663 0.974233 0.069863
C36   C     C_R   0.345338 0.415498 0.974217 0.069939
C37   C     C_3   0.432683 0.153547 0.946267 -0.269895
C38   C     C_3   0.846593 0.279050 0.946491 -0.270114
C39   C     C_3   0.720895 0.567277 0.946353 -0.270183
C40   C     C_3   0.829147 0.258555 0.025993 -0.227129
C41   C     C_3   0.429631 0.170991 0.025750 -0.227441
C42   C     C_3   0.741413 0.570577 0.025855 -0.227263
C43   C     C_R   0.484473 0.957763 0.568248 0.019555
C44   C     C_R   0.035220 0.523686 0.569336 0.019887
C45   C     C_R   0.502152 0.498201 0.577563 0.016956
C46   C     C_R   0.011378 0.511548 0.420976 0.022230
C47   C     C_R   0.499454 0.985963 0.420304 0.021659
C48   C     C_R   0.508356 0.478625 0.429369 0.022434
C49   C     C_R   0.586497 0.947957 0.529898 0.033547
C50   C     C_R   0.049741 0.637124 0.530339 0.040610
C51   C     C_R   0.429837 0.368671 0.544091 0.018887
C52   C     C_R   0.039107 0.632533 0.457948 0.031030
C53   C     C_R   0.594110 0.960792 0.457612 0.025674
C54   C     C_R   0.432184 0.360541 0.471597 0.040777
C55   C     C_R   0.380378 0.967712 0.456206 -0.153591
C56   C     C_R   0.022874 0.407320 0.457843 -0.170137
C57   C     C_R   0.597796 0.605579 0.462795 -0.172359
C58   C     C_R   0.031416 0.411724 0.532172 -0.167592
C59   C     C_R   0.373543 0.955157 0.530438 -0.154063
C60   C     C_R   0.595507 0.615098 0.536790 -0.165188
Cr1   Cr    Cr6+3 0.769160 0.541570 0.250690 1.060321
Cr2   Cr    Cr6+3 0.458430 0.227590 0.250690 1.062717
Cr3   Cr    Cr6+3 0.772410 0.230840 0.250690 1.059309
Cr4   Cr    Cr6+3 0.541570 0.769160 0.749310 1.052136
Cr5   Cr    Cr6+3 0.227590 0.458430 0.749310 1.050580
Cr6   Cr    Cr6+3 0.230840 0.772410 0.749310 1.053090
H1    H     H_    0.339034 0.138060 0.917808 0.210655
H2    H     H_    0.862213 0.200917 0.918088 0.210769
H3    H     H_    0.798993 0.660986 0.917804 0.210546
H4    H     H_    0.739375 0.265013 0.047060 0.109954
H5    H     H_    0.525858 0.260807 0.046813 0.109757
H6    H     H_    0.735018 0.474368 0.047108 0.109871
H7    H     H_    0.532105 0.230639 0.921035 0.109064
H8    H     H_    0.769510 0.301371 0.921257 0.109101
H9    H     H_    0.698627 0.467753 0.921299 0.108946
H10   H     H_    0.838851 0.169082 0.045334 0.220743
H11   H     H_    0.330541 0.161302 0.045027 0.220588
H12   H     H_    0.830797 0.669841 0.045023 0.220704
H13   H     H_    0.298800 0.973351 0.427752 0.122093
H14   H     H_    0.013190 0.317528 0.430107 0.120272
H15   H     H_    0.665407 0.697540 0.431919 0.126505
H16   H     H_    0.029169 0.325858 0.560486 0.119234
H17   H     H_    0.285029 0.948206 0.558124 0.125663
H18   H     H_    0.657141 0.716221 0.561116 0.138459
H19   H     H_    0.781384 0.959305 0.560681 0.136693
H20   H     H_    0.044556 0.824442 0.560613 0.134777
H21   H     H_    0.208733 0.291004 0.567003 0.163749
H22   H     H_    0.856224 0.655116 0.440738 0.170740
H23   H     H_    0.793317 0.150083 0.443166 0.166670
H24   H     H_    0.265910 0.151185 0.446102 0.139544
H25   H     H_    0.777720 0.126222 0.568083 0.140576
H26   H     H_    0.874208 0.657301 0.566119 0.143723
H27   H     H_    0.266529 0.159467 0.572758 0.129738
H28   H     H_    0.028411 0.820006 0.434371 0.131223
H29   H     H_    0.797492 0.983313 0.434677 0.135466
H30   H     H_    0.217931 0.290104 0.441441 0.141702
O1    O     O_R   0.911480 0.572650 0.170990 -0.490246
O2    O     O_R   0.427350 0.338830 0.170990 -0.490244
O3    O     O_R   0.661170 0.088520 0.170990 -0.490384
O4    O     O_R   0.572650 0.911480 0.829010 -0.489373
O5    O     O_R   0.338830 0.427350 0.829010 -0.489982
O6    O     O_R   0.088520 0.661170 0.829010 -0.489963
O7    O     O_R   0.640340 0.528970 0.175680 -0.484586
O8    O     O_R   0.471030 0.111370 0.175680 -0.485745
O9    O     O_R   0.888630 0.359660 0.175680 -0.485012
O10   O     O_R   0.528970 0.640340 0.824320 -0.479018
O11   O     O_R   0.111370 0.471030 0.824320 -0.478079
O12   O     O_R   0.359660 0.888630 0.824320 -0.478107
O13   O     O_R   0.909980 0.572450 0.331530 -0.517146
O14   O     O_R   0.427550 0.337530 0.331530 -0.510208
O15   O     O_R   0.662470 0.090020 0.331530 -0.517369
O16   O     O_R   0.572450 0.909980 0.668470 -0.518535
O17   O     O_R   0.337530 0.427550 0.668470 -0.523686
O18   O     O_R   0.090020 0.662470 0.668470 -0.518242
O19   O     O_R   0.638950 0.528780 0.324500 -0.506830
O20   O     O_R   0.471220 0.110170 0.324500 -0.502864
O21   O     O_R   0.889830 0.361050 0.324500 -0.506930
O22   O     O_R   0.528780 0.638950 0.675500 -0.511062
O23   O     O_R   0.110170 0.471220 0.675500 -0.509859
O24   O     O_R   0.361050 0.889830 0.675500 -0.509322
O25   O     O_3   0.666667 0.333333 0.250560 -0.285095
O26   O     O_3   0.333333 0.666667 0.749440 -0.276651
I1    I     I_    0.674251 0.853093 0.116729 -0.271112
I2    I     I_    0.146556 0.821332 0.116428 -0.271618
I3    I     I_    0.179131 0.326179 0.116719 -0.271464
I4    I     I_    0.089598 0.846610 0.934793 -0.292214
I5    I     I_    0.756690 0.910334 0.935099 -0.292513
I6    I     I_    0.153640 0.243181 0.935201 -0.292042

loop_
_geom_bond_atom_site_label_1
_geom_bond_atom_site_label_2
_ccdc_geom_bond_type
C49   C53   A    
C45   C60   A    
C55   C59   A    
Cr6   O6    S    
C9    C51   S    
Cr5   O5    S    
Cr1   O13   S    
C16   O17   A    
C48   C57   A    
C5    C20   S    
C3    O9    A    
C48   C54   A    
C6    C19   S    
C10   H22   S    
C22   C32   A    
C23   C29   A    
C12   H24   S    
Cr1   O7    S    
C59   H17   S    
C58   H16   S    
C41   H11   S    
Cr3   O21   S    
C14   O20   A    
Cr4   O16   S    
C10   H28   S    
C11   H29   S    
C46   C52   A    
C33   C36   A    
Cr4   O22   S    
Cr1   O25   S    
C3    O1    A    
Cr3   O3    S    
C25   C37   S    
Cr2   O2    S    
C18   O24   A    
C32   I2    S    
C44   C58   A    
Cr1   O19   S    
C50   C52   A    
Cr6   O26   S    
C8    H26   S    
C39   H9    S    
Cr3   O9    S    
C1    O7    A    
C8    H20   S    
C11   C53   S    
C43   C59   A    
C47   C53   A    
C20   C34   A    
C21   C27   A    
C10   C52   S    
C22   C28   A    
C27   C30   A    
C37   C41   S    
C36   I6    S    
C30   C42   S    
C42   H6    S    
Cr3   O25   S    
C17   O18   A    
C39   C42   S    
Cr2   O8    S    
C56   C58   A    
C25   C29   A    
C14   O15   A    
C18   O16   A    
Cr1   O1    S    
C7    C49   S    
C27   C39   S    
C21   C36   A    
C43   C49   A    
C57   C60   A    
C4    O10   A    
C40   H10   S    
C23   C31   A    
C1    O2    A    
C7    C11   S    
C28   C40   S    
Cr2   O20   S    
C13   O14   A    
C16   O22   A    
C55   H13   S    
C11   H23   S    
Cr2   O14   S    
C2    O8    A    
C34   I4    S    
C7    H25   S    
C4    O5    A    
C33   I3    S    
C39   H3    S    
Cr5   O26   S    
C35   I5    S    
C13   O19   A    
C40   H4    S    
C38   H2    S    
C2    O3    A    
C42   H12   S    
C15   O13   A    
C31   C35   A    
C9    H27   S    
C47   C55   A    
C5    O11   A    
C44   C50   A    
C37   H7    S    
C5    O6    A    
C6    O12   A    
Cr6   O18   S    
C29   C41   S    
Cr5   O17   S    
C26   C38   S    
Cr6   O12   S    
C16   C45   S    
C13   C48   S    
Cr4   O10   S    
C14   C47   S    
C6    O4    A    
C26   C28   A    
C24   C33   A    
C56   H14   S    
C41   H5    S    
C51   C54   A    
C17   C44   S    
C31   I1    S    
C19   C35   A    
C18   C43   S    
C9    H21   S    
C38   C40   S    
C4    C21   S    
C60   H18   S    
C7    H19   S    
C20   C26   A    
Cr4   O26   S    
C37   H1    S    
C38   H8    S    
C8    C50   S    
C57   H15   S    
Cr3   O15   S    
C19   C25   A    
C9    C12   S    
C24   C30   A    
Cr5   O23   S    
C17   O23   A    
C15   O21   A    
Cr4   O4    S    
C1    C24   S    
C8    C10   S    
C46   C56   A    
C2    C23   S    
C45   C51   A    
C12   H30   S    
C3    C22   S    
Cr6   O24   S    
C15   C46   S    
Cr5   O11   S    
Cr2   O25   S    
C12   C54   S    
C32   C34   A    
