data_mof_unit_14736.cif
_audit_creation_date              2012-12-10T19:07:34-0500
_audit_creation_method            fapswitch 2.2
_symmetry_space_group_name_H-M    P1
_symmetry_Int_Tables_number       1
_space_group_crystal_system       triclinic
_cell_length_a                    10.824619
_cell_length_b                    10.818893
_cell_length_c                    9.542641
_cell_angle_alpha                 89.95096
_cell_angle_beta                  89.749979
_cell_angle_gamma                 90.213641
_cell_volume                      1117.52362041

loop_
_atom_site_label
_atom_site_type_symbol
_atom_type_description
_atom_site_fract_x
_atom_site_fract_y
_atom_site_fract_z
_atom_type_partial_charge
C1    C     C_R   0.502302 0.262308 0.500003 0.821985
C2    C     C_R   0.936267 0.494221 0.625256 0.056488
C3    C     C_3   0.931128 0.394447 0.734335 -0.002563
C4    C     C_3   0.071654 0.398515 0.735161 -0.479543
C5    C     C_R   0.517448 0.063489 0.625522 0.181486
C6    C     C_R   0.514940 0.129265 0.499690 -0.091090
C7    C     C_R   0.530420 0.064666 0.373036 -0.200676
C8    C     C_R   0.530376 0.935822 0.372957 -0.211677
C9    C     C_R   0.515002 0.870814 0.499542 -0.100175
C10   C     C_R   0.517426 0.936291 0.625439 0.129288
C11   C     C_3   0.432867 0.929245 0.749364 -0.466557
C12   C     C_R   0.262424 0.501579 0.500312 0.796845
C13   C     C_3   0.433146 0.069590 0.749651 -0.486928
C14   C     C_R   0.543674 0.599904 0.073131 0.255727
C15   C     C_R   0.444396 0.407782 0.074783 -0.078464
C16   C     C_R   0.444237 0.407876 0.925902 -0.073458
C17   C     C_R   0.543256 0.600063 0.925814 0.254238
C18   C     C_3   0.669857 0.653947 0.917991 -0.494407
C19   C     C_3   0.671180 0.652279 0.077031 -0.509625
C20   C     C_R   0.502417 0.737695 0.499889 0.797258
C21   C     C_R   0.737688 0.501193 0.499857 0.831316
C22   C     C_R   0.063266 0.496943 0.625920 0.080722
C23   C     C_R   0.129477 0.511915 0.501327 -0.069760
C24   C     C_R   0.065350 0.541895 0.378259 -0.201756
C25   C     C_R   0.936597 0.541200 0.378098 -0.199036
C26   C     C_R   0.871019 0.509818 0.500546 -0.064738
Cu1   Cu    Cu3+1 0.499990 0.499980 0.640670 0.954434
Cu2   Cu    Cu3+1 0.500010 0.500020 0.359330 0.947025
H1    H     H_    0.114088 0.561198 0.281235 0.162569
H2    H     H_    0.478804 0.888778 0.842601 0.195743
H3    H     H_    0.341760 0.110427 0.724310 0.194074
H4    H     H_    0.479723 0.109651 0.842837 0.203404
H5    H     H_    0.401163 0.332024 0.130641 0.140818
H6    H     H_    0.400494 0.332509 0.870564 0.136785
H7    H     H_    0.738156 0.590121 0.870287 0.214311
H8    H     H_    0.669872 0.748824 0.873245 0.197257
H9    H     H_    0.738930 0.585734 0.119659 0.210996
H10   H     H_    0.673904 0.746101 0.124216 0.193011
H11   H     H_    0.889303 0.560625 0.281287 0.150516
H12   H     H_    0.889909 0.427260 0.834354 0.138708
H13   H     H_    0.110229 0.434576 0.834950 0.179887
H14   H     H_    0.116751 0.313187 0.695425 0.211274
H15   H     H_    0.536301 0.112909 0.273709 0.164931
H16   H     H_    0.536041 0.887886 0.273588 0.159319
H17   H     H_    0.341368 0.888309 0.723497 0.203989
N1    N     N_R   0.500790 0.500930 0.147930 -0.184534
N2    N     N_R   0.500790 0.500890 0.852020 -0.181639
O1    O     O_R   0.500000 0.319640 0.618810 -0.574252
O2    O     O_R   0.500010 0.319680 0.381230 -0.590253
O3    O     O_R   0.319650 0.499970 0.618810 -0.581723
O4    O     O_R   0.319660 0.500010 0.381230 -0.586517
O5    O     O_R   0.499990 0.680320 0.618770 -0.582666
O6    O     O_R   0.500000 0.680360 0.381190 -0.588110
O7    O     O_R   0.680340 0.499990 0.618770 -0.574307
O8    O     O_R   0.680350 0.500030 0.381190 -0.583642
I1    I     I_    0.859040 0.220785 0.660999 -0.406308

loop_
_geom_bond_atom_site_label_1
_geom_bond_atom_site_label_2
_ccdc_geom_bond_type
Cu1   O1    S    
C2    C22   A    
C12   O3    A    
C23   C24   A    
C1    O1    A    
C6    C7    A    
C19   H10   S    
C7    H15   S    
C4    C22   S    
C18   H7    S    
C9    C20   S    
C5    C13   S    
C14   C17   A    
Cu1   O3    S    
C21   C26   S    
C17   C18   S    
Cu1   O7    S    
C5    C10   A    
C2    C26   A    
Cu1   O5    S    
Cu2   O6    S    
C11   C13   S    
C12   C23   S    
Cu2   N1    S    
C5    C6    A    
C4    H14   S    
C11   H2    S    
C9    C10   A    
Cu2   O8    S    
C15   H5    S    
C3    H12   S    
C2    C3    S    
C10   C11   S    
C21   O7    A    
Cu2   O4    S    
C11   H17   S    
C4    H13   S    
C1    C6    S    
C8    H16   S    
C7    C8    A    
C12   O4    A    
C24   C25   A    
C16   N2    A    
C20   O5    A    
C18   C19   S    
C3    I1    S    
Cu1   N2    S    
Cu1   Cu2   S    
C21   O8    A    
C24   H1    S    
C20   O6    A    
C19   H9    S    
C15   N1    A    
C16   H6    S    
C25   C26   A    
C22   C23   A    
C13   H4    S    
C18   H8    S    
C14   C19   S    
C13   H3    S    
C25   H11   S    
C3    C4    S    
C15   C16   A    
C17   N2    A    
C8    C9    A    
C14   N1    A    
Cu2   O2    S    
C1    O2    A    
