data_mof_unit_59398.cif
_audit_creation_date              2012-12-11T17:23:16-0500
_audit_creation_method            fapswitch 2.2
_symmetry_space_group_name_H-M    P1
_symmetry_Int_Tables_number       1
_space_group_crystal_system       triclinic
_cell_length_a                    22.419031
_cell_length_b                    7.094528
_cell_length_c                    19.382433
_cell_angle_alpha                 90.094466
_cell_angle_beta                  99.565888
_cell_angle_gamma                 90.073237
_cell_volume                      3039.94923184

loop_
_atom_site_label
_atom_site_type_symbol
_atom_type_description
_atom_site_fract_x
_atom_site_fract_y
_atom_site_fract_z
_atom_type_partial_charge
O1    O     O_R   0.443980 0.494320 0.557430 -0.526095
O2    O     O_R   0.556020 0.994320 0.442570 -0.529132
O3    O     O_R   0.441210 0.822520 0.414610 -0.539217
O4    O     O_R   0.558790 0.322520 0.585390 -0.537105
C1    C     C_R   0.426679 0.655170 0.388785 0.689769
C2    C     C_R   0.573333 0.155673 0.611237 0.699755
O5    O     O_R   0.436920 0.823940 0.555180 -0.531129
O6    O     O_R   0.563080 0.323940 0.444820 -0.531271
O7    O     O_R   0.551700 0.995760 0.584140 -0.535882
O8    O     O_R   0.448300 0.495760 0.415860 -0.537757
C3    C     C_R   0.421575 0.655384 0.574808 0.704720
C4    C     C_R   0.578494 0.155376 0.425279 0.700937
O9    O     O_3   0.537660 0.661290 0.509340 -0.368615
O10   O     O_3   0.462340 0.161290 0.490660 -0.368810
V1    V     V_3+5 0.493010 0.935560 0.498270 1.495267
V2    V     V_3+5 0.506990 0.435560 0.501730 1.498554
C5    C     C_R   0.788884 0.946809 0.253568 -0.201755
C6    C     C_R   0.247218 0.444217 0.791556 -0.224753
C7    C     C_R   0.794630 0.092825 0.206299 0.053459
C8    C     C_R   0.206288 0.592190 0.794887 0.045203
C9    C     C_R   0.757137 0.251245 0.205009 -0.127064
C10   C     C_R   0.209077 0.751507 0.752816 -0.096899
C11   C     C_R   0.714280 0.263399 0.250018 -0.140268
C12   C     C_R   0.252178 0.763111 0.708092 -0.103552
H1    H     H_    0.685677 0.386936 0.247701 0.178172
H2    H     H_    0.253238 0.887530 0.676019 0.199150
C13   C     C_R   0.708209 0.117921 0.297450 -0.012588
C14   C     C_R   0.293570 0.616248 0.704780 -0.023950
C15   C     C_R   0.746075 0.957821 0.299261 0.472159
C16   C     C_R   0.290897 0.454670 0.746943 0.483172
C17   C     C_1   0.839171 0.080628 0.159529 0.006185
C18   C     C_1   0.161386 0.580355 0.841205 0.006139
C19   C     C_1   0.662637 0.134461 0.342948 0.123791
C20   C     C_1   0.338283 0.633807 0.658227 0.143292
C21   C     C_1   0.624453 0.145658 0.380631 -0.103252
C22   C     C_1   0.375966 0.645556 0.619916 -0.090772
C23   C     C_1   0.876601 0.071352 0.120803 -0.167230
C24   C     C_1   0.123686 0.571271 0.879588 -0.170715
C25   C     C_R   0.634025 0.192084 0.803725 -0.152962
C26   C     C_R   0.367173 0.665582 0.195576 -0.155147
H3    H     H_    0.546844 0.216103 0.739535 0.118432
H4    H     H_    0.454455 0.688996 0.259768 0.117237
H5    H     H_    0.616033 0.221860 0.851144 0.126663
H6    H     H_    0.385744 0.682557 0.147772 0.125929
C27   C     C_R   0.615839 0.149842 0.678103 -0.051369
C28   C     C_R   0.384246 0.647038 0.321915 -0.045446
C29   C     C_R   0.909657 0.030409 0.760542 -0.268255
C30   C     C_R   0.089400 0.550327 0.239764 -0.237217
C31   C     C_R   0.872899 0.024760 0.695073 0.443842
C32   C     C_R   0.125792 0.552137 0.305477 0.509073
C33   C     C_R   0.810632 0.054326 0.689142 -0.211018
C34   C     C_R   0.188347 0.575941 0.311345 -0.230250
C35   C     C_R   0.783554 0.092398 0.748588 0.008106
C36   C     C_R   0.216223 0.597048 0.251460 0.005484
C37   C     C_R   0.821983 0.100325 0.815469 0.071114
C38   C     C_R   0.178259 0.595232 0.184247 0.068401
C39   C     C_R   0.719620 0.121966 0.743876 0.103237
C40   C     C_R   0.280450 0.619846 0.256067 0.106962
C41   C     C_R   0.696128 0.159979 0.806227 0.134210
C42   C     C_R   0.304699 0.641456 0.193254 0.133728
C43   C     C_R   0.734622 0.166819 0.870833 -0.196817
C44   C     C_R   0.266616 0.639286 0.128330 -0.192480
C45   C     C_R   0.796415 0.137269 0.875503 -0.166999
C46   C     C_R   0.204531 0.616320 0.123783 -0.159510
C47   C     C_R   0.677922 0.116400 0.679741 -0.204654
C48   C     C_R   0.321761 0.622303 0.320497 -0.200691
C49   C     C_R   0.594427 0.188267 0.740253 -0.149993
C50   C     C_R   0.406463 0.669019 0.259287 -0.167012
C51   C     C_R   0.885254 0.068612 0.820900 -0.135221
C52   C     C_R   0.114639 0.571602 0.179002 -0.156682
H7    H     H_    0.957706 0.003613 0.764715 0.153165
H8    H     H_    0.040931 0.532393 0.235717 0.169730
O11   O     O_R   0.051730 0.724670 0.084120 -0.531952
O12   O     O_R   0.948270 0.224670 0.915880 -0.534068
O13   O     O_R   0.063080 0.393540 0.944820 -0.536381
O14   O     O_R   0.936920 0.893540 0.055180 -0.536191
C53   C     C_R   0.078175 0.562073 0.924867 0.713237
C54   C     C_R   0.921873 0.062090 0.075208 0.716887
O15   O     O_R   0.058800 0.395030 0.085390 -0.534369
O16   O     O_R   0.941200 0.895030 0.914610 -0.535479
O17   O     O_R   0.943980 0.223310 0.057440 -0.533880
O18   O     O_R   0.056020 0.723310 0.942560 -0.534087
C55   C     C_R   0.072927 0.563723 0.111286 0.714565
C56   C     C_R   0.927063 0.063202 0.888656 0.706850
O19   O     O_3   0.962360 0.556290 0.990650 -0.372022
O20   O     O_3   0.037640 0.056290 0.009350 -0.370439
V3    V     V_3+5 0.006980 0.281990 0.001730 1.453820
V4    V     V_3+5 0.993020 0.781990 0.998270 1.453728
S1    S     S_3+6 0.740771 0.771139 0.358407 0.020129
O21   O     O_2   0.678010 0.689556 0.343962 -0.373092
O22   O     O_2   0.786007 0.619313 0.350964 -0.302530
O23   O     O_3   0.754060 0.856691 0.440511 -0.459779
H9    H     H_    0.747210 0.748764 0.470615 0.382361
S2    S     S_3+6 0.341767 0.265116 0.744703 -0.025177
O24   O     O_2   0.330423 0.112063 0.794516 -0.342526
O25   O     O_2   0.333936 0.186789 0.671644 -0.352195
O26   O     O_3   0.412931 0.345459 0.767237 -0.508041
H10   H     H_    0.438929 0.234797 0.762836 0.355186
H11   H     H_    0.784604 0.045590 0.637312 0.165821
H12   H     H_    0.213889 0.577598 0.363533 0.162789
S3    S     S_3+6 0.904735 0.974637 0.619872 0.099336
O27   O     O_2   0.897910 0.767487 0.604286 -0.265081
O28   O     O_2   0.872385 0.083204 0.558301 -0.270396
O29   O     O_3   0.978694 0.030464 0.633176 -0.460309
H13   H     H_    0.979963 0.168673 0.640667 0.350243
S4    S     S_3+6 0.092905 0.526763 0.381398 0.071954
O30   O     O_2   0.131930 0.401402 0.432665 -0.299936
O31   O     O_2   0.088582 0.717742 0.413842 -0.278478
O32   O     O_3   0.023286 0.432564 0.361188 -0.480486
H14   H     H_    0.007824 0.426941 0.406138 0.407539
H15   H     H_    0.824120 0.143861 0.926840 0.103602
H16   H     H_    0.177152 0.615493 0.072196 0.103946
H17   H     H_    0.817901 0.824527 0.254739 0.179841
H18   H     H_    0.245011 0.320839 0.823871 0.170973
H19   H     H_    0.760943 0.365702 0.169057 0.129985
H20   H     H_    0.177847 0.867174 0.754518 0.147639
H21   H     H_    0.716737 0.195530 0.918412 0.125218
H22   H     H_    0.285061 0.655534 0.080400 0.134291
H23   H     H_    0.692063 0.089478 0.630177 0.113246
H24   H     H_    0.307086 0.606624 0.370362 0.108200

loop_
_geom_bond_atom_site_label_1
_geom_bond_atom_site_label_2
_ccdc_geom_bond_type
S3    O27   D    
C26   C42   A    
C2    C27   S    
C13   C15   A    
C5    C15   A    
O1    C3    A    
O16   C56   A    
C7    C17   S    
C6    H18   S    
C2    O7    A    
O15   V3    S    
O26   H10   S    
C5    H17   S    
C29   C31   A    
C13   C19   S    
O5    C3    A    
O14   C54   A    
C3    C22   S    
C7    C9    A    
C12   H2    S    
C28   C48   A    
O12   C56   A    
C31   S3    S    
O20   V4    S    
C39   C41   A    
S4    O30   D    
C40   C42   A    
C42   C44   A    
C43   C45   A    
C29   C51   A    
C44   C46   A    
C5    C7    A    
C40   C48   A    
C31   C33   A    
C37   C45   A    
C27   C49   A    
C32   C34   A    
C38   C46   A    
C6    C16   A    
C18   C24   T    
O12   V3    S    
S1    O22   D    
O14   V4    S    
C20   C22   T    
C9    H19   S    
C30   C32   A    
O2    C4    A    
O6    V2    S    
C48   H24   S    
H4    C50   S    
C30   H8    S    
C8    C18   S    
C15   S1    S    
O29   H13   S    
C34   C36   A    
C35   C37   A    
C33   H11   S    
C36   C38   A    
C41   C43   A    
O19   V3    S    
C43   H21   S    
H3    C49   S    
O4    C2    A    
C30   C52   A    
C35   C39   A    
O20   V3    S    
C25   H5    S    
O5    V1    S    
S2    O26   S    
C34   H12   S    
C17   C23   T    
C33   C35   A    
O4    V2    S    
O11   V4    S    
C28   C50   A    
C52   C55   S    
O6    C4    A    
C25   C41   A    
C47   H23   S    
O1    V2    S    
O17   V3    S    
S1    O23   S    
S2    O25   D    
O2    V1    S    
O13   C53   A    
C29   H7    S    
C37   C51   A    
O13   V3    S    
C8    C10   A    
S3    O29   S    
C11   C13   A    
C9    C11   A    
C27   C47   A    
C10   C12   A    
O3    V1    S    
C36   C40   A    
O19   V4    S    
C25   C49   A    
C12   C14   A    
C39   C47   A    
O3    C1    A    
C24   C53   S    
C1    C28   S    
C38   C52   A    
S3    O28   D    
C14   C16   A    
O7    V1    S    
C1    O8    A    
O16   V4    S    
C51   C56   S    
O8    V2    S    
O32   H14   S    
O15   C55   A    
C54   O17   A    
S4    O31   D    
C53   O18   A    
O18   V4    S    
C10   H20   S    
O23   H9    S    
C19   C21   T    
C6    C8    A    
C11   H1    S    
C45   H15   S    
S2    O24   D    
C44   H22   S    
C46   H16   S    
C14   C20   S    
C26   H6    S    
C16   S2    S    
C26   C50   A    
O9    V2    S    
C32   S4    S    
O10   V1    S    
S1    O21   D    
C23   C54   S    
O11   C55   A    
C4    C21   S    
S4    O32   S    
