data_mof_unit_47547.cif
_audit_creation_date              2013-03-05T15:42:07-0500
_audit_creation_method            fapswitch 2.2
_symmetry_space_group_name_H-M    P1
_symmetry_Int_Tables_number       1
_space_group_crystal_system       triclinic
_cell_length_a                    21.943225
_cell_length_b                    7.208139
_cell_length_c                    14.935259
_cell_angle_alpha                 89.74983
_cell_angle_beta                  107.077146
_cell_angle_gamma                 89.933882
_cell_volume                      2258.12471602

loop_
_atom_site_label
_atom_site_type_symbol
_atom_site_description
_atom_site_fract_x
_atom_site_fract_y
_atom_site_fract_z
_atom_type_partial_charge
O1    O     O_R   0.584770 0.505770 0.002090 -0.556431
O2    O     O_R   0.415230 0.005770 0.997910 -0.557244
O3    O     O_R   0.467060 0.173340 0.861950 -0.551165
O4    O     O_R   0.532940 0.673340 0.138050 -0.558592
C1    C     C_R   0.455167 0.344627 0.826059 0.794108
C2    C     C_R   0.544802 0.843838 0.174018 0.793768
O5    O     O_R   0.587510 0.175890 0.993210 -0.559497
O6    O     O_R   0.412490 0.675890 0.006790 -0.558563
O7    O     O_R   0.536540 0.008150 0.130100 -0.550541
O8    O     O_R   0.463460 0.508150 0.869900 -0.555129
C3    C     C_R   0.612924 0.344877 0.997271 0.828429
C4    C     C_R   0.387074 0.845011 0.002754 0.829487
O9    O     O_3   0.483140 0.340040 0.044760 -0.275510
O10   O     O_3   0.516860 0.840040 0.955240 -0.274735
V1    V     V_3+5 0.503130 0.064190 0.991700 1.176685
V2    V     V_3+5 0.496870 0.564190 0.008300 1.173261
C5    C     C_2   0.214303 0.727546 0.004653 -0.079387
C6    C     C_2   0.785941 0.227723 0.995987 -0.076983
C7    C     C_2   0.180379 0.886561 0.996487 -0.199457
C8    C     C_2   0.819618 0.386782 0.003562 -0.196564
H1    H     H_    0.191392 0.596828 0.011202 0.109080
H2    H     H_    0.809070 0.097063 0.989949 0.108731
H3    H     H_    0.201771 0.018701 0.988882 0.076775
H4    H     H_    0.798035 0.518865 0.010740 0.075722
C9    C     C_2   0.282208 0.714644 0.004442 -0.071898
C10   C     C_2   0.718052 0.214554 0.996232 -0.077454
C11   C     C_2   0.320038 0.861548 0.004029 -0.181315
C12   C     C_2   0.679946 0.361340 0.995951 -0.178102
H5    H     H_    0.301559 0.575695 0.005274 0.110741
H6    H     H_    0.698960 0.075571 0.996028 0.109034
H7    H     H_    0.302017 0.001355 0.004333 0.081488
H8    H     H_    0.697749 0.501151 0.995073 0.083917
C13   C     C_R   0.927058 0.891467 0.723898 -0.070561
C14   C     C_R   0.072922 0.382909 0.275831 -0.069177
C15   C     C_R   0.572033 0.850277 0.276029 -0.090818
C16   C     C_R   0.427602 0.352437 0.724177 -0.090127
C17   C     C_R   0.936563 0.944281 0.569182 -0.071027
C18   C     C_R   0.061406 0.357086 0.430857 -0.070527
C19   C     C_R   0.964512 0.930127 0.665384 -0.083318
C20   C     C_R   0.034131 0.372065 0.334492 -0.082755
C21   C     C_R   0.861291 0.869201 0.686377 -0.103089
C22   C     C_R   0.139125 0.377306 0.313215 -0.101666
C23   C     C_R   0.830781 0.892792 0.589175 0.064434
C24   C     C_R   0.168482 0.356826 0.410810 0.064606
C25   C     C_R   0.869917 0.926691 0.529803 0.038461
C26   C     C_R   0.128338 0.350409 0.470342 0.037650
C27   C     C_R   0.762907 0.884571 0.549711 -0.024914
C28   C     C_R   0.236240 0.345051 0.450604 -0.024839
C29   C     C_R   0.735240 0.896701 0.450757 0.026021
C30   C     C_R   0.263403 0.341790 0.549760 0.026260
C31   C     C_R   0.776019 0.928530 0.394477 -0.097802
C32   C     C_R   0.221755 0.335357 0.606217 -0.097237
C33   C     C_R   0.841776 0.944682 0.432630 -0.048939
C34   C     C_R   0.155727 0.337491 0.567878 -0.048756
C35   C     C_R   0.721821 0.871411 0.606625 -0.131546
C36   C     C_R   0.277436 0.330198 0.393982 -0.131286
C37   C     C_R   0.655781 0.859762 0.569214 0.338508
C38   C     C_R   0.343564 0.323758 0.431604 0.339776
C39   C     C_R   0.628324 0.854973 0.471341 -0.029312
C40   C     C_R   0.371161 0.338312 0.529168 -0.028147
C41   C     C_R   0.667608 0.877669 0.411205 0.013810
C42   C     C_R   0.331367 0.343154 0.589284 0.014453
C43   C     C_R   0.562320 0.823644 0.432421 -0.016031
C44   C     C_R   0.437988 0.350248 0.567756 -0.014779
C45   C     C_R   0.534221 0.821797 0.335726 -0.083785
C46   C     C_R   0.466185 0.354983 0.664405 -0.084398
C47   C     C_R   0.637637 0.876647 0.313244 -0.081046
C48   C     C_R   0.361336 0.350317 0.687121 -0.080343
H9    H     H_    0.663747 0.890790 0.262862 0.045602
H10   H     H_    0.334950 0.354274 0.737489 0.044531
H11   H     H_    0.967536 0.972578 0.526146 0.079719
H12   H     H_    0.029568 0.350537 0.474097 0.080049
H13   H     H_    0.015455 0.950060 0.694333 0.078293
H14   H     H_    0.982701 0.375495 0.305632 0.076212
H15   H     H_    0.835578 0.835820 0.735634 0.057008
H16   H     H_    0.166066 0.392653 0.263858 0.054788
H17   H     H_    0.758205 0.945817 0.319701 0.068420
H18   H     H_    0.238939 0.324769 0.681351 0.068151
H19   H     H_    0.739355 0.878541 0.681748 0.118284
H20   H     H_    0.259523 0.313409 0.319294 0.118400
H21   H     H_    0.532115 0.796277 0.476661 0.135472
H22   H     H_    0.468927 0.357548 0.523208 0.135035
O11   O     O_R   0.036450 0.233070 0.130130 -0.554341
O12   O     O_R   0.963550 0.733070 0.869870 -0.555900
O13   O     O_R   0.912470 0.560570 0.006790 -0.560644
O14   O     O_R   0.087530 0.060570 0.993210 -0.559006
C49   C     C_R   0.886972 0.391978 0.002518 0.825812
C50   C     C_R   0.113033 0.891847 0.997505 0.826121
O15   O     O_R   0.032920 0.562940 0.138050 -0.557859
O16   O     O_R   0.967080 0.062940 0.861950 -0.555331
O17   O     O_R   0.084790 0.730500 0.002090 -0.558806
O18   O     O_R   0.915210 0.230500 0.997910 -0.557721
C51   C     C_R   0.044762 0.393872 0.174437 0.810811
C52   C     C_R   0.955204 0.895050 0.825485 0.810126
O19   O     O_3   0.016820 0.396170 0.955260 -0.281081
O20   O     O_3   0.983180 0.896170 0.044740 -0.281588
V3    V     V_3+5 0.996880 0.672090 0.008300 1.151777
V4    V     V_3+5 0.003120 0.172090 0.991700 1.156128
C53   C     C_1   0.879330 0.979839 0.369159 0.240497
N1    N     N_1   0.909299 0.007893 0.318384 -0.298229
C54   C     C_1   0.117130 0.327822 0.631534 0.237896
N2    N     N_1   0.086322 0.320077 0.682444 -0.296072
C55   C     C_1   0.466349 0.791867 0.298944 0.370322
N3    N     N_1   0.411963 0.768582 0.269294 -0.211158
C56   C     C_1   0.534844 0.361321 0.701084 0.373416
N4    N     N_1   0.589835 0.365962 0.730639 -0.212660
N5    N     N_R   0.617344 0.857576 0.632486 0.077957
O21   O     O_R   0.569769 0.972522 0.619994 -0.377209
O22   O     O_R   0.636761 0.767108 0.711397 -0.362498
N6    N     N_R   0.381735 0.295288 0.369184 0.078180
O23   O     O_R   0.424767 0.164948 0.386762 -0.379443
O24   O     O_R   0.365386 0.373127 0.286748 -0.359879

loop_
_geom_bond_atom_site_label_1
_geom_bond_atom_site_label_2
_geom_bond_distance
_ccdc_geom_bond_type
C43   C45   1.393965 A    
C54   N2    1.157540 T    
C21   C23   1.418254 A    
C34   C54   1.448613 S    
C14   C22   1.395350 A    
C14   C51   1.459649 S    
O2    C4    1.325471 A    
C13   C52   1.460861 S    
C2    O7    1.337441 A    
O19   V4    1.756411 S    
O18   V4    2.002640 S    
C27   C29   1.425560 A    
C33   C53   1.448807 S    
O5    C3    1.334447 A    
C13   C19   1.391809 A    
C43   H21   1.082194 S    
C14   C20   1.391323 A    
O12   V3    2.026291 S    
C20   H14   1.083578 S    
O14   C50   1.331555 A    
C37   C39   1.408604 A    
C15   C45   1.399554 A    
C38   C40   1.408629 A    
O11   C51   1.323229 A    
C8    C49   1.483123 S    
C2    C15   1.465082 S    
C40   C42   1.424967 A    
N6    O23   1.301314 A    
C8    H4    1.082539 S    
C32   C34   1.392807 A    
C29   C31   1.414349 A    
O11   V4    2.030570 S    
C6    C10   1.493916 S    
C30   C32   1.414465 A    
N5    O21   1.301306 A    
O5    V1    2.013988 S    
C25   C33   1.405788 A    
O6    V2    2.012204 S    
C38   N6    1.439688 S    
C49   O18   1.329501 A    
N5    O22   1.301345 A    
C22   C24   1.416977 A    
C32   H18   1.076045 S    
C10   C12   1.347046 D    
C24   C26   1.424223 A    
O16   C52   1.323693 A    
O13   C49   1.332366 A    
C9    H5    1.085999 S    
C18   H12   1.082659 S    
C39   C41   1.424884 A    
C29   C41   1.434062 A    
C4    C11   1.481374 S    
C11   H7    1.082644 S    
C12   H8    1.082678 S    
O4    C2    1.338312 A    
C7    C50   1.482785 S    
C5    H1    1.085949 S    
O15   V3    2.021104 S    
C47   H9    1.075897 S    
C44   C46   1.394110 A    
O4    V2    2.028461 S    
C7    H3    1.082533 S    
C31   H17   1.076029 S    
C21   H15   1.077025 S    
C35   H19   1.075413 S    
C41   C47   1.417080 A    
C16   C46   1.399237 A    
C53   N1    1.157715 T    
C50   O17   1.329382 A    
C15   C47   1.396076 A    
O6    C4    1.333710 A    
O20   V3    1.760140 S    
C26   C34   1.405852 A    
O1    V2    2.002440 S    
O12   C52   1.325764 A    
O17   V3    2.003405 S    
O2    V1    2.003208 S    
C23   C25   1.424549 A    
C44   H22   1.082325 S    
C37   N5    1.439662 S    
C1    C16   1.463908 S    
C10   H6    1.086002 S    
C17   H11   1.082779 S    
C30   C42   1.433770 A    
C45   C55   1.444882 S    
C46   C56   1.444872 S    
C17   C25   1.413014 A    
O3    V1    2.021174 S    
C27   C35   1.412073 A    
C28   C36   1.411854 A    
C6    H2    1.085930 S    
C22   H16   1.077275 S    
O3    C1    1.338340 A    
C16   C48   1.395837 A    
C9    C11   1.347359 D    
C56   N4    1.157334 T    
C39   C43   1.412098 A    
C36   H20   1.075755 S    
C42   C48   1.416565 A    
C40   C44   1.412179 A    
C13   C21   1.395995 A    
C35   C37   1.394396 A    
O7    V1    2.018738 S    
C5    C9    1.493781 S    
C1    O8    1.337323 A    
C17   C19   1.389948 A    
O8    V2    2.022684 S    
C18   C20   1.390627 A    
C3    C12   1.481466 S    
C28   C30   1.424841 A    
C5    C7    1.351388 D    
C36   C38   1.394341 A    
C6    C8    1.351805 D    
C19   H13   1.083618 S    
O15   C51   1.326108 A    
O14   V4    2.012288 S    
N6    O24   1.301324 A    
C18   C26   1.413519 A    
O13   V3    2.014076 S    
C48   H10   1.076057 S    
O9    V2    1.757154 S    
C55   N3    1.157242 T    
O10   V1    1.760882 S    
O1    C3    1.325536 A    
C31   C33   1.392253 A    
C23   C27   1.433191 A    
O16   V4    2.028387 S    
C24   C28   1.432252 A    
