data_mof_unit_65153.cif
_audit_creation_date              2012-12-10T20:56:49-0500
_audit_creation_method            fapswitch 2.2
_symmetry_space_group_name_H-M    P1
_symmetry_Int_Tables_number       1
_space_group_crystal_system       triclinic
_cell_length_a                    26.35645
_cell_length_b                    33.028599
_cell_length_c                    21.146245
_cell_angle_alpha                 90.000021
_cell_angle_beta                  128.643051
_cell_angle_gamma                 90.0
_cell_volume                      14377.7188051

loop_
_atom_site_label
_atom_site_type_symbol
_atom_type_description
_atom_site_fract_x
_atom_site_fract_y
_atom_site_fract_z
_atom_type_partial_charge
C1    C     C_R   0.500000 0.145573 0.500000 0.495551
C2    C     C_R   0.640511 0.619067 0.491280 -0.094213
C3    C     C_R   0.640698 0.749461 0.499106 0.513246
C4    C     C_R   0.140698 0.750539 0.499106 0.513245
C5    C     C_R   0.859302 0.249461 0.500894 0.513245
C6    C     C_R   0.859302 0.750539 0.500894 0.513244
C7    C     C_R   0.140698 0.249461 0.499106 0.513246
C8    C     C_R   0.395542 0.250038 0.291105 0.493973
C9    C     C_R   0.604458 0.749961 0.708894 0.493973
C10   C     C_R   0.604458 0.250038 0.708894 0.493973
C11   C     C_R   0.395542 0.749961 0.291105 0.493973
C12   C     C_R   0.895542 0.750038 0.291105 0.493973
C13   C     C_R   0.640505 0.380932 0.491271 -0.094213
C14   C     C_R   0.104458 0.249961 0.708894 0.493973
C15   C     C_R   0.104458 0.750038 0.708894 0.493973
C16   C     C_R   0.895542 0.249961 0.291105 0.493973
C17   C     C_1   0.649554 0.250056 0.799028 -0.013161
C18   C     C_1   0.350445 0.749943 0.200972 -0.013162
C19   C     C_1   0.350445 0.250057 0.200972 -0.013162
C20   C     C_1   0.649554 0.749943 0.799028 -0.013162
C21   C     C_1   0.149555 0.750057 0.799028 -0.013161
C22   C     C_1   0.850445 0.249943 0.200972 -0.013162
C23   C     C_1   0.850445 0.750057 0.200972 -0.013162
C24   C     C_R   0.359493 0.619068 0.508725 -0.094213
C25   C     C_1   0.149554 0.249943 0.799028 -0.013162
C26   C     C_1   0.687008 0.250045 0.873946 -0.037515
C27   C     C_1   0.312992 0.749955 0.126054 -0.037515
C28   C     C_1   0.312992 0.250045 0.126054 -0.037515
C29   C     C_1   0.687008 0.749955 0.873946 -0.037515
C30   C     C_1   0.187008 0.750045 0.873946 -0.037515
C31   C     C_1   0.812992 0.249955 0.126054 -0.037515
C32   C     C_1   0.812992 0.750045 0.126054 -0.037515
C33   C     C_1   0.187008 0.249955 0.873946 -0.037515
C34   C     C_1   0.731283 0.250015 0.962542 -0.001741
C35   C     C_R   0.859494 0.880932 0.508727 -0.094213
C36   C     C_1   0.268717 0.749985 0.037458 -0.001741
C37   C     C_1   0.268717 0.250015 0.037458 -0.001741
C38   C     C_1   0.731283 0.749985 0.962542 -0.001742
C39   C     C_1   0.231283 0.750015 0.962542 -0.001741
C40   C     C_1   0.768717 0.249985 0.037458 -0.001741
C41   C     C_1   0.768717 0.750015 0.037458 -0.001741
C42   C     C_1   0.231283 0.249985 0.962542 -0.001741
C43   C     C_1   0.500000 0.399524 0.500000 -0.028550
C44   C     C_1   0.500000 0.600476 0.500000 -0.028551
C45   C     C_1   0.000000 0.899524 0.500000 -0.028550
C46   C     C_R   0.140507 0.119068 0.491275 -0.094214
C47   C     C_1   1.000000 0.100476 0.500000 -0.028550
C48   C     C_1   0.500000 0.436977 0.500000 -0.057196
C49   C     C_1   0.500000 0.563022 0.500000 -0.057196
C50   C     C_1   0.000000 0.936977 0.500000 -0.057196
C51   C     C_1   1.000000 0.063022 0.500000 -0.057196
C52   C     C_R   0.140506 0.880932 0.491273 -0.094213
C53   C     C_R   0.859494 0.119068 0.508727 -0.094213
C54   C     C_R   0.343236 0.344009 0.524279 -0.064144
C55   C     C_R   0.656769 0.655990 0.475727 -0.064147
C56   C     C_R   0.656764 0.344009 0.475722 -0.064144
C57   C     C_R   0.500000 0.854427 0.500000 0.495552
C58   C     C_R   0.343234 0.655991 0.524276 -0.064145
C59   C     C_R   0.843235 0.844009 0.524277 -0.064144
C60   C     C_R   0.156766 0.155990 0.475724 -0.064146
C61   C     C_R   0.156765 0.844009 0.475723 -0.064144
C62   C     C_R   0.843235 0.155991 0.524277 -0.064145
C63   C     C_R   0.282787 0.325837 0.464790 0.051399
C64   C     C_R   0.717216 0.674164 0.535215 0.051398
C65   C     C_R   0.717214 0.325837 0.535211 0.051399
C66   C     C_R   0.282785 0.674163 0.464788 0.051398
C67   C     C_R   0.782786 0.825837 0.464788 0.051399
C68   C     C_R   1.000000 0.645573 0.500000 0.495551
C69   C     C_R   0.217214 0.174163 0.535212 0.051398
C70   C     C_R   0.217214 0.825837 0.535211 0.051399
C71   C     C_R   0.782786 0.174163 0.464789 0.051399
C72   C     C_R   0.238425 0.345616 0.390342 -0.087289
C73   C     C_R   0.761576 0.654389 0.609667 -0.087286
C74   C     C_R   0.761575 0.345615 0.609659 -0.087288
C75   C     C_R   0.238424 0.654386 0.390338 -0.087288
C76   C     C_R   0.738424 0.845615 0.390340 -0.087289
C77   C     C_R   0.261575 0.154387 0.609662 -0.087287
C78   C     C_R   0.261575 0.845615 0.609660 -0.087289
C79   C     C_R   0.000000 0.354427 0.500000 0.495552
C80   C     C_R   0.738425 0.154385 0.390340 -0.087288
C81   C     C_R   0.254863 0.382583 0.375106 -0.107581
C82   C     C_R   0.745140 0.617422 0.624907 -0.107580
C83   C     C_R   0.745138 0.382582 0.624896 -0.107581
C84   C     C_R   0.254861 0.617419 0.375100 -0.107581
C85   C     C_R   0.754861 0.882582 0.375103 -0.107581
C86   C     C_R   0.245138 0.117420 0.624900 -0.107580
C87   C     C_R   0.245138 0.882582 0.624897 -0.107581
C88   C     C_R   0.754862 0.117418 0.375102 -0.107581
C89   C     C_R   0.315418 0.400156 0.434135 -0.091979
C90   C     C_1   0.500000 0.481271 0.500000 -0.016172
C91   C     C_R   0.684587 0.599846 0.565878 -0.091979
C92   C     C_R   0.684582 0.400156 0.565867 -0.091979
C93   C     C_R   0.315416 0.599845 0.434129 -0.091979
C94   C     C_R   0.815416 0.900156 0.434132 -0.091979
C95   C     C_R   0.184584 0.099845 0.565871 -0.091979
C96   C     C_R   0.184583 0.900155 0.565868 -0.091979
C97   C     C_R   0.815417 0.099845 0.434131 -0.091979
C98   C     C_R   0.211489 0.284453 0.477875 -0.149358
C99   C     C_R   0.788511 0.715548 0.522126 -0.149359
C100  C     C_R   0.788511 0.284453 0.522125 -0.149358
C101  C     C_1   0.500000 0.518729 0.500000 -0.016172
C102  C     C_R   0.211489 0.715547 0.477875 -0.149358
C103  C     C_R   0.711489 0.784452 0.477874 -0.149358
C104  C     C_R   0.288511 0.215547 0.522125 -0.149358
C105  C     C_R   0.288511 0.784452 0.522125 -0.149358
C106  C     C_R   0.711489 0.215547 0.477875 -0.149358
C107  C     C_R   0.195772 0.248737 0.497966 0.014337
C108  C     C_R   0.804228 0.751263 0.502035 0.014337
C109  C     C_R   0.804228 0.248737 0.502034 0.014337
C110  C     C_R   0.195772 0.751263 0.497966 0.014337
C111  C     C_R   0.695772 0.748737 0.497966 0.014337
C112  C     C_1   0.000000 0.981271 0.500000 -0.016172
C113  C     C_R   0.304228 0.251263 0.502035 0.014337
C114  C     C_R   0.304228 0.748737 0.502034 0.014337
C115  C     C_R   0.695772 0.251263 0.497966 0.014337
C116  C     C_R   0.234203 0.213644 0.519373 -0.028936
C117  C     C_R   0.765797 0.786356 0.480626 -0.028935
C118  C     C_R   0.765797 0.213644 0.480627 -0.028936
C119  C     C_R   0.234203 0.786356 0.519373 -0.028935
C120  C     C_R   0.734203 0.713644 0.519375 -0.028937
C121  C     C_R   0.265798 0.286356 0.480627 -0.028935
C122  C     C_R   0.265797 0.713644 0.480627 -0.028936
C123  C     C_1   0.000000 0.018729 0.500000 -0.016172
C124  C     C_R   0.734202 0.286356 0.519373 -0.028935
C125  C     C_R   0.500000 0.354470 0.500000 0.488612
C126  C     C_R   0.500000 0.645530 0.500000 0.488612
C127  C     C_R   0.000000 0.854470 0.500000 0.488612
C128  C     C_R   0.000000 0.145530 0.500000 0.488613
C129  C     C_1   0.500000 0.100499 0.500000 -0.013086
C130  C     C_1   0.500000 0.899501 0.500000 -0.013085
C131  C     C_1   0.000000 0.600499 0.500000 -0.013086
C132  C     C_1   0.000000 0.399501 0.500000 -0.013086
C133  C     C_1   0.500000 0.063035 0.500000 -0.037305
C134  C     C_R   0.359496 0.380932 0.508730 -0.094213
C135  C     C_1   0.500000 0.936964 0.500000 -0.037305
C136  C     C_1   0.000000 0.563035 0.500000 -0.037305
C137  C     C_1   0.000000 0.436964 0.500000 -0.037305
C138  C     C_1   0.500000 0.018731 0.500000 -0.001484
C139  C     C_1   0.500000 0.981269 0.500000 -0.001484
C140  C     C_1   1.000000 0.518731 0.500000 -0.001484
C141  C     C_1   0.000000 0.481269 0.500000 -0.001484
C142  C     C_R   0.640698 0.250539 0.499106 0.513245
C143  C     C_R   0.359302 0.749461 0.500894 0.513245
C144  C     C_R   0.359302 0.250539 0.500894 0.513244
H1    H     H_    0.328148 0.428696 0.422144 0.111726
H2    H     H_    0.622204 0.670540 0.417603 0.092869
H3    H     H_    0.622198 0.329456 0.417600 0.092868
H4    H     H_    0.377800 0.670543 0.582399 0.092868
H5    H     H_    0.877801 0.829456 0.582399 0.092867
H6    H     H_    0.122201 0.170542 0.417600 0.092868
H7    H     H_    0.122198 0.829456 0.417600 0.092868
H8    H     H_    0.877801 0.170543 0.582400 0.092868
H9    H     H_    0.220703 0.397561 0.317431 0.109618
H10   H     H_    0.779298 0.602447 0.682585 0.109618
H11   H     H_    0.779297 0.397560 0.682572 0.109618
H12   H     H_    0.671858 0.571307 0.577872 0.111725
H13   H     H_    0.220702 0.602442 0.317424 0.109618
H14   H     H_    0.720701 0.897560 0.317427 0.109618
H15   H     H_    0.279297 0.102443 0.682577 0.109618
H16   H     H_    0.279298 0.897559 0.682573 0.109618
H17   H     H_    0.720702 0.102441 0.317426 0.109618
H18   H     H_    0.182594 0.311504 0.462776 0.132838
H19   H     H_    0.817407 0.688496 0.537227 0.132840
H20   H     H_    0.817406 0.311504 0.537225 0.132839
H21   H     H_    0.182593 0.688496 0.462774 0.132839
H22   H     H_    0.682593 0.811504 0.462774 0.132839
H23   H     H_    0.671852 0.428695 0.577858 0.111726
H24   H     H_    0.317406 0.188496 0.537225 0.132840
H25   H     H_    0.317406 0.811504 0.537225 0.132839
H26   H     H_    0.682594 0.188496 0.462775 0.132839
H27   H     H_    0.406310 0.394612 0.554470 0.104242
H28   H     H_    0.593699 0.605385 0.445540 0.104243
H29   H     H_    0.593691 0.394613 0.445532 0.104242
H30   H     H_    0.406306 0.605387 0.554465 0.104242
H31   H     H_    0.906308 0.894613 0.554466 0.104242
H32   H     H_    0.093694 0.105386 0.445535 0.104243
H33   H     H_    0.093692 0.894613 0.445533 0.104242
H34   H     H_    0.328145 0.571305 0.422137 0.111726
H35   H     H_    0.906308 0.105387 0.554467 0.104242
H36   H     H_    0.191523 0.332186 0.343895 0.108789
H37   H     H_    0.808477 0.667820 0.656115 0.108789
H38   H     H_    0.808477 0.332186 0.656107 0.108789
H39   H     H_    0.191523 0.667816 0.343891 0.108789
H40   H     H_    0.691522 0.832185 0.343892 0.108789
H41   H     H_    0.308476 0.167817 0.656110 0.108789
H42   H     H_    0.308477 0.832185 0.656107 0.108789
H43   H     H_    0.691523 0.167815 0.343892 0.108789
H44   H     H_    0.828146 0.928695 0.422140 0.111726
H45   H     H_    0.171854 0.071306 0.577864 0.111726
H46   H     H_    0.171853 0.928695 0.577859 0.111726
H47   H     H_    0.828147 0.071305 0.422140 0.111726
H48   H     H_    0.377802 0.329456 0.582401 0.092868
O1    O     O_3   0.500000 0.250010 0.500000 -0.400602
O2    O     O_R   0.008350 0.334000 0.455930 -0.527633
O3    O     O_R   0.008350 0.666000 0.455930 -0.527632
O4    O     O_R   0.991650 0.334000 0.544070 -0.527633
O5    O     O_R   0.552380 0.334020 0.544040 -0.525026
O6    O     O_R   0.447620 0.665980 0.455960 -0.525026
O7    O     O_R   0.447620 0.334020 0.455960 -0.525026
O8    O     O_R   0.552380 0.665980 0.544040 -0.525026
O9    O     O_R   0.052380 0.834020 0.544040 -0.525026
O10   O     O_R   0.947620 0.165980 0.455960 -0.525025
O11   O     O_R   0.947620 0.834020 0.455960 -0.525026
O12   O     O_3   0.500000 0.749990 0.500000 -0.400602
O13   O     O_R   0.052380 0.165980 0.544040 -0.525025
O14   O     O_R   0.593780 0.227990 0.455960 -0.543864
O15   O     O_R   0.406220 0.772010 0.544040 -0.543865
O16   O     O_R   0.406220 0.227990 0.544040 -0.543865
O17   O     O_R   0.593780 0.772010 0.455960 -0.543864
O18   O     O_R   0.093780 0.727990 0.455960 -0.543865
O19   O     O_R   0.906220 0.272010 0.544040 -0.543865
O20   O     O_R   0.906220 0.727990 0.544040 -0.543865
O21   O     O_R   0.093780 0.272010 0.455960 -0.543865
O22   O     O_R   0.362170 0.272040 0.455960 -0.524080
O23   O     O_3   0.000000 0.750010 0.500000 -0.400602
O24   O     O_R   0.637830 0.727960 0.544040 -0.524080
O25   O     O_R   0.637830 0.272040 0.544040 -0.524080
O26   O     O_R   0.362170 0.727960 0.455960 -0.524080
O27   O     O_R   0.862170 0.772040 0.455960 -0.524080
O28   O     O_R   0.137830 0.227960 0.544040 -0.524080
O29   O     O_R   0.137830 0.772040 0.544040 -0.524080
O30   O     O_R   0.862170 0.227960 0.455960 -0.524080
O31   O     O_R   0.446360 0.228000 0.332000 -0.528220
O32   O     O_R   0.553640 0.772000 0.668000 -0.528221
O33   O     O_R   0.553640 0.228000 0.668000 -0.528221
O34   O     O_3   0.000000 0.249990 0.500000 -0.400602
O35   O     O_R   0.446360 0.772000 0.332000 -0.528220
O36   O     O_R   0.946360 0.728000 0.332000 -0.528220
O37   O     O_R   0.053640 0.272000 0.668000 -0.528221
O38   O     O_R   0.053640 0.728000 0.668000 -0.528221
O39   O     O_R   0.946360 0.272000 0.332000 -0.528220
O40   O     O_R   0.385640 0.272040 0.331990 -0.526540
O41   O     O_R   0.614360 0.727960 0.668010 -0.526541
O42   O     O_R   0.614360 0.272040 0.668010 -0.526540
O43   O     O_R   0.385640 0.727960 0.331990 -0.526540
O44   O     O_R   0.885640 0.772040 0.331990 -0.526540
O45   O     O_R   0.491650 0.166000 0.544070 -0.527632
O46   O     O_R   0.114360 0.227960 0.668010 -0.526541
O47   O     O_R   0.114360 0.772040 0.668010 -0.526540
O48   O     O_R   0.885640 0.227960 0.331990 -0.526540
O49   O     O_R   0.508350 0.834000 0.455930 -0.527633
O50   O     O_R   0.508350 0.166000 0.455930 -0.527632
O51   O     O_R   0.491650 0.834000 0.544070 -0.527633
O52   O     O_R   0.991650 0.666000 0.544070 -0.527632
Zn1   Zn    Zn3+2 0.574840 0.281480 0.562930 0.955366
Zn2   Zn    Zn3+2 0.488090 0.781450 0.562930 0.947994
Zn3   Zn    Zn3+2 0.488090 0.218550 0.562930 0.947994
Zn4   Zn    Zn3+2 0.511910 0.781450 0.437070 0.947995
Zn5   Zn    Zn3+2 0.011910 0.718550 0.437070 0.947994
Zn6   Zn    Zn3+2 0.988090 0.281450 0.562930 0.947994
Zn7   Zn    Zn3+2 0.988090 0.718550 0.562930 0.947994
Zn8   Zn    Zn3+2 0.011910 0.281450 0.437070 0.947994
Zn9   Zn    Zn3+2 0.425160 0.718520 0.437070 0.955366
Zn10  Zn    Zn3+2 0.425160 0.281480 0.437070 0.955366
Zn11  Zn    Zn3+2 0.574840 0.718520 0.562930 0.955366
Zn12  Zn    Zn3+2 0.074840 0.781480 0.562930 0.955366
Zn13  Zn    Zn3+2 0.925160 0.218520 0.437070 0.955366
Zn14  Zn    Zn3+2 0.925160 0.781480 0.437070 0.955366
Zn15  Zn    Zn3+2 0.074840 0.218520 0.562930 0.955366
Zn16  Zn    Zn3+2 0.511910 0.218550 0.437070 0.947994

loop_
_geom_bond_atom_site_label_1
_geom_bond_atom_site_label_2
_ccdc_geom_bond_type
C61   C70   A    
O33   Zn3   S    
C98   C121  A    
O15   Zn2   S    
C11   C18   S    
C3    O17   A    
O52   Zn7   S    
O22   Zn10  S    
O49   Zn4   S    
C51   C123  S    
C69   C77   A    
C130  C135  T    
C9    O32   A    
C13   C92   A    
C74   C83   A    
C136  C140  S    
C33   C42   S    
C24   H30   S    
C43   C125  S    
C4    O18   A    
C47   C128  S    
C142  O25   A    
C31   C40   S    
C89   H1    S    
C99   C108  A    
C12   C23   S    
C44   C126  S    
C79   O2    A    
C105  H25   S    
O37   Zn6   S    
C34   C40   T    
C17   C26   T    
C60   C69   A    
O23   Zn14  S    
C35   C59   A    
O12   Zn4   S    
C94   H44   S    
C88   H17   S    
C1    C129  S    
C2    C55   A    
O42   Zn1   S    
C49   C101  S    
O31   Zn16  S    
C58   H4    S    
C75   C84   A    
C12   O36   A    
C70   C78   A    
C54   C63   A    
O39   Zn8   S    
C10   C17   S    
C56   C65   A    
C54   C134  A    
C15   O47   A    
O1    Zn16  S    
C81   H9    S    
C87   H16   S    
O45   Zn3   S    
O21   Zn8   S    
C103  C111  A    
C53   C62   A    
C65   C124  S    
C96   H46   S    
C37   C42   T    
O34   Zn6   S    
C52   H33   S    
C14   O37   A    
C57   O49   A    
C63   C121  S    
C99   C120  A    
C104  C116  A    
C28   C37   S    
C26   C34   S    
O7    Zn10  S    
C143  O15   A    
C46   C95   A    
C93   H34   S    
C3    C111  S    
C29   C38   S    
C30   C39   S    
C10   O33   A    
C76   H40   S    
C64   C73   A    
C66   C122  S    
C80   H43   S    
C78   H42   S    
O48   Zn13  S    
C86   H15   S    
O18   Zn5   S    
C88   C97   A    
O11   Zn14  S    
C4    C110  S    
C84   C93   A    
C13   C56   A    
C81   C89   A    
C126  O6    A    
C142  O14   A    
C5    O30   A    
O35   Zn4   S    
O29   Zn12  S    
C75   H39   S    
C100  C109  A    
C61   H7    S    
C48   C90   S    
C106  C118  A    
C7    C107  S    
O23   Zn7   S    
C106  H26   S    
C115  C142  S    
C103  C117  A    
C77   H41   S    
C53   H35   S    
O34   Zn13  S    
C71   C80   A    
C98   H18   S    
C72   H36   S    
C58   C66   A    
C109  C118  A    
C20   C29   T    
C59   H5    S    
C11   O43   A    
C5    O19   A    
C10   O42   A    
C8    C19   S    
C22   C31   T    
O14   Zn16  S    
C57   C130  S    
O28   Zn15  S    
O40   Zn10  S    
C140  C141  T    
O43   Zn9   S    
C112  C123  T    
C131  C136  T    
C1    O50   A    
O10   Zn13  S    
C14   O46   A    
O12   Zn11  S    
O41   Zn11  S    
C55   H2    S    
C47   C51   T    
O8    Zn11  S    
C1    O45   A    
C132  C137  T    
O34   Zn8   S    
C9    O41   A    
C44   C49   T    
C82   C91   A    
C45   C127  S    
C111  C120  A    
C100  C124  A    
C82   H10   S    
C110  C119  A    
C68   C131  S    
C13   H29   S    
C90   C101  T    
C83   C92   A    
C104  H24   S    
C73   H37   S    
C85   C94   A    
C105  C114  A    
C9    C20   S    
C79   C132  S    
C15   C21   S    
C70   C119  S    
C32   C41   S    
O51   Zn2   S    
C55   C64   A    
O2    Zn8   S    
C50   C112  S    
O1    Zn3   S    
C113  C121  A    
O46   Zn15  S    
C100  H20   S    
O27   Zn14  S    
C60   H6    S    
C63   C72   A    
O20   Zn7   S    
C133  C138  S    
C19   C28   T    
C67   C117  S    
O17   Zn4   S    
C16   O48   A    
C7    O21   A    
C8    O31   A    
C62   H8    S    
C38   C41   T    
C99   H19   S    
C7    O28   A    
O6    Zn9   S    
O32   Zn2   S    
C11   O35   A    
C77   C86   A    
C102  H21   S    
C134  H27   S    
C15   O38   A    
C129  C133  T    
C102  C110  A    
C85   H14   S    
C54   H48   S    
O38   Zn7   S    
C43   C48   T    
C78   C87   A    
C73   C82   A    
C115  C124  A    
O36   Zn5   S    
O13   Zn15  S    
C35   C94   A    
C126  O8    A    
C12   O44   A    
C137  C141  S    
C16   C22   S    
C89   C134  A    
C65   C74   A    
C71   C118  S    
C46   C60   A    
O50   Zn16  S    
C108  C117  A    
C36   C39   T    
C18   C27   T    
C72   C81   A    
C69   C116  S    
O25   Zn1   S    
O34   Zn15  S    
C84   H13   S    
C87   C96   A    
O1    Zn1   S    
C80   C88   A    
C74   H38   S    
C27   C36   S    
O24   Zn11  S    
O9    Zn12  S    
C21   C30   T    
C135  C139  S    
C16   O39   A    
O44   Zn14  S    
C64   C120  S    
C113  C144  S    
C106  C115  A    
C52   C61   A    
C53   C97   A    
O1    Zn10  S    
C56   H3    S    
C3    O24   A    
O16   Zn3   S    
C35   H31   S    
C91   H12   S    
C57   O51   A    
C102  C122  A    
C24   C93   A    
C23   C32   T    
C143  O26   A    
C144  O22   A    
O12   Zn9   S    
C8    O40   A    
C92   H23   S    
C5    C109  S    
C45   C50   T    
C68   O52   A    
C66   C75   A    
O3    Zn5   S    
O5    Zn1   S    
O23   Zn12  S    
O26   Zn9   S    
C62   C71   A    
C52   C96   A    
C68   O3    A    
C46   H32   S    
C59   C67   A    
C127  O9    A    
C14   C25   S    
C114  C143  S    
C2    C91   A    
C107  C116  A    
C79   O4    A    
O30   Zn13  S    
C25   C33   T    
C138  C139  T    
C95   H45   S    
O19   Zn6   S    
C125  O5    A    
C104  C113  A    
C114  C122  A    
C97   H47   S    
C6    O20   A    
C6    O27   A    
C125  O7    A    
C103  H22   S    
C24   C58   A    
C128  O13   A    
O4    Zn6   S    
O47   Zn12  S    
O23   Zn5   S    
C6    C108  S    
C83   H11   S    
C105  C119  A    
C67   C76   A    
C86   C95   A    
C128  O10   A    
C144  O16   A    
C127  O11   A    
C76   C85   A    
O12   Zn2   S    
C4    O29   A    
C2    H28   S    
C98   C107  A    
