data_mof_unit_33218.cif
_audit_creation_date              2012-12-10T18:47:08-0500
_audit_creation_method            fapswitch 2.2
_symmetry_space_group_name_H-M    P1
_symmetry_Int_Tables_number       1
_space_group_crystal_system       triclinic
_cell_length_a                    10.701704
_cell_length_b                    9.843702
_cell_length_c                    14.940154
_cell_angle_alpha                 90.214816
_cell_angle_beta                  90.013545
_cell_angle_gamma                 90.063498
_cell_volume                      1573.84926215

loop_
_atom_site_label
_atom_site_type_symbol
_atom_type_description
_atom_site_fract_x
_atom_site_fract_y
_atom_site_fract_z
_atom_type_partial_charge
C1    C     C_R   0.259914 0.499941 0.499889 0.851244
C2    C     C_R   0.127488 0.499870 0.499781 -0.011101
C3    C     C_R   0.579965 0.072360 0.553903 -0.066048
C4    C     C_R   0.420035 0.927640 0.446096 -0.066048
C5    C     C_R   0.420036 0.071527 0.446101 -0.069600
C6    C     C_R   0.579963 0.928473 0.553898 -0.069599
C7    C     C_R   0.495880 0.499734 0.327097 0.883226
C8    C     C_R   0.504120 0.500266 0.672902 0.883226
C9    C     C_R   0.606913 0.434834 0.814804 0.041802
C10   C     C_R   0.393086 0.565166 0.185196 0.041802
C11   C     C_R   0.509953 0.501223 0.768229 -0.089910
C12   C     C_R   0.740086 0.500058 0.500111 0.851243
C13   C     C_R   0.490047 0.498776 0.231771 -0.089909
C14   C     C_R   0.414620 0.569885 0.812518 -0.286741
C15   C     C_R   0.585380 0.430114 0.187482 -0.286741
C16   C     C_R   0.410324 0.570357 0.904759 0.123700
C17   C     C_R   0.589675 0.429642 0.095241 0.123699
C18   C     C_R   0.502927 0.500542 0.953271 0.029949
C19   C     C_R   0.497072 0.499457 0.046728 0.029949
C20   C     C_R   0.601413 0.432135 0.908483 0.108637
C21   C     C_R   0.398587 0.567863 0.091516 0.108637
C22   C     C_R   0.313784 0.638529 0.948868 -0.218518
C23   C     C_R   0.307888 0.637565 0.041549 -0.204970
C24   C     C_R   0.686215 0.361469 0.051132 -0.218517
C25   C     C_R   0.692111 0.362433 0.958451 -0.204970
C26   C     C_R   0.063894 0.382333 0.525441 -0.191708
C27   C     C_R   0.936106 0.617667 0.474559 -0.191708
C28   C     C_R   0.935855 0.382493 0.525728 -0.204017
C29   C     C_R   0.064145 0.617507 0.474271 -0.204017
C30   C     C_R   0.872512 0.500130 0.500219 -0.011101
H1    H     H_    0.342197 0.621150 0.774539 0.154194
H2    H     H_    0.113238 0.708448 0.453506 0.151989
H3    H     H_    0.643888 0.127214 0.597007 0.128941
H4    H     H_    0.356112 0.872785 0.402993 0.128941
H5    H     H_    0.356109 0.125713 0.403006 0.130371
H6    H     H_    0.643891 0.874287 0.596994 0.130371
H7    H     H_    0.707052 0.382464 0.700035 0.187138
H8    H     H_    0.791836 0.429407 0.787620 0.173211
H9    H     H_    0.292948 0.617538 0.299965 0.187139
H10   H     H_    0.208164 0.570591 0.212381 0.173211
H11   H     H_    0.657803 0.378849 0.225461 0.154194
H12   H     H_    0.242634 0.692545 0.911611 0.148546
H13   H     H_    0.757366 0.307453 0.088389 0.148546
H14   H     H_    0.232250 0.692225 0.073496 0.167158
H15   H     H_    0.767749 0.307773 0.926504 0.167157
H16   H     H_    0.112789 0.291277 0.545993 0.157800
H17   H     H_    0.887211 0.708723 0.454007 0.157800
H18   H     H_    0.886762 0.291552 0.546494 0.151989
N1    N     N_R   0.500000 0.857200 0.500000 -0.082523
N2    N     N_R   0.500000 0.142800 0.500000 -0.082523
N3    N     N_3   0.712309 0.374006 0.769400 -0.469666
N4    N     N_3   0.287690 0.625993 0.230600 -0.469668
O1    O     O_R   0.316770 0.614620 0.499990 -0.632525
O2    O     O_R   0.683230 0.385380 0.500010 -0.632524
O3    O     O_R   0.683230 0.614620 0.500010 -0.626697
O4    O     O_R   0.316770 0.385380 0.499990 -0.626697
O5    O     O_R   0.499980 0.614680 0.367850 -0.614559
O6    O     O_R   0.500020 0.385320 0.632150 -0.614558
O7    O     O_R   0.500020 0.614680 0.632150 -0.617267
O8    O     O_R   0.499980 0.385320 0.367850 -0.617267
Zn1   Zn    Zn3+2 0.500000 0.653120 0.500000 0.947942
Zn2   Zn    Zn3+2 0.500000 0.346880 0.500000 0.947943

loop_
_geom_bond_atom_site_label_1
_geom_bond_atom_site_label_2
_ccdc_geom_bond_type
C2    C26   A    
O6    Zn2   S    
O5    Zn1   S    
C8    O7    A    
C27   C29   A    
C4    H4    S    
C14   H1    S    
C9    C20   A    
C26   C28   A    
C9    N3    S    
C13   C15   A    
C4    N1    A    
C3    C6    A    
C10   N4    S    
C28   C30   A    
H9    N4    S    
C6    N1    A    
O4    Zn2   S    
C27   C30   A    
C1    O1    A    
C9    C11   A    
C22   H12   S    
O1    Zn1   S    
C8    C11   S    
N2    Zn2   S    
C5    H5    S    
O8    Zn2   S    
C17   C19   A    
C1    O4    A    
C6    H6    S    
C1    C2    S    
C29   H2    S    
C18   C20   A    
C21   C23   A    
C10   C21   A    
H7    N3    S    
C11   C14   A    
C14   C16   A    
C5    N2    A    
O7    Zn1   S    
C17   C24   A    
N1    Zn1   S    
C20   C25   A    
C26   H16   S    
C12   O3    A    
C25   H15   S    
C7    O8    A    
C7    C13   S    
C2    C29   A    
C24   C25   A    
C15   H11   S    
C16   C18   A    
C18   C19   A    
O3    Zn1   S    
C27   H17   S    
C15   C17   A    
C24   H13   S    
C3    H3    S    
C22   C23   A    
C28   H18   S    
C7    O5    A    
C16   C22   A    
H8    N3    S    
O2    Zn2   S    
C8    O6    A    
H10   N4    S    
C12   C30   S    
C3    N2    A    
C12   O2    A    
C23   H14   S    
C4    C5    A    
C19   C21   A    
C10   C13   A    
