data_mof_unit_51061.cif
_audit_creation_date              2012-12-11T17:19:17-0500
_audit_creation_method            fapswitch 2.2
_symmetry_space_group_name_H-M    P1
_symmetry_Int_Tables_number       1
_space_group_crystal_system       triclinic
_cell_length_a                    14.869415
_cell_length_b                    7.263277
_cell_length_c                    13.228743
_cell_angle_alpha                 89.997919
_cell_angle_beta                  100.040804
_cell_angle_gamma                 90.024644
_cell_volume                      1406.83070352

loop_
_atom_site_label
_atom_site_type_symbol
_atom_type_description
_atom_site_fract_x
_atom_site_fract_y
_atom_site_fract_z
_atom_type_partial_charge
O1    O     O_R   0.648180 0.355050 0.151550 -0.529639
O2    O     O_R   0.351820 0.644950 0.848450 -0.530207
O3    O     O_R   0.851820 0.855050 0.348450 -0.530418
O4    O     O_R   0.148180 0.144950 0.651550 -0.529841
O5    O     O_R   0.835240 0.681980 0.154280 -0.530731
O6    O     O_R   0.164760 0.318020 0.845720 -0.526452
O7    O     O_R   0.664760 0.181980 0.345720 -0.527558
O8    O     O_R   0.335240 0.818020 0.654280 -0.527412
C1    C     C_R   0.862821 0.516100 0.132079 0.773784
C2    C     C_R   0.137234 0.483867 0.867967 0.776431
C3    C     C_R   0.637151 0.016092 0.367878 0.774244
C4    C     C_R   0.362716 0.983957 0.631970 0.768773
O9    O     O_R   0.647870 0.684600 0.139630 -0.535073
O10   O     O_R   0.352130 0.315400 0.860370 -0.540263
O11   O     O_R   0.852130 0.184600 0.360370 -0.540208
O12   O     O_R   0.147870 0.815400 0.639630 -0.540155
O13   O     O_R   0.663110 0.857440 0.333700 -0.529911
O14   O     O_R   0.336890 0.142560 0.666300 -0.530197
O15   O     O_R   0.836890 0.357440 0.166300 -0.530730
O16   O     O_R   0.163110 0.642560 0.833700 -0.530440
C5    C     C_R   0.615241 0.516036 0.112984 0.701421
C6    C     C_R   0.384731 0.483965 0.887052 0.695301
C7    C     C_R   0.884726 0.016068 0.387065 0.697021
C8    C     C_R   0.115218 0.983921 0.613008 0.699182
O17   O     O_3   0.755220 0.522230 0.313690 -0.370258
O18   O     O_3   0.244780 0.477770 0.686310 -0.369750
O19   O     O_3   0.744780 0.022230 0.186310 -0.368804
O20   O     O_3   0.255220 0.977770 0.813690 -0.369838
V1    V     V_3+5 0.749030 0.796100 0.238190 1.486086
V2    V     V_3+5 0.250970 0.203900 0.761810 1.484272
V3    V     V_3+5 0.750970 0.296100 0.261810 1.483725
V4    V     V_3+5 0.249030 0.703900 0.738190 1.483264
C9    C     C_1   0.965837 0.005482 0.467007 -0.143952
C10   C     C_1   0.034037 0.994496 0.533163 -0.145796
C11   C     C_1   0.534078 0.505436 0.033114 -0.123822
C12   C     C_1   0.465863 0.494551 0.966964 -0.137687
C13   C     C_R   0.560818 0.973324 0.717923 0.194732
C14   C     C_R   0.438825 0.031619 0.281702 0.132713
C15   C     C_R   0.938994 0.466901 0.781936 0.139861
C16   C     C_R   0.061116 0.532384 0.218132 0.135555
C17   C     C_R   0.654962 0.969673 0.758052 0.158335
C18   C     C_R   0.344163 0.039649 0.242048 0.167636
C19   C     C_R   0.844325 0.460022 0.742247 0.185952
C20   C     C_R   0.155774 0.540370 0.257779 0.167941
C21   C     C_R   0.719464 0.974739 0.691755 -0.017811
C22   C     C_R   0.280340 0.031095 0.308456 0.025811
C23   C     C_R   0.780544 0.469281 0.808651 0.003109
C24   C     C_R   0.219584 0.531762 0.191368 0.025973
C25   C     C_R   0.688298 0.985707 0.585815 -0.178530
C26   C     C_R   0.311409 0.016158 0.414141 -0.211127
C27   C     C_R   0.811652 0.482682 0.914400 -0.267598
C28   C     C_R   0.188491 0.516892 0.085671 -0.210058
C29   C     C_R   0.594215 0.993301 0.542766 0.011462
C30   C     C_R   0.405481 0.007940 0.456966 0.019496
C31   C     C_R   0.905713 0.491148 0.957224 0.017023
C32   C     C_R   0.094408 0.508352 0.042852 0.014134
C33   C     C_R   0.528556 0.986177 0.609288 0.042736
C34   C     C_R   0.471109 0.015701 0.390342 0.070617
C35   C     C_R   0.971295 0.483349 0.890570 0.073422
C36   C     C_R   0.028815 0.516143 0.109503 0.068853
C37   C     C_R   0.566116 0.007880 0.434309 -0.118008
C38   C     C_R   0.433603 0.992473 0.565363 -0.117626
C39   C     C_R   0.933828 0.507733 0.065596 -0.119944
C40   C     C_R   0.066269 0.491954 0.934474 -0.119920
H1    H     H_    0.739334 0.990422 0.536764 0.121307
H2    H     H_    0.260348 0.009446 0.463098 0.123310
H3    H     H_    0.760583 0.489280 0.963344 0.132712
H4    H     H_    0.239553 0.510130 0.036722 0.122649
N1    N     N_3   0.682528 0.956468 0.867426 -0.658584
H5    H     H_    0.718005 0.075772 0.894559 0.280077
H6    H     H_    0.724433 0.841362 0.884937 0.246744
N2    N     N_3   0.312420 0.061068 0.133667 -0.620440
H7    H     H_    0.338417 0.183398 0.108754 0.223122
H8    H     H_    0.335131 0.950102 0.094632 0.254938
N3    N     N_3   0.812507 0.438673 0.633867 -0.619750
H9    H     H_    0.838048 0.315892 0.608997 0.222276
H10   H     H_    0.835647 0.549108 0.594758 0.255663
N4    N     N_3   0.187526 0.561709 0.366165 -0.620506
H11   H     H_    0.161609 0.684052 0.391109 0.223155
H12   H     H_    0.164746 0.450733 0.405174 0.254619
N5    N     N_3   0.498858 0.962890 0.789702 -0.651126
H13   H     H_    0.511192 0.073892 0.840572 0.253476
H14   H     H_    0.511217 0.840599 0.831534 0.253429
N6    N     N_3   0.501278 0.041020 0.210434 -0.662517
H15   H     H_    0.488998 0.931156 0.158882 0.235186
H16   H     H_    0.491675 0.165094 0.170058 0.234486
N7    N     N_3   0.001423 0.455863 0.710704 -0.665984
H17   H     H_    0.989604 0.565444 0.658924 0.231364
H18   H     H_    0.991322 0.331581 0.670577 0.234755
N8    N     N_3   0.998686 0.541859 0.289423 -0.664705
H19   H     H_    0.010898 0.431989 0.340972 0.232954
H20   H     H_    0.008365 0.665940 0.329796 0.234103
C41   C     C_2   0.180130 0.039563 0.269270 0.763026
O21   O     O_2   0.149111 0.001737 0.179884 -0.531864
O22   O     O_R   0.120557 0.090258 0.335171 -0.696401
H21   H     H_    0.054652 0.094331 0.298894 0.279827
C42   C     C_2   0.819878 0.964810 0.729932 0.722179
O23   O     O_2   0.852538 0.010569 0.817575 -0.566142
O24   O     O_R   0.877920 0.903835 0.664518 -0.687100
H22   H     H_    0.944109 0.899692 0.699840 0.284123
C43   C     C_2   0.319807 0.540007 0.230558 0.763074
O25   O     O_2   0.350789 0.502795 0.320031 -0.531187
O26   O     O_R   0.379435 0.589970 0.164562 -0.697285
H23   H     H_    0.445327 0.594038 0.200861 0.278938
C44   C     C_2   0.680308 0.463806 0.769354 0.769254
O27   O     O_2   0.649640 0.503812 0.680190 -0.531299
O28   O     O_R   0.620317 0.413575 0.834885 -0.686760
H24   H     H_    0.554424 0.411580 0.798488 0.281801

loop_
_geom_bond_atom_site_label_1
_geom_bond_atom_site_label_2
_ccdc_geom_bond_type
O17   V3    S    
N7    H17   S    
O1    C5    A    
C43   O25   D    
C16   C36   A    
C31   C35   A    
O19   V1    S    
O13   V1    S    
O3    C7    A    
O22   H21   S    
C15   N7    S    
O15   V3    S    
C42   O23   D    
C33   C38   A    
O7    C3    A    
C44   O28   S    
C35   C40   A    
C41   O21   D    
C25   H1    S    
C36   C39   A    
O9    V1    S    
N6    H16   S    
C14   C18   A    
C30   C34   A    
O4    C8    A    
N4    H12   S    
O1    V3    S    
O2    V4    S    
C18   C22   A    
N1    H6    S    
N5    H14   S    
C14   C34   A    
C29   C37   A    
C1    O15   A    
C11   C12   T    
C2    O16   A    
C7    C9    S    
C31   C39   A    
O2    C6    A    
O28   H24   S    
C32   C40   A    
O14   V2    S    
C16   C20   A    
C28   H4    S    
C34   C37   A    
O11   C7    A    
O12   C8    A    
C13   N5    S    
O10   V2    S    
C42   O24   S    
N5    H13   S    
O5    V1    S    
C19   N3    S    
O7    V3    S    
O8    V4    S    
N6    H15   S    
N2    H8    S    
C29   C33   A    
N4    H11   S    
C15   C19   A    
C30   C38   A    
C23   C44   S    
C8    C10   S    
C32   C36   A    
N3    H9    S    
O5    C1    A    
C4    C38   S    
N8    H20   S    
O24   H22   S    
C21   C25   A    
O8    C4    A    
C15   C35   A    
C18   N2    S    
C9    C10   T    
O9    C5    A    
C27   H3    S    
C26   H2    S    
O6    V2    S    
N7    H18   S    
C17   N1    S    
O16   V4    S    
C3    O13   A    
C14   N6    S    
C1    C39   S    
C2    C40   S    
N2    H7    S    
C3    C37   S    
O6    C2    A    
C23   C27   A    
O11   V3    S    
C5    C11   S    
O12   V4    S    
C6    C12   S    
C44   O27   D    
C22   C26   A    
C43   O26   S    
O10   C6    A    
O20   V2    S    
C26   C30   A    
C21   C42   S    
O3    V1    S    
N8    H19   S    
C22   C41   S    
C25   C29   A    
C24   C43   S    
C20   N4    S    
C27   C31   A    
C13   C17   A    
N1    H5    S    
O4    V2    S    
C28   C32   A    
C24   C28   A    
C41   O22   S    
N3    H10   S    
C4    O14   A    
O26   H23   S    
C17   C21   A    
C16   N8    S    
C19   C23   A    
O18   V4    S    
C13   C33   A    
C20   C24   A    
