data_mof_unit_42796.cif
_audit_creation_date              2013-03-05T15:41:43-0500
_audit_creation_method            fapswitch 2.2
_symmetry_space_group_name_H-M    P1
_symmetry_Int_Tables_number       1
_space_group_crystal_system       triclinic
_cell_length_a                    6.94646
_cell_length_b                    13.764659
_cell_length_c                    20.48785
_cell_angle_alpha                 102.213294
_cell_angle_beta                  89.689431
_cell_angle_gamma                 91.414989
_cell_volume                      1914.03783881

loop_
_atom_site_label
_atom_site_type_symbol
_atom_site_description
_atom_site_fract_x
_atom_site_fract_y
_atom_site_fract_z
_atom_type_partial_charge
O1    O     O_R   0.506860 0.599390 0.449240 -0.550594
O2    O     O_R   0.180220 0.594600 0.586780 -0.577984
O3    O     O_R   0.004500 0.400610 0.550760 -0.565241
C1    C     C_R   0.348712 0.613067 0.613994 0.833256
O4    O     O_R   0.177490 0.611290 0.451970 -0.554328
O5    O     O_R   0.001750 0.417420 0.414990 -0.544975
C2    C     C_R   0.348065 0.637972 0.435398 0.880665
O6    O     O_R   0.509610 0.582580 0.585010 -0.570167
O7    O     O_3   0.337420 0.436370 0.488020 -0.273163
V1    V     V_3+5 0.064680 0.511800 0.502220 1.158813
O8    O     O_R   0.671710 0.405400 0.413220 -0.553967
C3    C     C_R   0.839480 0.380601 0.387905 0.855738
O9    O     O_R   0.674440 0.388710 0.548030 -0.571706
C4    C     C_R   0.840663 0.365016 0.566490 0.816072
V2    V     V_3+5 0.564010 0.488200 0.497780 1.159573
O10   O     O_3   0.841140 0.563630 0.511980 -0.284792
C5    C     C_R   0.838507 0.116830 0.611809 -0.065782
H1    H     H_    0.838894 0.168070 0.520212 0.049933
H2    H     H_    0.908808 0.996017 0.690314 0.108065
H3    H     H_    0.844400 0.039530 0.586121 0.061372
C6    C     C_R   0.840492 0.289470 0.606250 -0.066586
C7    C     C_R   0.831777 0.310387 0.928473 -0.100914
C8    C     C_R   0.800995 0.387022 0.894829 -0.001566
C9    C     C_R   0.796918 0.365657 0.824646 -0.097068
C10   C     C_R   0.831023 0.268767 0.787131 0.047474
C11   C     C_R   0.870532 0.192655 0.822347 -0.020668
C12   C     C_R   0.831754 0.244917 0.715567 0.056838
C13   C     C_R   0.842625 0.143729 0.681737 0.038206
C14   C     C_R   0.879006 0.070967 0.717257 -0.099269
C15   C     C_R   0.917497 0.097735 0.785197 -0.008430
C16   C     C_R   0.831816 0.317516 0.676075 -0.103592
C17   C     C_R   0.837682 0.189548 0.574249 -0.095712
C18   C     C_R   0.864744 0.213792 0.893522 -0.086065
H4    H     H_    0.833041 0.396079 0.697949 0.062335
H5    H     H_    0.828399 0.325479 0.982606 0.096768
H6    H     H_    0.764203 0.425487 0.800356 0.120302
C19   C     C_2   0.993757 0.289332 0.284083 -0.083848
C20   C     C_2   0.840820 0.300109 0.326420 -0.076129
H7    H     H_    0.120591 0.336545 0.297833 0.143038
C21   C     C_2   0.008042 0.214868 0.219693 -0.096163
C22   C     C_2   0.859464 0.189557 0.177027 -0.203282
H8    H     H_    0.149253 0.185264 0.205455 0.093584
H9    H     H_    0.721089 0.223569 0.189031 0.084416
C23   C     C_2   0.236000 0.750162 0.793675 -0.060964
C24   C     C_2   0.356568 0.829874 0.816238 -0.174508
C25   C     C_2   0.208412 0.708133 0.721427 0.070771
C26   C     C_2   0.359938 0.668293 0.683985 -0.145807
H10   H     H_    0.500482 0.672147 0.707682 0.046168
C27   C     C_R   0.443916 0.882832 0.384174 -0.061910
H11   H     H_    0.449404 0.008264 0.302274 0.062500
H12   H     H_    0.488326 0.958428 0.407130 0.063808
C28   C     C_R   0.363070 0.714447 0.394774 -0.126653
C29   C     C_R   0.347044 0.682534 0.070692 -0.048736
C30   C     C_R   0.350890 0.608848 0.108192 -0.042941
C31   C     C_R   0.358635 0.633211 0.177349 -0.045444
C32   C     C_R   0.351137 0.732670 0.212797 0.078136
C33   C     C_R   0.361170 0.808930 0.175317 0.006680
C34   C     C_R   0.353255 0.758596 0.284430 0.017791
C35   C     C_R   0.404654 0.857751 0.315655 0.052004
C36   C     C_R   0.417262 0.931616 0.278227 -0.091597
C37   C     C_R   0.388271 0.908357 0.209593 -0.085998
C38   C     C_R   0.309533 0.690158 0.326349 -0.082562
C39   C     C_R   0.432501 0.811370 0.423471 0.031015
C40   C     C_R   0.354236 0.783867 0.104219 -0.149488
H13   H     H_    0.382138 0.572546 0.201839 0.081497
H14   H     H_    0.356403 0.531063 0.083639 0.122743
H15   H     H_    0.397707 0.968782 0.183332 0.055147
O11   O     O_R   0.203230 0.917310 0.915020 -0.500398
O12   O     O_R   0.535500 0.888690 0.048040 -0.542690
O13   O     O_R   0.711080 0.082610 0.085000 -0.576909
C41   C     C_R   0.365428 0.862935 0.065468 0.876927
O14   O     O_R   0.532630 0.905370 0.913230 -0.522616
O15   O     O_R   0.708190 0.099410 0.949230 -0.559399
C42   C     C_R   0.363405 0.882209 0.887397 0.864685
O16   O     O_R   0.206120 0.900510 0.050790 -0.559656
O17   O     O_3   0.375360 0.063570 0.011990 -0.294440
V3    V     V_3+5 0.648170 0.988200 0.997780 1.219488
O18   O     O_R   0.038240 0.111390 0.951940 -0.547597
C43   C     C_R   0.871183 0.135406 0.932922 0.823995
O19   O     O_R   0.041120 0.094710 0.086750 -0.572720
C44   C     C_R   0.872758 0.116944 0.112839 0.823574
V4    V     V_3+5 0.148810 0.011930 0.002180 1.210643
O20   O     O_3   0.871750 0.936430 0.988010 -0.236213
C45   C     C_3   0.671555 0.226832 0.316968 -0.405033
H16   H     H_    0.615621 0.217317 0.366189 0.112680
H17   H     H_    0.553415 0.254835 0.290220 0.130986
H18   H     H_    0.713261 0.151653 0.289996 0.121211
C46   C     C_2   0.136062 0.692884 0.838117 0.863340
O21   O     O_2   0.061468 0.734080 0.890470 -0.561740
O22   O     O_R   0.129733 0.589148 0.818727 -0.753877
H19   H     H_    0.078991 0.555626 0.854909 0.350338
C47   C     C_2   0.473036 0.876771 0.769115 0.824652
O23   O     O_2   0.636008 0.908381 0.784618 -0.596454
O24   O     O_R   0.394694 0.888358 0.708508 -0.750193
H20   H     H_    0.487979 0.922216 0.681701 0.302930
C48   C     C_3   0.005737 0.708193 0.694789 -0.251992
H21   H     H_    0.908390 0.749672 0.733520 0.145265
H22   H     H_    0.004268 0.745580 0.651791 0.125335
H23   H     H_    0.946680 0.630986 0.680047 0.114673
C49   C     C_3   0.486928 0.843650 0.496273 -0.387678
H24   H     H_    0.467115 0.784098 0.524770 0.106363
H25   H     H_    0.640521 0.868510 0.500356 0.118962
H26   H     H_    0.396791 0.906792 0.520408 0.116517
C50   C     C_2   0.184219 0.600709 0.302152 0.833732
O25   O     O_2   0.229955 0.519635 0.311631 -0.634512
O26   O     O_R   0.015315 0.609497 0.267248 -0.746383
H27   H     H_    0.942538 0.543707 0.252960 0.310601
C51   C     C_2   0.349271 0.650158 0.996718 0.907199
O27   O     O_2   0.282939 0.568274 0.970093 -0.600033
O28   O     O_R   0.434401 0.710631 0.957426 -0.763729
H28   H     H_    0.441539 0.676658 0.908624 0.312210
C52   C     C_2   0.774506 0.489984 0.933327 0.902443
O29   O     O_2   0.778971 0.508191 0.994418 -0.603284
O30   O     O_R   0.749285 0.567209 0.899907 -0.759394
H29   H     H_    0.759740 0.634777 0.931168 0.356538
C53   C     C_2   0.065375 0.040565 0.808910 0.887873
O31   O     O_2   0.044694 0.950773 0.801770 -0.578847
O32   O     O_R   0.235754 0.090345 0.834531 -0.743028
H30   H     H_    0.337325 0.045692 0.845902 0.299549

loop_
_geom_bond_atom_site_label_1
_geom_bond_atom_site_label_2
_geom_bond_distance
_ccdc_geom_bond_type
C34   C38   1.429185 A    
C31   C32   1.409553 A    
C27   C39   1.397362 A    
C30   C31   1.386282 A    
O12   V3    2.020912 S    
C45   H18   1.109626 S    
C1    O6    1.299401 A    
C50   O26   1.398323 S    
O30   H29   1.012736 S    
C15   C53   1.455195 S    
C29   C30   1.396779 A    
C53   O31   1.218436 D    
C7    H5    1.084521 S    
C6    C16   1.402033 A    
C14   C15   1.388140 A    
C4    C6    1.450260 S    
C13   C14   1.385427 A    
C45   H17   1.110061 S    
C2    C28   1.475129 S    
C19   C21   1.494074 S    
O5    C3    1.301894 A    
C29   C40   1.418238 A    
O26   H27   1.013984 S    
V3    O20   1.717813 S    
O11   C42   1.302202 A    
V2    O10   2.155945 S    
C48   H23   1.110367 S    
C5    H3    1.084324 S    
C51   O27   1.223597 D    
C40   C41   1.477013 S    
O12   C41   1.295055 A    
C24   C47   1.494237 S    
O18   V4    2.044597 S    
O32   H30   1.006801 S    
C52   O29   1.223771 D    
O14   V3    2.019649 S    
O28   H28   1.011736 S    
O8    V2    2.013130 S    
C45   H16   1.110930 S    
C32   C34   1.435204 A    
C27   H12   1.085249 S    
C48   H22   1.110476 S    
C8    C9    1.405679 A    
O1    V2    2.041389 S    
O7    V1    2.171506 S    
C21   H8    1.086131 S    
C35   C36   1.397920 A    
O9    C4    1.287700 A    
O13   V3    2.017627 S    
C3    C20   1.491417 S    
C22   H9    1.083768 S    
C52   O30   1.395672 S    
C50   O25   1.222238 D    
C31   H13   1.077292 S    
C23   C25   1.482465 S    
C49   H24   1.108049 S    
C38   C50   1.487594 S    
C6    C17   1.392559 A    
C12   C16   1.412563 A    
C9    C10   1.416133 A    
O19   V4    2.013145 S    
O17   V4    1.705865 S    
O4    C2    1.296549 A    
O18   C43   1.298499 A    
C18   C43   1.479536 S    
C39   C49   1.510797 S    
C10   C11   1.424658 A    
C49   H26   1.110685 S    
C36   C37   1.389151 A    
O2    C1    1.295300 A    
C19   C20   1.358807 D    
C8    C52   1.484209 S    
C37   H15   1.082512 S    
C11   C18   1.425863 A    
C26   H10   1.087808 S    
C22   C44   1.477856 S    
C48   H21   1.111061 S    
C47   O24   1.399583 S    
O15   C43   1.295109 A    
C16   H4    1.079288 S    
C9    H6    1.077677 S    
O17   V3    2.171553 S    
O3    C4    1.293997 A    
O14   C42   1.296318 A    
C21   C22   1.346798 D    
C46   O22   1.398466 S    
C11   C15   1.410814 A    
O6    V2    2.014698 S    
O9    V2    2.044671 S    
H1    C17   1.083812 S    
C32   C33   1.425895 A    
O2    V1    2.019647 S    
C23   C24   1.364993 D    
C33   C40   1.424962 A    
C49   H25   1.110518 S    
C7    C18   1.394082 A    
C25   C26   1.356041 D    
C20   C45   1.516112 S    
O1    C2    1.294311 A    
C5    C13   1.402113 A    
O19   C44   1.299546 A    
C28   C39   1.413348 A    
O5    V1    2.017623 S    
O8    C3    1.296873 A    
C51   O28   1.394495 S    
O16   V4    2.045271 S    
C33   C37   1.408426 A    
C30   H14   1.083899 S    
C10   C12   1.433136 A    
C27   C35   1.399532 A    
O11   V4    2.015181 S    
C34   C35   1.417207 A    
H11   C36   1.084117 S    
O4    V1    2.020925 S    
C19   H7    1.083927 S    
O3    V1    2.028307 S    
C28   C38   1.420064 A    
C41   O16   1.296242 A    
C29   C51   1.486645 S    
O22   H19   1.010194 S    
C47   O23   1.221839 D    
C53   O32   1.400112 S    
O7    V2    1.707051 S    
O24   H20   1.014046 S    
C25   C48   1.512794 S    
C46   O21   1.221328 D    
V4    O20   2.155909 S    
C12   C13   1.422056 A    
C5    C17   1.385759 A    
O15   V3    2.028470 S    
C7    C8    1.397844 A    
C24   C42   1.483692 S    
V1    O10   1.717895 S    
O13   C44   1.294860 A    
C23   C46   1.484059 S    
C1    C26   1.475559 S    
H2    C14   1.086399 S    
