data_mof_unit_63403.cif
_audit_creation_date              2012-12-10T20:15:05-0500
_audit_creation_method            fapswitch 2.2
_symmetry_space_group_name_H-M    P1
_symmetry_Int_Tables_number       1
_space_group_crystal_system       triclinic
_cell_length_a                    15.723169
_cell_length_b                    19.177755
_cell_length_c                    18.473329
_cell_angle_alpha                 90.154104
_cell_angle_beta                  90.039392
_cell_angle_gamma                 90.121059
_cell_volume                      5570.32287134

loop_
_atom_site_label
_atom_site_type_symbol
_atom_type_description
_atom_site_fract_x
_atom_site_fract_y
_atom_site_fract_z
_atom_type_partial_charge
C1    C     C_R   0.500405 0.365583 0.499853 0.993839
C2    C     C_R   0.500671 0.634103 0.500042 1.021874
C3    C     C_R   0.452078 0.822716 0.473756 0.450400
C4    C     C_R   0.468499 0.176011 0.542095 0.453252
C5    C     C_R   0.530357 0.852239 0.494900 -0.126424
C6    C     C_R   0.531536 0.146630 0.497419 -0.130571
C7    C     C_R   0.596764 0.810350 0.519529 -0.341911
C8    C     C_R   0.581174 0.188517 0.452562 -0.341895
C9    C     C_R   0.586160 0.738311 0.523902 0.433022
C10   C     C_R   0.569259 0.260339 0.451744 0.441237
C11   C     C_R   0.509224 0.708808 0.500044 -0.269239
C12   C     C_R   0.509040 0.290360 0.498816 -0.282596
C13   C     C_R   0.560320 0.962754 0.557887 -0.249171
C14   C     C_R   0.530797 0.036101 0.429571 -0.250454
C15   C     C_R   0.560569 0.035030 0.558773 -0.091948
C16   C     C_R   0.530102 0.963835 0.428763 -0.093356
C17   C     C_R   0.543445 0.071614 0.495006 0.169013
C18   C     C_R   0.542499 0.927265 0.493319 0.168011
C19   C     C_R   0.554330 0.542588 0.726247 0.022157
C20   C     C_R   0.448070 0.455212 0.274016 0.026064
C21   C     C_R   0.555550 0.543175 0.802210 -0.267838
C22   C     C_R   0.447428 0.453875 0.198062 -0.273513
C23   C     C_R   0.337727 0.500060 0.499974 0.932761
C24   C     C_R   0.662233 0.500173 0.500027 0.951082
C25   C     C_R   0.500326 0.499421 0.841426 0.112098
C26   C     C_R   0.500897 0.498929 0.158724 0.115221
C27   C     C_R   0.444826 0.456042 0.801726 -0.257441
C28   C     C_R   0.554153 0.544351 0.198140 -0.259279
C29   C     C_R   0.445664 0.457215 0.725761 0.068471
C30   C     C_R   0.552615 0.544099 0.274101 0.037272
C31   C     C_R   0.424631 0.489845 0.962163 -0.170292
C32   C     C_R   0.576767 0.508010 0.038151 -0.176914
C33   C     C_R   0.424811 0.489594 0.038180 -0.167943
C34   C     C_R   0.576631 0.508100 0.962123 -0.170365
C35   C     C_R   0.500858 0.498759 0.077423 0.116929
C36   C     C_R   0.500539 0.499100 0.922815 0.119696
C37   C     C_3   0.971680 0.475575 0.563202 -0.233087
C38   C     C_3   0.028070 0.529183 0.437162 -0.220463
C39   C     C_3   0.027797 0.436330 0.507451 -0.229582
C40   C     C_3   0.971883 0.568435 0.492923 -0.231689
C41   C     C_1   0.248827 0.500823 0.499923 -0.113418
C42   C     C_1   0.751057 0.501164 0.500122 -0.134220
C43   C     C_3   0.028011 0.541033 0.555149 0.343848
C44   C     C_3   0.971745 0.463725 0.445233 0.341659
C45   C     C_3   0.082694 0.502177 0.499966 0.072862
C46   C     C_3   0.917079 0.502561 0.500413 0.074003
C47   C     C_1   0.173544 0.501548 0.499893 0.034043
C48   C     C_1   0.826296 0.502043 0.500333 0.017912
C49   C     C_R   0.442444 0.750380 0.474420 0.112245
C50   C     C_R   0.458586 0.248345 0.544106 0.120790
H1    H     H_    0.052392 0.382370 0.512834 0.180370
H2    H     H_    0.947139 0.622358 0.487615 0.177598
H3    H     H_    0.596728 0.576390 0.696602 0.125575
H4    H     H_    0.407210 0.420155 0.303902 0.124985
H5    H     H_    0.598614 0.578395 0.829863 0.137173
H6    H     H_    0.406206 0.417167 0.170445 0.139354
H7    H     H_    0.401840 0.420662 0.828995 0.149231
H8    H     H_    0.595776 0.580611 0.170576 0.142438
H9    H     H_    0.402873 0.423739 0.695720 0.171932
H10   H     H_    0.593546 0.579248 0.304048 0.137925
H11   H     H_    0.364487 0.484005 0.934237 0.141651
H12   H     H_    0.636809 0.514061 0.066211 0.138981
H13   H     H_    0.364862 0.483492 0.066266 0.141407
H14   H     H_    0.636647 0.514108 0.934138 0.137658
H15   H     H_    0.946835 0.454203 0.614838 0.176997
H16   H     H_    0.052895 0.550581 0.385532 0.182505
H17   H     H_    0.657360 0.833777 0.533530 0.178036
H18   H     H_    0.630144 0.165380 0.419001 0.183426
H19   H     H_    0.569934 0.934541 0.607956 0.145513
H20   H     H_    0.517420 0.064295 0.380120 0.144447
H21   H     H_    0.571024 0.062438 0.609371 0.164508
H22   H     H_    0.517016 0.936430 0.378606 0.164333
N1    N     N_R   0.500010 0.499980 0.689440 -0.101644
N2    N     N_R   0.499990 0.500020 0.310560 -0.101417
O1    O     O_R   0.500000 0.398180 0.560840 -0.592037
O2    O     O_R   0.500000 0.601820 0.439160 -0.599912
O3    O     O_R   0.499960 0.398180 0.439210 -0.621631
O4    O     O_R   0.500040 0.601820 0.560790 -0.623409
O5    O     O_R   0.376800 0.500000 0.560800 -0.608383
O6    O     O_R   0.623200 0.500000 0.439200 -0.616409
O7    O     O_R   0.376760 0.499990 0.439180 -0.616491
O8    O     O_R   0.623240 0.500010 0.560820 -0.632639
Zn1   Zn    Zn3+2 0.500030 0.500000 0.581210 0.988373
Zn2   Zn    Zn3+2 0.499970 0.500000 0.418790 0.982182
Br1   Br    Br    0.928678 0.407797 0.365761 -0.512274
Br2   Br    Br    0.070579 0.597079 0.634671 -0.495561
Br3   Br    Br    0.337324 0.709480 0.441148 -0.466125
Br4   Br    Br    0.372572 0.287433 0.606426 -0.516937
O9    O     O_3   0.386521 0.864160 0.448738 -0.582261
C51   C     C_3   0.335987 0.884709 0.508205 0.121440
H23   H     H_    0.371833 0.921001 0.544172 0.134746
H24   H     H_    0.314274 0.838874 0.540343 0.165564
C52   C     C_3   0.257551 0.922239 0.480264 -0.768868
H25   H     H_    0.221352 0.887543 0.443093 0.280390
H26   H     H_    0.215904 0.936804 0.526353 0.201182
H27   H     H_    0.276584 0.970167 0.450745 0.242168
O10   O     O_3   0.418953 0.134369 0.586319 -0.579909
C53   C     C_3   0.346436 0.112519 0.547142 0.119660
H28   H     H_    0.364537 0.075607 0.503231 0.135823
H29   H     H_    0.311942 0.157615 0.523081 0.159199
C54   C     C_3   0.285867 0.075360 0.598311 -0.771221
H30   H     H_    0.268114 0.110633 0.643604 0.279796
H31   H     H_    0.227254 0.059953 0.568764 0.199591
H32   H     H_    0.316658 0.027972 0.620605 0.243899
O11   O     O_3   0.654041 0.695490 0.541458 -0.607543
C55   C     C_3   0.677295 0.706056 0.614521 0.095862
H33   H     H_    0.622177 0.696437 0.651060 0.134630
H34   H     H_    0.701815 0.759797 0.623698 0.141832
C56   C     C_3   0.748043 0.655443 0.634099 -0.794811
H35   H     H_    0.804538 0.664918 0.599378 0.266467
H36   H     H_    0.766429 0.662726 0.691674 0.210254
H37   H     H_    0.726269 0.600909 0.626111 0.253189
O12   O     O_3   0.623074 0.302264 0.411412 -0.581270
C57   C     C_3   0.602381 0.295540 0.337300 0.109600
H38   H     H_    0.533265 0.304766 0.327713 0.131889
H39   H     H_    0.619753 0.242895 0.316680 0.131646
C58   C     C_3   0.652196 0.349569 0.294493 -0.726348
H40   H     H_    0.721520 0.340041 0.300257 0.274943
H41   H     H_    0.634695 0.346338 0.236327 0.192280
H42   H     H_    0.637508 0.402721 0.314800 0.268302

loop_
_geom_bond_atom_site_label_1
_geom_bond_atom_site_label_2
_ccdc_geom_bond_type
C39   H1    S    
C52   H25   S    
C27   C29   A    
C1    O3    A    
C49   Br3   S    
C16   H22   S    
O6    Zn2   S    
O2    Zn2   S    
O10   C53   S    
C3    C49   A    
C40   C46   S    
C54   H30   S    
C13   H19   S    
C13   C18   A    
C11   C49   A    
C19   C21   A    
C56   H36   S    
C30   N2    A    
C29   N1    A    
C55   H33   S    
C9    O11   S    
C53   H28   S    
C24   C42   S    
C15   C17   A    
C31   H11   S    
C38   C45   S    
C24   O8    A    
O4    Zn1   S    
C24   O6    A    
C40   C43   S    
C38   H16   S    
C37   H15   S    
C30   H10   S    
C31   C33   A    
C50   Br4   S    
C39   C45   S    
C19   H3    S    
C54   H31   S    
C38   C40   S    
C4    O10   S    
C14   H20   S    
C14   C17   A    
C1    C12   S    
C2    C11   S    
C44   C46   S    
C57   H38   S    
C45   C47   S    
C46   C48   S    
C1    O1    A    
C32   C35   A    
C29   H9    S    
C19   N1    A    
C4    C6    A    
C27   H7    S    
C58   H42   S    
C5    C7    A    
C6    C8    A    
C5    C18   S    
O3    Zn2   S    
C40   H2    S    
C4    C50   A    
C57   H39   S    
C32   C34   A    
C37   C43   S    
C38   C44   S    
C2    O4    A    
C9    C11   A    
C51   H24   S    
C33   H13   S    
C34   H14   S    
C41   C47   T    
C20   N2    A    
C42   C48   T    
C43   C45   S    
C10   O12   S    
C10   C12   A    
C20   H4    S    
C20   C22   A    
C8    H18   S    
C52   H27   S    
C53   H29   S    
C13   C15   A    
C14   C16   A    
C56   H37   S    
C44   Br1   S    
O7    Zn2   S    
C2    O2    A    
C51   C52   S    
C21   H5    S    
O12   C57   S    
C7    C9    A    
C6    C17   S    
C21   C25   A    
C23   O7    A    
C43   Br2   S    
C8    C10   A    
N2    Zn2   S    
C3    C5    A    
C12   C50   A    
C39   C44   S    
C28   H8    S    
C25   C27   A    
C53   C54   S    
C15   H21   S    
O11   C55   S    
C26   C28   A    
C23   C41   S    
C22   H6    S    
C3    O9    S    
C58   H41   S    
O9    C51   S    
C32   H12   S    
C37   C39   S    
C58   H40   S    
O5    Zn1   S    
O1    Zn1   S    
C51   H23   S    
C52   H26   S    
C55   H34   S    
C28   C30   A    
C33   C35   A    
C34   C36   A    
C57   C58   S    
C25   C36   S    
C7    H17   S    
C26   C35   S    
C16   C18   A    
O8    Zn1   S    
C22   C26   A    
C31   C36   A    
C54   H32   S    
C23   O5    A    
C37   C46   S    
C56   H35   S    
N1    Zn1   S    
C55   C56   S    
