data_mof_unit_44277.cif
_audit_creation_date              2012-12-11T21:20:18-0500
_audit_creation_method            fapswitch 2.2
_symmetry_space_group_name_H-M    P1
_symmetry_Int_Tables_number       1
_space_group_crystal_system       triclinic
_cell_length_a                    8.355155
_cell_length_b                    18.845203
_cell_length_c                    19.04252
_cell_angle_alpha                 104.016721
_cell_angle_beta                  92.488974
_cell_angle_gamma                 92.210724
_cell_volume                      2902.58272944

loop_
_atom_site_label
_atom_site_type_symbol
_atom_type_description
_atom_site_fract_x
_atom_site_fract_y
_atom_site_fract_z
_atom_type_partial_charge
Ba1   Ba    Ba6+2 0.155460 0.532000 0.467920 0.877559
Ba2   Ba    Ba6+2 0.654730 0.467990 0.532020 1.135082
C1    C     C_3   0.400992 0.715939 0.217169 -0.271931
C2    C     C_3   0.428484 0.693670 0.288300 0.213346
C3    C     C_3   0.517933 0.697876 0.643571 0.506660
C4    C     C_3   0.588776 0.776865 0.668060 0.518803
C5    C     C_3   0.890995 0.274519 0.654069 0.432810
C6    C     C_3   0.842034 0.195663 0.653111 -0.169512
C7    C     C_3   0.377750 0.258543 0.707706 0.501610
C8    C     C_3   0.301180 0.182667 0.712971 0.733752
C9    C     C_R   0.002185 0.950676 0.518993 -0.060866
C10   C     C_R   0.092266 0.905690 0.553362 -0.022026
C11   C     C_R   0.225249 0.044098 0.531159 0.004054
C12   C     C_3   0.907357 0.714732 0.286277 0.353158
C13   C     C_R   0.062923 0.020543 0.513268 0.125083
C14   C     C_R   0.280605 0.114598 0.531409 -0.007325
C15   C     C_R   0.175104 0.165996 0.518212 0.002137
C16   C     C_R   0.018185 0.141041 0.489294 0.022074
C17   C     C_R   0.961201 0.067671 0.486145 0.019728
C18   C     C_R   0.221905 0.241366 0.532536 0.025806
C19   C     C_R   0.116813 0.289644 0.512675 -0.213310
C20   C     C_R   0.972953 0.264272 0.473006 0.036289
C21   C     C_R   0.920464 0.189064 0.462313 -0.164184
C22   C     C_R   0.843229 0.926314 0.493594 0.136627
C23   C     C_3   0.995713 0.788681 0.292648 0.711004
C24   C     C_R   0.784231 0.854697 0.497088 0.048445
C25   C     C_R   0.882889 0.807995 0.526617 -0.079555
C26   C     C_R   0.032557 0.837017 0.557343 0.120224
C27   C     C_R   0.778852 0.159174 0.422113 0.059945
C28   C     C_R   0.722783 0.086388 0.415562 0.368138
C29   C     C_R   0.804350 0.042100 0.456031 -0.029344
C30   C     C_R   0.741759 0.973178 0.465750 -0.035235
C31   C     C_R   0.577682 0.951725 0.454961 0.074013
C32   C     C_R   0.625659 0.830407 0.471992 -0.057741
C33   C     C_R   0.521549 0.881091 0.454806 -0.066777
C34   C     C_3   0.799434 0.352721 0.301766 0.210657
C35   C     C_R   0.575633 0.756723 0.466253 0.082183
C36   C     C_R   0.678465 0.709523 0.490526 -0.291384
C37   C     C_R   0.828343 0.734381 0.524769 0.080008
C38   C     C_R   0.346561 0.547263 0.812371 -0.203263
C39   C     C_R   0.314830 0.536194 0.737373 0.003583
C40   C     C_R   0.180375 0.438466 0.807381 -0.057902
C41   C     C_R   0.110324 0.444819 0.741355 0.006229
C42   C     C_R   0.636309 0.562288 0.195036 -0.048108
C43   C     C_R   0.706918 0.555587 0.260755 -0.021165
C44   C     C_R   0.451446 0.461817 0.197013 -0.192214
C45   C     C_3   0.771998 0.319382 0.219194 0.756767
C46   C     C_R   0.489316 0.472492 0.271879 0.065098
C47   C     C_R   0.290676 0.493941 0.848511 0.116654
C48   C     C_R   0.187463 0.488930 0.703676 -0.114686
C49   C     C_R   0.515806 0.510567 0.157251 0.106792
C50   C     C_R   0.624301 0.516357 0.301970 -0.248959
C51   C     C_R   0.083422 0.450037 0.957843 -0.001245
C52   C     C_R   0.988726 0.423509 0.004651 -0.035752
C53   C     C_R   0.033185 0.441253 0.077388 0.606457
C54   C     C_R   0.178612 0.479545 0.101290 -0.224751
C55   C     C_R   0.296490 0.487169 0.052468 0.061865
C56   C     C_3   0.077969 0.707751 0.705449 0.573574
C57   C     C_R   0.244310 0.477038 0.977769 -0.080289
C58   C     C_R   0.459463 0.507169 0.077828 -0.044006
C59   C     C_R   0.567256 0.521825 0.025765 0.133278
C60   C     C_R   0.513181 0.516478 0.951853 -0.010599
C61   C     C_R   0.349674 0.495553 0.926734 0.132652
C62   C     C_R   0.732105 0.540593 0.044479 -0.369051
C63   C     C_R   0.832349 0.565942 0.998988 -0.118996
C64   C     C_R   0.784184 0.556133 0.927322 0.654199
C65   C     C_R   0.630211 0.528236 0.903472 0.020975
C66   C     C_3   0.063266 0.677706 0.773320 0.464378
C67   C     C_3   0.251814 0.308580 0.353361 0.313525
C68   C     C_3   0.262560 0.226489 0.342986 0.582050
H1    H     H_    0.394998 0.634355 0.279135 0.040367
H2    H     H_    0.737969 0.363998 0.193605 -0.063471
H3    H     H_    0.175112 0.679092 0.674650 -0.082013
H4    H     H_    0.176736 0.689975 0.807553 -0.017250
H5    H     H_    0.045149 0.617366 0.755766 -0.063399
H6    H     H_    0.131236 0.319594 0.334612 0.056162
H7    H     H_    0.275021 0.335860 0.411664 0.025657
H8    H     H_    0.277654 0.698126 0.193954 0.120868
H9    H     H_    0.267494 0.198995 0.284617 0.162283
H10   H     H_    0.156450 0.202935 0.363642 -0.060955
H11   H     H_    0.557472 0.704393 0.305971 0.042557
H12   H     H_    0.487123 0.690120 0.177324 0.086755
H13   H     H_    0.612465 0.662734 0.616978 -0.066032
H14   H     H_    0.416868 0.695446 0.603050 -0.064304
H15   H     H_    0.719692 0.778244 0.663661 0.062940
H16   H     H_    0.539657 0.810463 0.632437 -0.036408
H17   H     H_    0.417524 0.776331 0.226427 0.174728
H18   H     H_    0.832765 0.286130 0.604819 0.061542
H19   H     H_    0.023050 0.279265 0.651315 -0.142521
H20   H     H_    0.748481 0.174588 0.609119 0.125446
H21   H     H_    0.945200 0.160343 0.640963 0.069491
H22   H     H_    0.796533 0.191050 0.705715 0.247546
H23   H     H_    0.278653 0.293189 0.698152 -0.858867
H24   H     H_    0.849226 0.716905 0.338372 0.009339
H25   H     H_    0.224971 0.162517 0.663065 -0.176642
H26   H     H_    0.153056 0.347193 0.523624 0.092716
H27   H     H_    0.406019 0.129261 0.544873 0.151580
H28   H     H_    0.108649 0.805931 0.582992 0.138103
H29   H     H_    0.712391 0.191464 0.392547 0.187391
H30   H     H_    0.395148 0.867317 0.441943 0.150542
H31   H     H_    0.637732 0.653317 0.485944 0.090536
H32   H     H_    0.313569 0.008943 0.544954 0.063469
H33   H     H_    0.209356 0.922464 0.579407 0.102926
H34   H     H_    0.813888 0.705741 0.241432 -0.041506
H35   H     H_    0.489687 0.989365 0.447152 0.141068
H36   H     H_    0.424107 0.593742 0.840248 0.133008
H37   H     H_    0.142766 0.391654 0.826608 0.155583
H38   H     H_    0.682626 0.605478 0.172463 -0.023515
H39   H     H_    0.367150 0.417863 0.171313 0.128648
H40   H     H_    0.144506 0.488429 0.649110 0.061153
H41   H     H_    0.670247 0.516699 0.356061 0.109812
H42   H     H_    0.019566 0.453417 0.909138 0.079737
H43   H     H_    0.869892 0.399262 0.986332 0.131051
H44   H     H_    0.198731 0.503316 0.158076 0.147336
H45   H     H_    0.792436 0.531878 0.091939 0.193721
H46   H     H_    0.955165 0.583991 0.017105 0.146114
H47   H     H_    0.607649 0.515196 0.846259 0.141844
H48   H     H_    0.087099 0.784181 0.251473 0.065669
H49   H     H_    0.685966 0.374009 0.324101 0.011801
H50   H     H_    0.891332 0.398681 0.311256 0.072446
O1    O     O_2   0.114280 0.679350 0.549180 -0.468101
O2    O     O_3   0.363797 0.333098 0.311219 -0.535131
O3    O     O_3   0.014842 0.658330 0.270368 -0.607780
O4    O     O_2   0.696020 0.320600 0.450800 -0.361131
O5    O     O_3   0.943900 0.410390 0.456390 -0.463859
O6    O     O_3   0.448150 0.376500 0.584290 -0.419951
O7    O     O_3   0.850642 0.298571 0.335242 -0.568168
O8    O     O_3   0.365880 0.544470 0.588730 -0.429562
O9    O     O_3   0.859790 0.416060 0.623340 -0.446009
O10   O     O_2   0.786434 0.464460 0.755143 -0.350337
O11   O     O_3   0.842516 0.323318 0.717058 -0.481126
O12   O     O_3   0.866400 0.589600 0.543550 -0.452548
O13   O     O_3   0.444420 0.455520 0.411210 -0.415962
O14   O     O_2   0.612810 0.550740 0.677950 -0.411993
O15   O     O_3   0.461755 0.674370 0.703100 -0.539040
O16   O     O_2   0.543028 0.246968 0.519859 -0.421610
O17   O     O_3   0.488826 0.250721 0.652171 -0.623746
O18   O     O_3   0.362150 0.623490 0.415650 -0.434364
O19   O     O_2   0.243171 0.750645 0.470536 -0.404980
O20   O     O_3   0.930324 0.692406 0.665220 -0.615982
O21   O     O_3   0.331767 0.734624 0.339781 -0.507552
O22   O     O_2   0.197490 0.449210 0.322030 -0.385095
O23   O     O_3   0.950520 0.583920 0.376610 -0.470269
O24   O     O_2   0.021074 0.515431 0.249959 -0.387043
P1    P     P_3+3 0.941030 0.670050 0.569830 1.048750
P2    P     P_3+3 0.370400 0.428500 0.331430 1.005994
P3    P     P_3+3 0.920489 0.579588 0.285824 1.058243
P4    P     P_3+3 0.869270 0.329940 0.430110 0.860972
P5    P     P_3+3 0.902820 0.411580 0.711490 1.100470
P6    P     P_3+3 0.379648 0.717155 0.423983 0.884447
P7    P     P_3+3 0.436913 0.578734 0.679575 0.980915
P8    P     P_3+3 0.420259 0.280608 0.575014 1.039704
S1    S     S_3+6 0.611373 0.249845 0.197966 -0.036260
O25   O     O_2   0.573343 0.225288 0.264740 -0.164176
O26   O     O_2   0.654835 0.184056 0.141045 -0.113655
O27   O     O_3   0.447720 0.283890 0.166874 -0.517456
H51   H     H_    0.476347 0.292402 0.119536 0.362383
S2    S     S_3+6 0.949831 0.281589 0.178960 -0.040712
O28   O     O_2   0.993496 0.216319 0.206723 -0.209250
O29   O     O_2   0.918869 0.258045 0.098042 -0.174422
O30   O     O_3   0.102607 0.344397 0.198075 -0.497289
H52   H     H_    0.166087 0.333061 0.154488 0.385778
S3    S     S_3+6 0.129688 0.805158 0.731948 -0.017091
O31   O     O_2   0.182167 0.828657 0.811053 -0.189848
O32   O     O_2   0.265317 0.823181 0.689427 -0.291832
O33   O     O_3   0.971948 0.853104 0.716572 -0.497585
H53   H     H_    0.013964 0.904688 0.727295 0.394296
S4    S     S_3+6 0.897135 0.710503 0.827498 0.061408
O34   O     O_2   0.754401 0.657961 0.803541 -0.235294
O35   O     O_2   0.943219 0.713597 0.905440 -0.246991
O36   O     O_3   0.843769 0.793900 0.821115 -0.344841
H54   H     H_    0.878054 0.827657 0.868301 0.401782
F1    F     F_    0.398767 0.213281 0.380307 -0.615421
F2    F     F_    0.558260 0.808739 0.739373 -0.517335
S5    S     S_3+6 0.857268 0.853619 0.278382 0.017974
O37   O     O_2   0.706387 0.841246 0.314672 -0.374783
O38   O     O_2   0.927583 0.929879 0.310066 -0.167271
O39   O     O_3   0.816016 0.841596 0.188960 -0.532466
H55   H     H_    0.728278 0.874616 0.185311 0.400749
S6    S     S_3+6 0.482857 0.308592 0.790307 0.057851
O40   O     O_2   0.380807 0.319252 0.854585 -0.226110
O41   O     O_2   0.631269 0.271412 0.805736 -0.153650
O42   O     O_3   0.537521 0.391032 0.778893 -0.517897
H56   H     H_    0.478704 0.395797 0.734178 0.330732
S7    S     S_3+6 0.163306 0.187243 0.783976 0.049454
O43   O     O_2   0.251206 0.184967 0.853921 -0.110583
O44   O     O_2   0.072395 0.255860 0.795004 -0.311591
O45   O     O_3   0.032667 0.114250 0.759884 -0.469718
H57   H     H_    0.953146 0.122410 0.797764 0.390528
S8    S     S_3+6 0.437260 0.111225 0.716251 0.066268
O46   O     O_2   0.339197 0.042330 0.715191 -0.215593
O47   O     O_2   0.543513 0.130713 0.784479 -0.177173
O48   O     O_3   0.551168 0.093990 0.644343 -0.611245
H58   H     H_    0.606691 0.049095 0.646868 0.348938
S9    S     S_3+6 0.570493 0.053314 0.345054 0.003455
O49   O     O_2   0.408850 0.072261 0.373755 -0.277523
O50   O     O_2   0.597278 0.089407 0.284110 -0.156194
O51   O     O_3   0.570591 0.962746 0.310505 -0.442917
H59   H     H_    0.473148 0.950472 0.277539 0.373822
F3    F     F_    0.927246 0.427935 0.124887 -0.681517
F4    F     F_    0.069350 0.813414 0.361181 -0.662345
F5    F     F_    0.892827 0.566003 0.879408 -0.667694

loop_
_geom_bond_atom_site_label_1
_geom_bond_atom_site_label_2
_ccdc_geom_bond_type
C53   C54   A    
S8    O46   D    
C47   C61   S    
C7    H23   S    
C32   C35   A    
O22   P2    D    
C67   H7    S    
S3    O31   D    
Ba1   O8    S    
C35   P6    S    
O36   H54   S    
Ba1   O12   S    
C17   C29   A    
C23   H48   S    
Ba2   O9    S    
O30   H52   S    
C51   C57   A    
C5    C6    S    
S5    O38   D    
C51   C52   A    
O18   P6    S    
C66   H5    S    
O23   P3    S    
O4    P4    D    
C24   C25   A    
Ba2   O14   S    
C4    H15   S    
C60   C65   A    
C10   C26   A    
O12   P1    S    
C21   C27   A    
O27   H51   S    
S3    O32   D    
C35   C36   A    
C22   C24   A    
Ba1   Ba2   S    
C36   H31   S    
C23   F4    S    
C3    C4    S    
C3    H13   S    
C14   H27   S    
S7    O44   D    
Ba2   P4    S    
C38   C47   A    
C5    H19   S    
C52   H43   S    
C9    C22   A    
C48   H40   S    
C8    S7    S    
C54   C55   A    
C67   H6    S    
C16   C17   A    
C34   H49   S    
Ba1   O22   S    
S8    O48   S    
C9    C13   A    
C24   C32   A    
S4    O36   S    
C2    H11   S    
S5    O37   D    
C25   C37   A    
C14   C15   A    
C46   P2    S    
S6    O40   D    
Ba2   O12   S    
O17   P8    S    
O51   H59   S    
C6    H22   S    
S1    O26   D    
C27   C28   A    
C7    C8    S    
C5    O11   S    
S2    O30   S    
S6    O42   S    
O7    P4    S    
S9    O51   S    
S4    O35   D    
C64   C65   A    
S1    O25   D    
C62   H45   S    
C19   C20   A    
S2    O29   D    
Ba1   P2    S    
C67   C68   S    
O6    P8    S    
C1    H12   S    
O24   P3    D    
Ba1   O13   S    
C56   S3    S    
C67   O2    S    
O16   P8    D    
S6    O41   D    
O21   P6    S    
O39   H55   S    
S5    O39   S    
C56   O20   S    
C42   H38   S    
C44   C46   A    
Ba2   O13   S    
C27   H29   S    
C68   H10   S    
C16   C21   A    
S3    O33   S    
C31   H35   S    
C10   H33   S    
C2    O21   S    
C3    H14   S    
S7    O45   S    
C4    F2    S    
C50   H41   S    
C1    H17   S    
C44   C49   A    
C18   P8    S    
O45   H57   S    
C59   C62   A    
C13   C17   A    
O42   H56   S    
C22   C30   A    
O9    P5    S    
C60   C61   A    
Ba1   O23   S    
C23   S5    S    
O8    P7    S    
C12   H34   S    
C53   F3    S    
C28   C29   A    
C32   C33   A    
C37   P1    S    
O10   P5    D    
C15   C16   A    
C6    H21   S    
C8    S8    S    
C4    H16   S    
S1    O27   S    
C65   H47   S    
C7    S6    S    
Ba2   O6    S    
C42   C49   A    
C56   C66   S    
S4    O34   D    
O3    P3    S    
O48   H58   S    
C11   C13   A    
S2    O28   D    
C63   H46   S    
O1    P1    D    
C34   C45   S    
O11   P5    S    
C34   O7    S    
C6    H20   S    
Ba1   P1    S    
C1    C2    S    
C66   S4    S    
C39   C48   A    
C42   C43   A    
C51   H42   S    
C38   H36   S    
C40   H37   S    
C26   H28   S    
C3    O15   S    
C52   C53   A    
C38   C39   A    
S8    O47   D    
C12   O3    S    
C68   H9    S    
C43   P3    S    
C15   C18   A    
C29   C30   A    
C20   P4    S    
C55   C58   A    
O5    P4    S    
C41   P5    S    
O20   P1    S    
C5    H18   S    
C9    C10   A    
C41   C48   A    
C39   P7    S    
C19   H26   S    
Ba2   O4    S    
C45   S1    S    
O19   P6    D    
C57   C61   A    
C43   C50   A    
Ba1   O5    S    
C62   C63   A    
C49   C58   S    
C11   C14   A    
C7    O17   S    
C28   S9    S    
C30   C31   A    
S7    O43   D    
C36   C37   A    
O33   H53   S    
C8    H25   S    
O15   P7    S    
O14   P7    D    
C31   C33   A    
O2    P2    S    
C12   C23   S    
C59   C60   A    
C34   H50   S    
C68   F1    S    
Ba1   O1    S    
C45   H2    S    
C55   C57   A    
C40   C47   A    
S9    O49   D    
C64   F5    S    
Ba2   O5    S    
C46   C50   A    
C18   C19   A    
C63   C64   A    
C40   C41   A    
C44   H39   S    
C25   C26   A    
C54   H44   S    
C20   C21   A    
C58   C59   A    
O13   P2    S    
C11   H32   S    
C1    H8    S    
C66   H4    S    
C12   H24   S    
C2    H1    S    
Ba1   O18   S    
C33   H30   S    
C56   H3    S    
S9    O50   D    
C45   S2    S    
Ba2   O8    S    
