data_mof_unit_56340.cif
_audit_creation_date              2013-03-05T16:04:36-0500
_audit_creation_method            fapswitch 2.2
_symmetry_space_group_name_H-M    P1
_symmetry_Int_Tables_number       1
_space_group_crystal_system       triclinic
_cell_length_a                    8.441082
_cell_length_b                    14.953229
_cell_length_c                    18.728953
_cell_angle_alpha                 97.394025
_cell_angle_beta                  91.868186
_cell_angle_gamma                 92.414601
_cell_volume                      2340.53091894

loop_
_atom_site_label
_atom_site_type_symbol
_atom_site_description
_atom_site_fract_x
_atom_site_fract_y
_atom_site_fract_z
_atom_type_partial_charge
P1    P     P_3+3 0.061800 0.409390 0.339760 0.483685
O1    O     O_2   0.887710 0.436190 0.327560 -0.352834
O2    O     O_3   0.135370 0.443490 0.416520 -0.373416
O3    O     O_3   0.634420 0.609440 0.364670 -0.356842
O4    O     O_2   0.742363 0.527169 0.245440 -0.371907
O5    O     O_3   0.007326 0.294021 0.336039 -0.529644
O6    O     O_3   0.674694 0.693335 0.243780 -0.495126
H1    H     H_    0.574061 0.778667 0.323643 0.107351
C1    C     C_3   0.592534 0.839115 0.225783 -1.085535
H2    H     H_    0.707735 0.873785 0.244885 0.283078
H3    H     H_    0.595952 0.818599 0.167018 0.265379
P2    P     P_3+3 0.622760 0.718740 0.547830 0.417696
P3    P     P_3+3 0.075980 0.775599 0.393301 0.442804
O7    O     O_2   0.795290 0.730930 0.525800 -0.392133
O8    O     O_3   0.044470 0.660110 0.398750 -0.352697
O9    O     O_2   0.963868 0.822737 0.448232 -0.396834
O10   O     O_3   0.600898 0.771406 0.638598 -0.599808
O11   O     O_3   0.989983 0.794992 0.310181 -0.481650
C2    C     C_3   0.107091 0.803716 0.259072 0.743447
H4    H     H_    0.229347 0.804864 0.282354 -0.051644
C3    C     C_3   0.092770 0.894651 0.231466 -1.045864
H5    H     H_    0.975776 0.900796 0.204350 0.270901
H6    H     H_    0.102463 0.946686 0.278837 0.239627
C4    C     C_3   0.201294 0.725349 0.592758 0.491963
H7    H     H_    0.298316 0.683390 0.571892 0.119526
H8    H     H_    0.096773 0.713004 0.554699 0.138439
C5    C     C_3   0.252712 0.824404 0.598736 -1.121859
H9    H     H_    0.380546 0.837366 0.602116 0.285734
H10   H     H_    0.205865 0.854811 0.552604 0.252806
H11   H     H_    0.214030 0.858962 0.649185 0.297006
Ba1   Ba    Ba6+2 0.843240 0.541620 0.463500 1.534873
C6    C     C_3   0.114842 0.234430 0.301958 0.695745
H12   H     H_    0.231459 0.243748 0.331047 0.081987
C7    C     C_3   0.132736 0.242664 0.221554 -1.173728
H13   H     H_    0.014886 0.244895 0.194097 0.268145
H14   H     H_    0.192841 0.183693 0.194275 0.248899
H15   H     H_    0.209629 0.301633 0.213910 0.247002
C8    C     C_3   0.671055 0.732323 0.695592 0.482850
H16   H     H_    0.633346 0.660460 0.690354 0.005913
C9    C     C_3   0.618413 0.777520 0.771656 -0.037443
H17   H     H_    0.670601 0.846804 0.781210 0.218771
P4    P     P_3+3 0.127890 0.590690 0.660240 0.397849
O12   O     O_2   0.301980 0.563840 0.672490 -0.366541
O13   O     O_3   0.054330 0.556590 0.583490 -0.440176
O14   O     O_3   0.555270 0.390630 0.635330 -0.353176
O15   O     O_3   0.159992 0.706348 0.661206 -0.591061
P5    P     P_3+3 0.126724 0.224274 0.606522 0.441287
O16   O     O_3   0.637720 0.384870 0.467990 -0.419123
O17   O     O_3   0.145220 0.339960 0.601250 -0.385352
O18   O     O_2   0.258829 0.184885 0.558679 -0.352273
O19   O     O_3   0.209731 0.212314 0.692717 -0.514573
Ba2   Ba    Ba6+2 0.346570 0.458460 0.536510 1.511391
P6    P     P_3+3 0.612387 0.591148 0.271737 0.455114
C10   C     C_3   0.562774 0.757301 0.264590 0.490783
H18   H     H_    0.440678 0.729995 0.249337 -0.009174
H19   H     H_    0.495364 0.885963 0.235674 0.239454
O20   O     O_3   0.551980 0.615210 0.532020 -0.421561
C11   C     C_3   0.539644 0.321508 0.322659 0.501856
H20   H     H_    0.422098 0.348991 0.333548 0.018679
H21   H     H_    0.631617 0.374052 0.342214 0.163855
C12   C     C_3   0.557770 0.299069 0.241876 -1.068868
H22   H     H_    0.472332 0.243496 0.219405 0.262715
H23   H     H_    0.536633 0.359371 0.214614 0.239091
H24   H     H_    0.679662 0.277025 0.231073 0.267119
P7    P     P_3+3 0.572503 0.267733 0.448960 0.458754
O21   O     O_2   0.394410 0.269100 0.474240 -0.330664
O22   O     O_3   0.556465 0.242641 0.354963 -0.579392
C13   C     C_3   0.103452 0.230744 0.749101 0.765297
H25   H     H_    0.979541 0.217163 0.728498 -0.090664
C14   C     C_3   0.136511 0.165460 0.805489 -1.040298
H26   H     H_    0.262822 0.148864 0.806007 0.263943
H27   H     H_    0.108828 0.192914 0.861003 0.235657
H28   H     H_    0.066788 0.100813 0.793937 0.237302
P8    P     P_3+3 0.565124 0.415897 0.730768 0.450045
C15   C     C_3   0.622766 0.248907 0.745740 0.229175
H29   H     H_    0.741208 0.275046 0.731623 -0.006373
O23   O     O_2   0.419229 0.469940 0.751363 -0.387796
O24   O     O_3   0.523029 0.318224 0.769950 -0.516592
H30   H     H_    0.565670 0.208463 0.696983 0.114247
C16   C     C_3   0.641439 0.189499 0.806927 0.001075
H31   H     H_    0.520767 0.174913 0.825396 0.183001
C17   C     C_R   0.978523 0.482149 0.053887 0.035925
C18   C     C_R   0.897979 0.431256 0.101160 -0.184030
C19   C     C_R   0.750563 0.472962 0.964926 -0.201380
C20   C     C_R   0.910962 0.496148 0.985379 0.039567
C21   C     C_R   0.693419 0.474727 0.894447 -0.185343
C22   C     C_R   0.794463 0.498071 0.841163 -0.067331
C23   C     C_R   0.949876 0.533503 0.862076 0.041442
C24   C     C_R   0.006996 0.534089 0.935067 0.057002
C25   C     C_R   0.744199 0.487963 0.767751 0.151499
C26   C     C_R   0.838865 0.526888 0.718341 -0.300786
C27   C     C_R   0.998128 0.557916 0.736064 0.137853
C28   C     C_R   0.051103 0.564036 0.809654 -0.024089
C29   C     C_R   0.133123 0.518590 0.075542 0.013257
C30   C     C_R   0.197910 0.508998 0.145799 0.024654
C31   C     C_R   0.108397 0.463572 0.194638 -0.021292
C32   C     C_R   0.962443 0.421406 0.169135 -0.057217
H32   H     H_    0.894005 0.381020 0.201716 0.161097
C33   C     C_R   0.203974 0.597177 0.832365 -0.103588
C34   C     C_R   0.259877 0.596296 0.902819 -0.280768
C35   C     C_R   0.162200 0.568970 0.956392 0.048010
C36   C     C_R   0.219732 0.569068 0.028998 -0.040144
C37   C     C_R   0.360716 0.617797 0.057649 0.216804
C38   C     C_R   0.351461 0.546411 0.167376 -0.064724
C39   C     C_R   0.433587 0.595200 0.120368 -0.250193
C40   C     C_R   0.412534 0.542386 0.238101 0.143102
C41   C     C_R   0.318270 0.503494 0.286985 -0.471788
C42   C     C_R   0.168673 0.462035 0.266969 0.193221
H33   H     H_    0.285545 0.621100 0.795639 0.165579
H34   H     H_    0.548493 0.625844 0.135859 0.203305
H35   H     H_    0.364079 0.504223 0.341709 0.166777
H36   H     H_    0.666150 0.452943 0.002596 0.143583
H37   H     H_    0.784461 0.396880 0.086581 0.120087
H38   H     H_    0.384478 0.612254 0.913315 0.160939
C43   C     C_R   0.705610 0.936237 0.529172 -0.156099
C44   C     C_R   0.527409 0.796621 0.487791 0.324132
C45   C     C_R   0.389115 0.762025 0.448158 -0.463585
C46   C     C_R   0.284894 0.819043 0.418638 0.164539
C47   C     C_R   0.333302 0.909934 0.416803 -0.323585
C48   C     C_R   0.481152 0.946236 0.448092 0.067635
C49   C     C_R   0.572380 0.892325 0.489392 -0.036276
H39   H     H_    0.352101 0.691844 0.447960 0.157189
C50   C     C_R   0.651834 0.083608 0.488720 -0.098715
C51   C     C_R   0.751059 0.029939 0.527798 0.000173
C52   C     C_R   0.688601 0.180329 0.493137 0.226328
C53   C     C_R   0.827754 0.215701 0.531198 -0.488726
C54   C     C_R   0.932817 0.164455 0.565952 0.180169
C55   C     C_R   0.900194 0.069419 0.559285 0.055415
C56   C     C_R   0.541005 0.034720 0.437265 0.177218
H40   H     H_    0.251536 0.953372 0.394289 0.159555
H41   H     H_    0.867624 0.282504 0.524388 0.167195
C57   C     C_3   0.047755 0.138246 0.306247 -0.394151
C58   C     C_3   0.033012 0.117929 0.383417 -0.926381
H42   H     H_    0.146888 0.131769 0.414951 0.274129
H43   H     H_    0.942811 0.161024 0.409032 0.278978
H44   H     H_    0.993481 0.046162 0.383721 0.253836
H45   H     H_    0.928309 0.128205 0.278669 0.218585
H46   H     H_    0.125428 0.089629 0.277303 0.185225
C59   C     C_3   0.848957 0.747707 0.693181 -0.305219
C60   C     C_3   0.898622 0.846191 0.691886 -0.878247
H47   H     H_    0.954439 0.850321 0.640289 0.272341
H48   H     H_    0.799429 0.892631 0.692957 0.255820
H49   H     H_    0.982170 0.869241 0.738132 0.233750
H50   H     H_    0.911902 0.722366 0.738469 0.173757
H51   H     H_    0.886390 0.709618 0.643530 0.216596
C61   C     C_3   0.684400 0.727802 0.833756 -0.400134
C62   C     C_3   0.811134 0.784769 0.882039 -0.928727
H52   H     H_    0.913127 0.804128 0.850590 0.262659
H53   H     H_    0.759924 0.847219 0.908469 0.265574
H54   H     H_    0.856282 0.745287 0.924107 0.270024
H55   H     H_    0.589780 0.706489 0.868078 0.210048
H56   H     H_    0.737046 0.664595 0.811904 0.189789
C63   C     C_3   0.437596 0.787597 0.776211 -0.280469
C64   C     C_3   0.389376 0.884699 0.774313 -0.916177
H57   H     H_    0.433800 0.927444 0.824223 0.255202
H58   H     H_    0.438029 0.912624 0.727028 0.275450
H59   H     H_    0.258271 0.886849 0.772531 0.254130
H60   H     H_    0.379852 0.742724 0.731612 0.259743
H61   H     H_    0.389747 0.767295 0.826478 0.177908
H62   H     H_    0.188970 0.906350 0.194175 0.229096
C65   C     C_3   0.118925 0.331701 0.781355 -0.265234
C66   C     C_3   0.216400 0.353560 0.852746 -0.810070
H63   H     H_    0.139505 0.347228 0.899022 0.218734
H64   H     H_    0.317071 0.309131 0.856179 0.282606
H65   H     H_    0.266411 0.423326 0.858314 0.272309
H66   H     H_    0.169342 0.371730 0.741020 0.241506
H67   H     H_    0.998144 0.356199 0.790623 0.092139
C67   C     C_3   0.706381 0.097050 0.778629 -0.404923
C68   C     C_3   0.746944 0.039178 0.837983 -0.873051
H68   H     H_    0.840816 0.071407 0.876579 0.263407
H69   H     H_    0.640205 0.024521 0.868135 0.254995
H70   H     H_    0.795568 0.975652 0.813415 0.243418
H71   H     H_    0.615803 0.058646 0.740924 0.190981
H72   H     H_    0.811999 0.106267 0.747064 0.188672
C69   C     C_3   0.091875 0.723146 0.198654 -0.303630
C70   C     C_3   0.966978 0.731036 0.139114 -0.834174
H73   H     H_    0.856769 0.756721 0.162178 0.300281
H74   H     H_    0.011917 0.777489 0.101832 0.237081
H75   H     H_    0.938862 0.664094 0.107580 0.250301
H76   H     H_    0.207629 0.715769 0.173046 0.136876
H77   H     H_    0.064682 0.660784 0.223257 0.206697
C71   C     C_3   0.741997 0.241817 0.871087 -0.211876
C72   C     C_3   0.662777 0.239968 0.943124 -0.940259
H78   H     H_    0.550508 0.276153 0.943237 0.258739
H79   H     H_    0.636886 0.169456 0.953324 0.269267
H80   H     H_    0.743370 0.273854 0.987296 0.250144
H81   H     H_    0.861118 0.215897 0.875153 0.191999
H82   H     H_    0.764580 0.312717 0.862918 0.193351
C73   C     C_3   0.780692 0.516943 0.641486 -0.205323
C74   C     C_3   0.846835 0.429188 0.606623 -0.505830
H83   H     H_    0.966695 0.430950 0.626516 0.228502
H84   H     H_    0.806385 0.366202 0.626497 0.154195
H85   H     H_    0.848436 0.424532 0.548252 0.249855
H86   H     H_    0.652851 0.525127 0.634480 0.220327
H87   H     H_    0.811728 0.574745 0.614353 0.169568
H88   H     H_    0.570272 0.454381 0.881674 0.178005
C75   C     C_3   0.411246 0.709617 0.037198 -0.373893
C76   C     C_3   0.584840 0.715400 0.017164 -0.957681
H89   H     H_    0.664913 0.716887 0.065173 0.266773
H90   H     H_    0.614064 0.656869 0.978096 0.275099
H91   H     H_    0.607659 0.779285 0.994434 0.274820
H92   H     H_    0.333887 0.731232 0.994334 0.198188
H93   H     H_    0.395044 0.761220 0.084234 0.192335
C77   C     C_3   0.037725 0.011017 0.572469 -0.324919
C78   C     C_3   0.102021 0.028694 0.650000 -0.839804
H94   H     H_    0.228715 0.052240 0.652435 0.295229
H95   H     H_    0.025882 0.075748 0.680008 0.250052
H96   H     H_    0.095209 0.972125 0.680144 0.226389
H97   H     H_    0.007419 0.939292 0.557658 0.204356
H98   H     H_    0.133480 0.025371 0.535689 0.214790
H99   H     H_    0.770255 0.897378 0.563277 0.175128
C79   C     C_3   0.575992 0.044438 0.359455 -0.309169
C80   C     C_3   0.432240 0.062581 0.313942 -0.871019
H100  H     H_    0.361048 0.112628 0.345133 0.283727
H101  H     H_    0.470536 0.088998 0.264197 0.264844
H102  H     H_    0.360122 0.999828 0.297338 0.234378
H103  H     H_    0.670503 0.097226 0.355743 0.217830
H104  H     H_    0.628418 0.981785 0.334757 0.187543

loop_
_geom_bond_atom_site_label_1
_geom_bond_atom_site_label_2
_geom_bond_distance
_ccdc_geom_bond_type
O5    C6    1.408761 S    
C22   C23   1.417606 A    
C15   H29   1.110469 S    
C35   C36   1.428761 A    
C17   C29   1.418837 A    
O3    P6    1.729427 S    
C5    H10   1.097086 S    
C7    H15   1.099831 S    
C68   H68   1.106099 S    
C18   H37   1.078085 S    
C62   H52   1.108107 S    
C60   H49   1.108694 S    
Ba1   Ba2   4.622202 S    
C39   H34   1.070003 S    
C38   C40   1.415116 A    
C32   H32   1.076674 S    
C50   C51   1.431461 A    
P5    O17   1.746087 S    
C78   H94   1.109372 S    
C48   C49   1.419549 A    
C67   H72   1.099221 S    
C26   C73   1.492571 S    
C19   H36   1.079001 S    
P3    O11   1.759195 S    
C43   C49   1.417108 A    
C53   H41   1.065189 S    
O4    P6    1.537511 D    
O19   C13   1.415494 S    
C62   H53   1.110355 S    
C19   C21   1.394384 A    
O11   C2    1.411888 S    
C72   H79   1.109558 S    
C37   C75   1.520027 S    
C8    H16   1.098945 S    
C7    H13   1.108604 S    
O12   Ba2   2.861866 S    
C80   H102  1.101011 S    
C79   H103  1.108616 S    
C57   H46   1.101876 S    
C10   H18   1.107168 S    
C33   H33   1.071741 S    
P1    Ba1   3.477180 S    
C47   H40   1.079520 S    
C44   C45   1.405386 A    
P1    O1    1.556779 D    
P4    O15   1.736935 S    
C63   H60   1.089579 S    
C12   H23   1.109832 S    
C46   C47   1.407650 A    
C34   C35   1.408742 A    
C74   H85   1.087032 S    
C21   H88   1.081093 S    
C71   C72   1.528082 S    
C67   C68   1.532849 S    
C73   H86   1.096687 S    
C70   H75   1.107153 S    
C59   H51   1.089480 S    
C30   C31   1.425030 A    
C13   H25   1.104426 S    
P7    O22   1.751712 S    
P8    O23   1.533971 D    
C77   H97   1.090130 S    
C58   H44   1.111098 S    
C41   C42   1.400986 A    
C4    C5    1.514866 S    
C76   H89   1.104439 S    
C16   C71   1.553085 S    
O16   P7    1.800938 S    
C15   C16   1.545719 S    
O7    Ba1   2.969154 S    
C64   H58   1.109859 S    
C65   H66   1.107228 S    
C69   H77   1.110887 S    
C5    H9    1.086604 S    
C23   C24   1.433504 A    
O13   Ba2   3.021054 S    
C11   C12   1.521136 S    
C70   H74   1.110801 S    
C31   C42   1.434805 A    
C3    H5    1.108412 S    
C50   C56   1.428489 A    
C5    H11   1.084004 S    
C77   C78   1.520087 S    
C68   H69   1.107753 S    
C75   C76   1.526094 S    
P4    O13   1.561498 S    
C76   H91   1.106988 S    
P6    C40   1.866346 S    
C38   C39   1.396590 A    
C65   C66   1.537761 S    
P5    O18   1.542048 D    
C66   H64   1.105726 S    
C80   H101  1.110010 S    
C19   C20   1.411575 A    
C67   H71   1.111963 S    
C44   C49   1.461316 A    
C36   C37   1.421185 A    
P3    C46   1.877912 S    
C62   H54   1.110693 S    
C34   H38   1.074752 S    
C4    H7    1.103702 S    
C64   H59   1.108024 S    
Ba1   O13   2.801990 S    
C72   H80   1.109204 S    
H1    C10   1.110854 S    
C26   C27   1.418252 A    
C20   C24   1.419697 A    
C21   C22   1.401898 A    
C57   C58   1.522601 S    
P5    O19   1.772050 S    
O14   Ba2   2.824671 S    
C11   H20   1.104971 S    
C80   H100  1.100321 S    
C48   C56   1.437510 A    
O14   P8    1.777210 S    
P1    O2    1.561692 S    
P7    C52   1.920044 S    
C63   H61   1.108887 S    
C12   H24   1.110496 S    
C45   H39   1.081776 S    
C74   H83   1.064795 S    
C55   C77   1.514454 S    
P4    Ba2   3.477648 S    
C66   H65   1.099733 S    
C59   H50   1.102569 S    
C73   H87   1.084711 S    
C69   C70   1.528584 S    
C13   C65   1.550642 S    
C59   C60   1.517519 S    
O17   Ba2   2.816433 S    
C31   C32   1.400792 A    
C14   H28   1.103432 S    
C47   C48   1.417387 A    
C72   H78   1.110810 S    
C75   H92   1.107126 S    
C37   C39   1.394595 A    
C1    H19   1.105779 S    
C71   H82   1.100165 S    
C60   H47   1.096455 S    
C56   C79   1.520205 S    
O2    Ba1   3.020267 S    
C1    H3    1.105528 S    
C64   H57   1.107298 S    
C65   H67   1.109235 S    
C61   H56   1.098179 S    
P2    O20   1.622905 S    
C70   H73   1.101432 S    
P2    O7    1.536409 D    
C17   C18   1.412221 A    
C29   C30   1.435041 A    
Ba1   O16   2.868486 S    
P3    O8    1.752676 S    
P2    Ba1   3.535979 S    
C18   C32   1.395854 A    
C52   C53   1.401287 A    
C3    H62   1.110962 S    
C9    C63   1.544055 S    
C22   C25   1.412913 A    
C15   H30   1.111982 S    
P4    O12   1.557153 D    
O6    P6    1.744082 S    
C54   C55   1.424787 A    
C6    C57   1.536159 S    
C14   H26   1.104859 S    
Ba2   O21   2.969502 S    
C30   C38   1.415212 A    
C71   H81   1.096590 S    
C61   C62   1.532864 S    
C1    H2    1.108822 S    
C78   H96   1.076347 S    
C73   C74   1.524794 S    
C28   C33   1.395606 A    
C23   C28   1.428186 A    
C9    H17   1.099145 S    
C74   H84   1.101646 S    
C43   C51   1.440723 A    
P4    C27   1.921438 S    
C24   C35   1.415130 A    
C41   H35   1.082155 S    
C4    H8    1.109944 S    
C60   H48   1.109147 S    
C16   H31   1.108355 S    
C14   H27   1.103719 S    
O2    Ba2   2.802553 S    
O8    Ba1   2.815838 S    
C69   H76   1.105852 S    
C9    C61   1.559129 S    
C43   H99   1.069072 S    
C66   H63   1.110875 S    
C17   C20   1.430673 A    
P8    O24   1.745581 S    
C33   C34   1.388680 A    
C51   C55   1.442362 A    
C4    O15   1.400072 S    
C6    H12   1.104163 S    
P8    C25   1.878379 S    
C2    H4    1.105736 S    
C3    H6    1.100672 S    
C57   H45   1.113210 S    
C45   C46   1.399766 A    
P2    O10   1.797879 S    
C8    C9    1.581914 S    
Ba1   O20   2.995404 S    
C25   C26   1.407616 A    
C58   H42   1.109220 S    
C79   H104  1.106467 S    
P5    C54   1.917579 S    
C53   C54   1.394777 A    
C27   C28   1.425434 A    
C68   H70   1.102353 S    
C75   H93   1.109926 S    
C7    H14   1.111146 S    
O10   C8    1.407185 S    
C12   H22   1.107920 S    
C15   O24   1.402203 S    
C2    C69   1.541117 S    
O3    Ba1   2.825355 S    
C50   C52   1.457602 A    
Ba2   O20   2.867956 S    
P1    C42   1.894386 S    
C61   H55   1.103371 S    
C11   O22   1.403254 S    
O16   Ba2   2.994616 S    
C8    C59   1.512617 S    
C79   C80   1.514080 S    
C29   C36   1.424270 A    
C13   C14   1.554114 S    
P7    O21   1.590914 D    
C40   C41   1.398260 A    
P3    O9    1.543971 D    
C77   H98   1.110691 S    
P1    O5    1.758564 S    
C58   H43   1.100326 S    
O1    Ba1   2.861394 S    
C76   H90   1.107872 S    
C1    C10   1.517534 S    
O6    C10   1.401244 S    
P2    C44   1.904070 S    
C63   C64   1.528835 S    
C78   H95   1.088046 S    
C11   H21   1.100088 S    
C16   C67   1.544888 S    
C6    C7    1.538394 S    
C2    C3    1.523695 S    
