data_mof_unit_36755.cif
_audit_creation_date              2012-12-10T17:05:46-0500
_audit_creation_method            fapswitch 2.2
_symmetry_space_group_name_H-M    P1
_symmetry_Int_Tables_number       1
_space_group_crystal_system       triclinic
_cell_length_a                    26.030137
_cell_length_b                    25.894263
_cell_length_c                    18.343987
_cell_angle_alpha                 89.940036
_cell_angle_beta                  135.052534
_cell_angle_gamma                 90.301559
_cell_volume                      8734.76130872

loop_
_atom_site_label
_atom_site_type_symbol
_atom_type_description
_atom_site_fract_x
_atom_site_fract_y
_atom_site_fract_z
_atom_type_partial_charge
C1    C     C_R   0.891129 0.751601 0.779914 0.840607
C2    C     C_R   0.429332 0.226920 0.413040 0.066668
C3    C     C_R   0.299890 0.527644 0.507098 0.142748
C4    C     C_R   0.794797 0.555324 0.420734 -0.175270
C5    C     C_R   0.805108 0.448549 0.431864 -0.134148
C6    C     C_R   0.301395 0.055060 0.428957 -0.189099
C7    C     C_R   0.307854 0.948061 0.435764 -0.158037
C8    C     C_R   0.820939 0.530352 0.385308 0.161246
C9    C     C_R   0.826204 0.475929 0.389861 0.220151
C10   C     C_R   0.329517 0.029756 0.396591 0.164390
C11   C     C_R   0.331138 0.975324 0.396726 0.219163
C12   C     C_R   0.777293 0.473853 0.466201 0.008724
C13   C     C_R   0.020368 0.241029 0.595559 0.104713
C14   C     C_R   0.773976 0.527974 0.462831 0.041833
C15   C     C_R   0.279182 0.973648 0.468626 0.018019
C16   C     C_R   0.276773 0.027838 0.466117 0.046971
C17   C     C_R   0.748526 0.554042 0.499437 -0.115841
C18   C     C_R   0.751642 0.446265 0.502147 -0.094857
C19   C     C_R   0.248730 0.054014 0.499009 -0.117045
C20   C     C_R   0.251420 0.946227 0.501666 -0.093941
C21   C     C_R   0.721694 0.526856 0.533619 -0.100841
C22   C     C_R   0.724720 0.472417 0.537197 -0.031054
C23   C     C_R   0.219359 0.026898 0.529582 -0.101874
C24   C     C_R   0.927918 0.729936 0.410022 0.065737
C25   C     C_R   0.222277 0.972485 0.533334 -0.034503
C26   C     C_R   0.750024 0.890042 0.499872 0.841949
C27   C     C_R   0.749977 0.110135 0.499817 0.849071
C28   C     C_R   0.249923 0.390037 0.499791 0.840697
C29   C     C_R   0.249842 0.610129 0.499684 0.848590
C30   C     C_R   0.889371 0.749572 0.498775 0.762229
C31   C     C_R   0.890154 0.249861 0.500197 0.765397
C32   C     C_R   0.389385 0.249598 0.498841 0.766946
C33   C     C_R   0.390170 0.749846 0.500240 0.765154
C34   C     C_R   0.610585 0.749336 0.501074 0.826768
C35   C     C_R   0.575081 0.741220 0.596382 0.052084
C36   C     C_R   0.609436 0.249259 0.498577 0.788065
C37   C     C_R   0.110603 0.249345 0.501097 0.828013
C38   C     C_R   0.109425 0.749255 0.498531 0.787452
C39   C     C_R   0.648102 0.732023 0.690623 -0.141585
C40   C     C_R   0.468566 0.202547 0.330214 -0.180771
C41   C     C_R   0.148008 0.231533 0.690439 -0.142331
C42   C     C_R   0.966165 0.707232 0.325215 -0.172292
C43   C     C_R   0.666545 0.723951 0.781873 -0.128419
C44   C     C_R   0.400379 0.180838 0.247881 -0.142226
C45   C     C_R   0.166392 0.223239 0.781597 -0.127509
C46   C     C_R   0.484060 0.225992 0.413686 0.054519
C47   C     C_R   0.896460 0.688841 0.239684 -0.147448
C48   C     C_R   0.612894 0.723643 0.781185 -0.145218
C49   C     C_R   0.346602 0.181792 0.247153 -0.096120
C50   C     C_R   0.112735 0.222984 0.780904 -0.145365
C51   C     C_R   0.842308 0.690810 0.238124 -0.102771
C52   C     C_3   0.458665 0.805223 0.278276 -0.751409
C53   C     C_3   0.616387 0.359948 0.627694 -0.675917
C54   C     C_3   0.958632 0.307299 0.279879 -0.756826
C55   C     C_3   0.119144 0.857239 0.635726 -0.674972
C56   C     C_3   0.275960 0.694056 0.972109 -0.675908
C57   C     C_R   0.075047 0.240980 0.596306 0.051989
C58   C     C_3   0.425178 0.471254 0.896928 -0.788144
C59   C     C_3   0.773505 0.200365 0.970149 -0.677455
C60   C     C_3   0.922169 0.970570 0.893861 -0.788526
C61   C     C_3   0.322001 0.798369 0.890310 -0.742031
C62   C     C_3   0.452749 0.346552 0.752880 -0.798966
C63   C     C_3   0.821704 0.301950 0.886356 -0.740315
C64   C     C_3   0.955607 0.845785 0.755995 -0.806254
C65   C     C_3   0.921637 0.942697 0.601553 -0.803273
C66   C     C_3   0.914520 0.076493 0.625796 -0.764392
C67   C     C_3   0.419870 0.442554 0.596622 -0.800903
C68   C     C_R   0.982781 0.728527 0.410977 0.054886
C69   C     C_3   0.413366 0.576451 0.620723 -0.760822
C70   C     C_2   0.531502 0.944321 0.439615 0.468873
C71   C     C_2   0.508538 0.056330 0.372785 0.441277
C72   C     C_2   0.039575 0.444674 0.458334 0.450220
C73   C     C_2   0.013115 0.556019 0.387175 0.427375
C74   C     C_2   0.695082 0.556510 0.571091 0.398908
C75   C     C_2   0.705450 0.443062 0.585191 0.371366
C76   C     C_2   0.190501 0.056568 0.563813 0.402991
C77   C     C_2   0.200427 0.943218 0.578034 0.378172
C78   C     C_3   0.910100 0.589234 0.426175 -0.683112
C79   C     C_R   0.555203 0.747852 0.502536 -0.146670
C80   C     C_3   0.869042 0.395399 0.371828 -0.752934
C81   C     C_3   0.426432 0.085765 0.453310 -0.673937
C82   C     C_3   0.367898 0.894066 0.370972 -0.724324
C83   C     C_2   0.349058 0.761650 0.308467 0.443435
C84   C     C_2   0.530303 0.293469 0.670162 0.441837
C85   C     C_2   0.849140 0.261694 0.308439 0.446516
C86   C     C_2   0.033642 0.786990 0.676403 0.442880
C87   C     C_2   0.643065 0.789946 0.096622 0.443044
C88   C     C_2   0.527557 0.156541 0.096289 0.398460
C89   C     C_2   0.144605 0.286473 0.096893 0.442335
C90   C     C_R   0.552598 0.248810 0.497057 -0.160724
C91   C     C_2   0.028345 0.656357 0.096336 0.398556
C92   C     C_2   0.560422 0.627936 0.166456 0.457520
C93   C     C_2   0.664346 0.342038 0.216077 0.425043
C94   C     C_2   0.056335 0.128492 0.165323 0.461427
C95   C     C_2   0.163554 0.842631 0.216059 0.422742
C96   C     C_3   0.434097 0.613757 0.179854 -0.698294
C97   C     C_3   0.658352 0.453821 0.118010 -0.675908
C98   C     C_3   0.928746 0.117405 0.177478 -0.698627
C99   C     C_3   0.156104 0.955479 0.120098 -0.700500
C100  C     C_R   0.055241 0.247930 0.502579 -0.147115
C101  C     C_R   0.888986 0.251427 0.780805 0.857899
C102  C     C_R   0.052559 0.748832 0.496904 -0.162691
C103  C     C_R   0.481663 0.751486 0.407797 0.180313
C104  C     C_R   0.566024 0.273808 0.577379 0.182969
C105  C     C_R   0.981788 0.252050 0.407936 0.180864
C106  C     C_R   0.067210 0.771669 0.579701 0.186727
C107  C     C_R   0.426875 0.752865 0.406580 -0.090238
C108  C     C_R   0.513786 0.271391 0.580693 -0.058544
C109  C     C_R   0.926946 0.253116 0.406619 -0.089287
C110  C     C_R   0.015215 0.768568 0.583406 -0.060306
C111  C     C_R   0.446919 0.748851 0.501221 -0.192790
C112  C     C_R   0.391132 0.251620 0.779897 0.839997
C113  C     C_R   0.444883 0.249252 0.497305 -0.193805
C114  C     C_R   0.946915 0.248854 0.501184 -0.191702
C115  C     C_R   0.944900 0.749252 0.497245 -0.195465
C116  C     C_R   0.496308 0.662269 0.091910 -0.086844
C117  C     C_R   0.589181 0.345437 0.112330 -0.055872
C118  C     C_R   0.993416 0.163810 0.091326 -0.088141
C119  C     C_R   0.088174 0.845773 0.112446 -0.055501
C120  C     C_R   0.427467 0.647053 0.050239 0.099924
C121  C     C_R   0.564867 0.394078 0.064040 0.190902
C122  C     C_R   0.924089 0.149918 0.049330 0.099075
C123  C     C_R   0.388949 0.751421 0.780827 0.856246
C124  C     C_R   0.063142 0.894400 0.064090 0.193597
C125  C     C_R   0.365136 0.674932 0.967715 0.162948
C126  C     C_R   0.503055 0.397477 0.958059 0.115053
C127  C     C_R   0.862638 0.178496 0.966949 0.163944
C128  C     C_R   0.001734 0.897586 0.957889 0.113193
C129  C     C_R   0.613941 0.745971 0.220067 0.853741
C130  C     C_R   0.610057 0.249775 0.220025 0.861076
C131  C     C_R   0.113852 0.245933 0.220047 0.855260
C132  C     C_R   0.110052 0.749769 0.220040 0.859925
C133  C     C_R   0.370012 0.713397 0.917944 0.138234
C134  C     C_R   0.540559 0.731565 0.689305 -0.148218
C135  C     C_R   0.468874 0.351965 0.898478 0.129224
C136  C     C_R   0.868709 0.216129 0.917350 0.137935
C137  C     C_R   0.968416 0.851958 0.898444 0.131020
C138  C     C_R   0.437935 0.723459 0.952613 -0.015351
C139  C     C_R   0.486871 0.302767 0.947573 0.032172
C140  C     C_R   0.937035 0.224850 0.952482 -0.015519
C141  C     C_R   0.986555 0.802800 0.947646 0.031537
C142  C     C_R   0.500951 0.707156 0.051992 -0.010746
C143  C     C_R   0.545218 0.300274 0.057190 -0.114293
C144  C     C_R   0.999501 0.208123 0.051860 -0.010944
C145  C     C_R   0.360726 0.204354 0.328882 -0.092732
C146  C     C_R   0.044769 0.800401 0.057272 -0.115056
C147  C     C_R   0.564770 0.737824 0.107463 -0.018717
C148  C     C_R   0.557948 0.252608 0.107797 -0.068025
C149  C     C_R   0.064338 0.237609 0.107407 -0.018709
C150  C     C_R   0.057939 0.752620 0.107845 -0.067630
C151  C     C_R   0.573086 0.767252 0.051028 -0.035533
C152  C     C_R   0.519506 0.207145 0.050239 -0.002805
C153  C     C_R   0.073671 0.265740 0.051050 -0.035443
C154  C     C_R   0.019912 0.707066 0.050289 -0.003076
C155  C     C_R   0.513991 0.772301 0.944838 -0.325285
C156  C     C_R   0.040449 0.231168 0.689107 -0.148326
C157  C     C_R   0.469102 0.209061 0.943841 -0.311085
C158  C     C_R   0.014718 0.271005 0.944801 -0.324500
C159  C     C_R   0.969507 0.708988 0.943894 -0.310855
C160  C     C_R   0.445983 0.751289 0.894542 -0.043994
C161  C     C_R   0.450387 0.255533 0.892087 -0.020790
C162  C     C_R   0.946019 0.251412 0.894488 -0.043747
C163  C     C_R   0.950433 0.755506 0.892138 -0.021549
C164  C     C_R   0.637631 0.946652 0.463960 -0.290346
C165  C     C_R   0.631938 0.053593 0.446365 -0.252022
C166  C     C_R   0.140463 0.446671 0.471109 -0.290614
C167  C     C_R   0.857763 0.710656 0.322597 -0.096982
C168  C     C_R   0.134055 0.553533 0.452535 -0.252408
C169  C     C_R   0.580904 0.973422 0.440352 0.027598
C170  C     C_R   0.575201 0.027082 0.423540 0.044778
C171  C     C_R   0.085732 0.473505 0.452458 0.040602
C172  C     C_R   0.079244 0.527059 0.434682 0.052694
C173  C     C_R   0.692146 0.027247 0.477492 0.054252
C174  C     C_R   0.693341 0.972914 0.481293 0.057655
C175  C     C_R   0.193230 0.527223 0.480497 0.053340
C176  C     C_R   0.194581 0.472893 0.484522 0.055522
C177  C     C_R   0.749628 0.610226 0.501352 0.770902
C178  C     C_R   0.520412 0.741230 0.595653 0.104052
C179  C     C_R   0.750410 0.389924 0.500025 0.940247
C180  C     C_R   0.249666 0.110203 0.500780 0.772945
C181  C     C_R   0.250375 0.889908 0.500063 0.940322
C182  C     C_R   0.748048 0.946311 0.497332 -0.145615
C183  C     C_R   0.748379 0.054087 0.497567 -0.130958
C184  C     C_R   0.247936 0.446293 0.497336 -0.144830
C185  C     C_R   0.248205 0.554075 0.497418 -0.131082
C186  C     C_R   0.799038 0.973460 0.505274 0.117886
C187  C     C_R   0.801109 0.027672 0.509622 0.143029
C188  C     C_R   0.297785 0.473448 0.502822 0.117968
H1    H     H_    0.521579 0.792348 0.901049 0.171515
H2    H     H_    0.810561 0.407227 0.437992 0.177196
H3    H     H_    0.152415 0.953617 0.560391 0.133927
H4    H     H_    0.835663 0.546215 0.288785 0.259406
H5    H     H_    0.922269 0.613519 0.390298 0.245652
H6    H     H_    0.955307 0.561576 0.479830 0.272912
H7    H     H_    0.906248 0.615086 0.470421 0.230877
H8    H     H_    0.881839 0.470498 0.345564 0.297537
H9    H     H_    0.889161 0.382594 0.338036 0.228347
H10   H     H_    0.820110 0.371971 0.335724 0.226539
H11   H     H_    0.912527 0.388864 0.456472 0.260398
H12   H     H_    0.356828 0.044237 0.315249 0.276852
H13   H     H_    0.298658 0.096732 0.423349 0.166274
H14   H     H_    0.442874 0.111151 0.424097 0.233684
H15   H     H_    0.469548 0.056596 0.505667 0.271675
H16   H     H_    0.421066 0.110334 0.497212 0.232145
H17   H     H_    0.331519 0.961588 0.285165 0.229206
H18   H     H_    0.392650 0.881843 0.343546 0.231352
H19   H     H_    0.315555 0.873103 0.325117 0.208074
H20   H     H_    0.406206 0.883985 0.453997 0.252238
H21   H     H_    0.313302 0.780957 0.310446 0.041726
H22   H     H_    0.486551 0.307126 0.659799 0.027744
H23   H     H_    0.813299 0.281015 0.310204 0.040060
H24   H     H_    0.311101 0.906602 0.438939 0.179205
H25   H     H_    0.990870 0.798593 0.669681 0.034985
H26   H     H_    0.643160 0.824276 0.062694 0.054007
H27   H     H_    0.510805 0.121304 0.051971 0.070192
H28   H     H_    0.146138 0.319763 0.062429 0.054327
H29   H     H_    0.012143 0.621143 0.052191 0.070277
H30   H     H_    0.561705 0.599572 0.211173 0.070997
H31   H     H_    0.699024 0.310538 0.234255 0.009914
H32   H     H_    0.056900 0.100803 0.210204 0.071179
H33   H     H_    0.198309 0.811171 0.234272 0.009316
H34   H     H_    0.444312 0.570453 0.095185 0.206611
H35   H     H_    0.691662 0.729618 0.695044 0.140308
H36   H     H_    0.396919 0.643859 0.163376 0.252763
H37   H     H_    0.491273 0.626746 0.245058 0.233965
H38   H     H_    0.424967 0.578019 0.202989 0.242603
H39   H     H_    0.575163 0.470541 0.106620 0.245861
H40   H     H_    0.630149 0.463573 0.037955 0.226410
H41   H     H_    0.696913 0.421738 0.146877 0.247645
H42   H     H_    0.689885 0.488143 0.167901 0.240438
H43   H     H_    0.938836 0.073298 0.093411 0.206893
H44   H     H_    0.891588 0.147741 0.160344 0.254567
H45   H     H_    0.985969 0.130204 0.243036 0.233706
H46   H     H_    0.508896 0.200590 0.327861 0.144941
H47   H     H_    0.919061 0.081887 0.200382 0.243183
H48   H     H_    0.071436 0.970642 0.106199 0.247027
H49   H     H_    0.128440 0.966393 0.040762 0.230974
H50   H     H_    0.194641 0.923558 0.147890 0.236324
H51   H     H_    0.187634 0.989293 0.171838 0.236980
H52   H     H_    0.191553 0.229149 0.694821 0.139765
H53   H     H_    0.006667 0.704626 0.323282 0.146401
H54   H     H_    0.722587 0.716976 0.853106 0.139286
H55   H     H_    0.389384 0.162937 0.184656 0.159999
H56   H     H_    0.222392 0.216078 0.852762 0.140047
H57   H     H_    0.440082 0.173966 0.899731 0.138379
H58   H     H_    0.884514 0.672792 0.174522 0.157124
H59   H     H_    0.126992 0.215619 0.851532 0.142457
H60   H     H_    0.788402 0.676105 0.171934 0.163639
H61   H     H_    0.627196 0.716429 0.851887 0.142296
H62   H     H_    0.293915 0.164546 0.183476 0.160285
H63   H     H_    0.501015 0.728756 0.692960 0.143673
H64   H     H_    0.317759 0.203286 0.325988 0.168408
H65   H     H_    0.000880 0.228415 0.692723 0.143022
H66   H     H_    0.814622 0.709818 0.319303 0.177470
H67   H     H_    0.426352 0.727769 0.257933 0.269991
H68   H     H_    0.022956 0.289958 0.900945 0.170619
H69   H     H_    0.449216 0.802341 0.209130 0.233666
H70   H     H_    0.510026 0.827065 0.338712 0.210933
H71   H     H_    0.412552 0.826218 0.256965 0.245896
H72   H     H_    0.674505 0.293338 0.667547 0.228397
H73   H     H_    0.600604 0.367975 0.554483 0.231038
H74   H     H_    0.666618 0.381995 0.691308 0.252107
H75   H     H_    0.572631 0.373466 0.620686 0.232982
H76   H     H_    0.926867 0.229613 0.257656 0.269954
H77   H     H_    0.951161 0.305325 0.212368 0.234423
H78   H     H_    0.009035 0.329718 0.341790 0.212368
H79   H     H_    0.940764 0.673837 0.899797 0.138753
H80   H     H_    0.911126 0.327182 0.256308 0.247454
H81   H     H_    0.175934 0.790685 0.670101 0.230139
H82   H     H_    0.101996 0.866856 0.562035 0.232332
H83   H     H_    0.170097 0.878548 0.699676 0.252424
H84   H     H_    0.076648 0.870186 0.631842 0.232603
H85   H     H_    0.255688 0.653890 0.854843 0.222772
H86   H     H_    0.235403 0.723029 0.913454 0.257384
H87   H     H_    0.323302 0.714662 0.044074 0.237836
H88   H     H_    0.250808 0.669305 0.989462 0.258200
H89   H     H_    0.472882 0.449688 0.846595 0.227604
H90   H     H_    0.636820 0.905094 0.467845 0.149042
H91   H     H_    0.373648 0.448791 0.841450 0.244403
H92   H     H_    0.415501 0.510900 0.866386 0.247360
H93   H     H_    0.441994 0.474055 0.971857 0.243975
H94   H     H_    0.752779 0.158598 0.853904 0.222139
H95   H     H_    0.734829 0.230099 0.911755 0.255252
H96   H     H_    0.821401 0.220053 0.043079 0.239638
H97   H     H_    0.746251 0.176887 0.985531 0.259231
H98   H     H_    0.972727 0.949932 0.847410 0.226888
H99   H     H_    0.871168 0.947641 0.837484 0.244069
H100  H     H_    0.912245 0.010209 0.863164 0.247526
H101  H     H_    0.626014 0.094833 0.432914 0.138805
H102  H     H_    0.937555 0.973268 0.967762 0.244337
H103  H     H_    0.260111 0.732875 0.805061 0.240126
H104  H     H_    0.276670 0.824248 0.830119 0.256527
H105  H     H_    0.373024 0.816581 0.921406 0.242468
H106  H     H_    0.324457 0.794994 0.953107 0.242253
H107  H     H_    0.385773 0.387447 0.755911 0.248609
H108  H     H_    0.409412 0.345135 0.667306 0.227191
H109  H     H_    0.481460 0.308957 0.781897 0.251719
H110  H     H_    0.492744 0.377447 0.779788 0.234028
H111  H     H_    0.759102 0.236341 0.803007 0.238520
H112  H     H_    0.139430 0.405144 0.474774 0.152621
H113  H     H_    0.776867 0.327774 0.824895 0.257931
H114  H     H_    0.873177 0.319286 0.917542 0.243523
H115  H     H_    0.823545 0.300043 0.948683 0.241467
H116  H     H_    0.886845 0.887203 0.754864 0.248267
H117  H     H_    0.913386 0.843594 0.670470 0.227590
H118  H     H_    0.984844 0.808425 0.787229 0.251909
H119  H     H_    0.995546 0.876803 0.783230 0.234522
H120  H     H_    0.838022 0.953215 0.442089 0.232973
H121  H     H_    0.953935 0.972938 0.605562 0.242771
H122  H     H_    0.943318 0.904683 0.606394 0.240341
H123  H     H_    0.127388 0.594676 0.438015 0.140044
H124  H     H_    0.928293 0.947229 0.668081 0.240090
H125  H     H_    0.870654 0.039805 0.490619 0.238010
H126  H     H_    0.945543 0.044681 0.682642 0.236789
H127  H     H_    0.894764 0.102719 0.649320 0.226649
H128  H     H_    0.951634 0.098937 0.627085 0.237617
H129  H     H_    0.335082 0.453191 0.437255 0.232379
H130  H     H_    0.451972 0.472273 0.599131 0.242604
H131  H     H_    0.440857 0.404199 0.601467 0.239529
H132  H     H_    0.427614 0.447829 0.664000 0.239506
H133  H     H_    0.367527 0.539655 0.484666 0.237616
H134  H     H_    0.789999 0.596904 0.412892 0.166228
H135  H     H_    0.445082 0.544656 0.677423 0.236156
H136  H     H_    0.394592 0.602602 0.645762 0.225553
H137  H     H_    0.449555 0.598983 0.620258 0.237935
H138  H     H_    0.524057 0.903067 0.425141 0.024047
H139  H     H_    0.512158 0.097414 0.387131 0.038410
H140  H     H_    0.029034 0.403815 0.439826 0.032522
H141  H     H_    0.016513 0.597333 0.399955 0.042359
H142  H     H_    0.724008 0.590992 0.617682 0.044795
H143  H     H_    0.659288 0.453898 0.571837 0.134395
H144  H     H_    0.218781 0.091055 0.610751 0.045142
N1    N     N_2   0.464390 0.753967 0.314639 -0.271605
N2    N     N_2   0.419845 0.356027 0.789804 -0.282177
N3    N     N_2   0.810428 0.250812 0.844796 -0.290490
N4    N     N_2   0.920851 0.855756 0.790006 -0.282073
N5    N     N_2   0.845961 0.945743 0.504696 -0.279837
N6    N     N_2   0.854521 0.056109 0.522929 -0.277587
N7    N     N_2   0.343892 0.445748 0.500610 -0.279539
N8    N     N_2   0.352426 0.556029 0.518302 -0.276460
N9    N     N_2   0.842377 0.561641 0.346782 -0.312874
N10   N     N_2   0.850463 0.449595 0.349931 -0.301524
N11   N     N_2   0.358112 0.060464 0.367568 -0.309065
N12   N     N_2   0.629329 0.305285 0.650336 -0.271378
N13   N     N_2   0.355413 0.949192 0.356826 -0.246745
N14   N     N_2   0.419504 0.603455 0.089053 -0.289552
N15   N     N_2   0.606102 0.439623 0.121180 -0.248907
N16   N     N_2   0.914680 0.106742 0.087220 -0.290160
N17   N     N_2   0.103232 0.940202 0.121487 -0.242571
N18   N     N_2   0.964739 0.255607 0.315043 -0.273003
N19   N     N_2   0.131238 0.802234 0.654454 -0.271989
N20   N     N_2   0.297325 0.662070 0.932565 -0.292086
N21   N     N_2   0.481470 0.447047 0.910603 -0.316575
N22   N     N_2   0.794429 0.166972 0.931534 -0.292631
N23   N     N_2   0.979940 0.947095 0.910214 -0.316024
N24   N     N_2   0.311148 0.747935 0.846763 -0.289247
O1    O     O_3   0.750020 0.750020 0.500000 -0.492792
O2    O     O_R   0.750010 0.134170 0.560720 -0.660810
O3    O     O_R   0.250010 0.365830 0.560720 -0.657406
O4    O     O_R   0.250010 0.634170 0.560720 -0.660933
O5    O     O_R   0.896180 0.719660 0.731600 -0.641644
O6    O     O_R   0.896180 0.280340 0.731600 -0.647092
O7    O     O_R   0.396180 0.219660 0.731600 -0.641603
O8    O     O_R   0.396180 0.780340 0.731600 -0.648018
O9    O     O_R   0.664580 0.780370 0.268400 -0.613152
O10   O     O_R   0.664580 0.219630 0.268400 -0.622891
O11   O     O_R   0.164580 0.280370 0.268400 -0.613220
O12   O     O_3   0.750020 0.249980 0.500000 -0.500320
O13   O     O_R   0.164580 0.719630 0.268400 -0.622264
O14   O     O_R   0.835450 0.780390 0.731600 -0.624295
O15   O     O_R   0.835450 0.219610 0.731600 -0.635184
O16   O     O_R   0.335450 0.280390 0.731600 -0.623493
O17   O     O_R   0.335450 0.719610 0.731600 -0.635044
O18   O     O_R   0.603870 0.719650 0.268400 -0.650231
O19   O     O_R   0.603870 0.280350 0.268400 -0.626706
O20   O     O_R   0.103870 0.219650 0.268400 -0.650382
O21   O     O_R   0.103870 0.780350 0.268400 -0.628000
O22   O     O_R   0.810750 0.634210 0.560720 -0.640778
O23   O     O_3   0.250020 0.250020 0.500000 -0.492840
O24   O     O_R   0.810750 0.365790 0.560720 -0.643908
O25   O     O_R   0.310750 0.134210 0.560720 -0.643102
O26   O     O_R   0.310750 0.865790 0.560720 -0.646428
O27   O     O_R   0.750010 0.865820 0.439280 -0.621934
O28   O     O_R   0.750010 0.134180 0.439280 -0.599237
O29   O     O_R   0.250010 0.365820 0.439280 -0.622089
O30   O     O_R   0.250010 0.634180 0.439280 -0.598459
O31   O     O_R   0.896180 0.719650 0.560720 -0.641808
O32   O     O_R   0.896180 0.280350 0.560720 -0.649998
O33   O     O_R   0.396180 0.219650 0.560720 -0.641600
O34   O     O_3   0.250020 0.749980 0.500000 -0.500068
O35   O     O_R   0.396180 0.780350 0.560720 -0.650995
O36   O     O_R   0.664570 0.780390 0.560720 -0.660742
O37   O     O_R   0.664570 0.219610 0.560720 -0.655015
O38   O     O_R   0.164570 0.280390 0.560720 -0.660619
O39   O     O_R   0.164570 0.719610 0.560720 -0.655334
O40   O     O_R   0.835460 0.780370 0.439280 -0.609399
O41   O     O_R   0.835460 0.219630 0.439280 -0.635836
O42   O     O_R   0.335460 0.280370 0.439280 -0.609209
O43   O     O_R   0.335460 0.719630 0.439280 -0.635446
O44   O     O_R   0.603860 0.719660 0.439280 -0.620865
O45   O     O_R   0.689310 0.634210 0.439280 -0.639305
O46   O     O_R   0.603860 0.280340 0.439280 -0.625531
O47   O     O_R   0.103860 0.219660 0.439280 -0.622038
O48   O     O_R   0.103860 0.780340 0.439280 -0.625733
O49   O     O_2   0.502549 0.965485 0.462217 -0.543203
O50   O     O_2   0.448793 0.035772 0.308891 -0.574763
O51   O     O_2   0.017316 0.465471 0.491232 -0.572410
O52   O     O_2   0.953664 0.534839 0.327435 -0.592453
O53   O     O_2   0.638774 0.544612 0.545668 -0.590300
O54   O     O_2   0.742364 0.406702 0.642442 -0.611817
O55   O     O_2   0.133190 0.044629 0.535458 -0.590735
O56   O     O_R   0.689310 0.365790 0.439280 -0.600247
O57   O     O_2   0.237156 0.907373 0.637175 -0.613011
O58   O     O_2   0.323154 0.746545 0.225042 -0.589523
O59   O     O_2   0.592401 0.295811 0.755954 -0.553928
O60   O     O_2   0.823341 0.246277 0.225233 -0.591081
O61   O     O_2   0.096327 0.788340 0.761305 -0.555231
O62   O     O_2   0.700738 0.768837 0.167662 -0.566436
O63   O     O_2   0.549327 0.153420 0.180868 -0.595547
O64   O     O_2   0.201456 0.264811 0.168910 -0.564218
O65   O     O_2   0.049783 0.653110 0.180684 -0.594881
O66   O     O_2   0.612380 0.630309 0.177260 -0.589461
O67   O     O_R   0.189310 0.134210 0.439280 -0.638096
O68   O     O_2   0.687416 0.373728 0.282520 -0.596394
O69   O     O_2   0.108088 0.129331 0.175564 -0.587968
O70   O     O_2   0.186854 0.874552 0.282293 -0.596193
O71   O     O_R   0.189310 0.865790 0.439280 -0.599266
O72   O     O_R   0.750010 0.865830 0.560720 -0.656781
Zn1   Zn    Zn3+2 0.663270 0.706640 0.413250 0.976954
Zn2   Zn    Zn3+2 0.750020 0.206610 0.413240 1.013200
Zn3   Zn    Zn3+2 0.250020 0.293390 0.413240 1.009846
Zn4   Zn    Zn3+2 0.250020 0.706610 0.413240 1.013241
Zn5   Zn    Zn3+2 0.750010 0.793400 0.586760 0.952790
Zn6   Zn    Zn3+2 0.750010 0.206600 0.586760 0.968521
Zn7   Zn    Zn3+2 0.250010 0.293400 0.586760 0.952641
Zn8   Zn    Zn3+2 0.250010 0.706600 0.586760 0.968214
Zn9   Zn    Zn3+2 0.663270 0.293360 0.413250 1.035966
Zn10  Zn    Zn3+2 0.163270 0.206640 0.413250 0.978052
Zn11  Zn    Zn3+2 0.163270 0.793360 0.413250 1.035555
Zn12  Zn    Zn3+2 0.836780 0.706640 0.586750 0.967340
Zn13  Zn    Zn3+2 0.836780 0.293360 0.586750 0.988545
Zn14  Zn    Zn3+2 0.336780 0.206640 0.586750 0.966068
Zn15  Zn    Zn3+2 0.336780 0.793360 0.586750 0.985910
Zn16  Zn    Zn3+2 0.750020 0.793390 0.413240 1.010011

loop_
_geom_bond_atom_site_label_1
_geom_bond_atom_site_label_2
_ccdc_geom_bond_type
C31   O41   A    
C168  C175  A    
C42   C68   A    
C59   H96   S    
C112  O7    A    
C132  C150  S    
O8    Zn15  S    
C60   H102  S    
C14   C17   A    
O34   Zn11  S    
C136  C140  A    
C164  H90   S    
C7    H24   S    
C66   H127  S    
C135  C139  A    
H81   N19   S    
C177  O22   A    
C22   C75   S    
C120  N14   S    
C86   C110  S    
C8    N9    S    
O23   Zn10  S    
C129  O18   A    
C73   O52   D    
O24   Zn13  S    
C1    O14   A    
C3    C185  A    
C112  O16   A    
O19   Zn9   S    
C149  C153  A    
C145  H64   S    
C146  C150  A    
C91   O65   D    
C69   H136  S    
O44   Zn1   S    
C62   H108  S    
C33   C111  S    
C151  C155  A    
C53   N12   S    
C64   H118  S    
C31   C114  S    
O21   Zn11  S    
C35   C178  A    
O22   Zn12  S    
C67   H130  S    
C43   H54   S    
C21   C22   A    
C28   O3    A    
C30   C115  S    
C15   C20   A    
O40   Zn16  S    
C87   O62   D    
H76   N18   S    
C127  C136  A    
C5    C12   A    
H129  N7    S    
C3    N8    S    
C120  C125  A    
C95   C119  S    
H98   N23   S    
C17   C21   A    
C60   H100  S    
C78   H5    S    
C96   H38   S    
C108  C113  A    
C91   H29   S    
C69   H137  S    
C175  C176  A    
C60   N23   S    
C52   H70   S    
O27   Zn16  S    
C71   C170  S    
C92   C116  S    
C171  C172  A    
C90   C104  A    
C83   H21   S    
C128  N23   S    
C98   H44   S    
C49   H62   S    
C26   C182  S    
O47   Zn10  S    
C58   H93   S    
O45   Zn1   S    
C94   O69   D    
C56   H86   S    
C131  C149  S    
C55   H83   S    
C40   C46   A    
C124  N17   S    
C28   O29   A    
C17   C177  S    
C176  C184  A    
C152  C157  A    
O26   Zn15  S    
C68   C102  A    
C38   O39   A    
C81   H14   S    
C106  N19   S    
C37   O38   A    
C168  H123  S    
H116  N4    S    
C65   H121  S    
C64   N4    S    
O4    Zn8   S    
C58   N21   S    
C45   C50   A    
C80   H9    S    
O3    Zn7   S    
C4    C14   A    
C27   C183  S    
C10   N11   S    
C129  C147  S    
C126  N21   S    
O1    Zn5   S    
C6    C16   A    
C138  C160  A    
H4    N9    S    
C97   H40   S    
C58   H91   S    
C61   H106  S    
C77   O57   D    
C41   C45   A    
C103  C107  A    
C186  C187  A    
C41   H52   S    
C9    N10   S    
C65   N5    S    
C23   C76   S    
C174  C182  A    
C82   H20   S    
C119  C146  A    
C59   H97   S    
C81   N11   S    
O34   Zn4   S    
O11   Zn3   S    
O71   Zn11  S    
C70   C169  S    
C78   H6    S    
C179  O56   A    
C13   C57   A    
H111  N3    S    
C53   H73   S    
C118  C122  A    
C122  C127  A    
C56   N20   S    
O39   Zn8   S    
C99   H50   S    
C139  C143  A    
C56   H88   S    
C155  H1    S    
O17   Zn8   S    
C177  O45   A    
H48   N17   S    
C75   O54   D    
C79   C103  A    
C83   O58   D    
C93   C117  S    
C85   H23   S    
C62   N2    S    
C7    C11   A    
C81   H16   S    
C158  H68   S    
O9    Zn16  S    
C143  C148  A    
C188  N7    S    
C67   H131  S    
C54   H77   S    
C92   O66   D    
C24   C167  A    
C6    H13   S    
O30   Zn4   S    
C80   H11   S    
C116  C120  A    
C131  O11   A    
O25   Zn14  S    
C147  C151  A    
C13   C156  A    
C5    C9    A    
C34   C79   S    
H89   N21   S    
C97   H42   S    
H12   N11   S    
C63   N3    S    
C73   C172  S    
C121  N15   S    
C173  C183  A    
C109  C114  A    
H94   N22   S    
C89   H28   S    
O33   Zn14  S    
O1    Zn16  S    
H34   N14   S    
C156  H65   S    
O12   Zn6   S    
C36   C90   S    
C105  C109  A    
O46   Zn9   S    
C18   C22   A    
C107  C111  A    
C142  C147  A    
C148  C152  A    
C57   C100  A    
O56   Zn9   S    
C166  H112  S    
O42   Zn3   S    
C66   H128  S    
C53   H75   S    
C93   H31   S    
C28   C184  S    
C26   O72   A    
C154  C159  A    
C98   N16   S    
C94   C118  S    
O20   Zn10  S    
C62   H110  S    
C19   C180  S    
C7    C15   A    
C84   O59   D    
C29   C185  S    
C159  C163  A    
O5    Zn12  S    
C159  H79   S    
C30   O40   A    
C10   C11   A    
C30   O31   A    
C69   H135  S    
C63   H114  S    
C55   N19   S    
C62   H109  S    
C130  O10   A    
C157  H57   S    
C37   C100  S    
C74   O53   D    
C20   C181  S    
O72   Zn5   S    
C127  N22   S    
O12   Zn2   S    
C76   H144  S    
C71   H139  S    
C31   O32   A    
C88   H27   S    
C27   O28   A    
C33   O35   A    
C29   O30   A    
C34   O36   A    
C180  O25   A    
C70   H138  S    
C2    C145  A    
C112  C161  S    
C95   H33   S    
C101  C162  S    
H39   N15   S    
C132  O21   A    
C85   C109  S    
C101  O15   A    
C84   H22   S    
C20   C25   A    
C52   N1    S    
C182  C186  A    
C48   H61   S    
C123  O17   A    
C59   H95   S    
C51   C167  A    
O18   Zn1   S    
C164  C174  A    
C32   C113  S    
C88   O63   D    
C76   O55   D    
C13   C114  A    
C124  C128  A    
C99   H51   S    
C133  C138  A    
C39   H35   S    
C122  N16   S    
C134  H63   S    
O35   Zn15  S    
C36   O46   A    
C66   H126  S    
C54   N18   S    
C77   H3    S    
C72   C171  S    
C139  C161  A    
C93   O68   D    
C91   C154  S    
O23   Zn7   S    
C138  C142  A    
O12   Zn13  S    
H133  N8    S    
C47   C51   A    
C129  O9    A    
C173  C174  A    
O36   Zn5   S    
C137  N4    S    
C54   H80   S    
C103  N1    S    
C1    O5    A    
C136  N3    S    
C35   C39   A    
C97   N15   S    
C82   H18   S    
C183  C187  A    
C175  C185  A    
O31   Zn12  S    
C80   H10   S    
C94   H32   S    
C49   C145  A    
H85   N20   S    
C134  C178  A    
C92   H30   S    
C179  O24   A    
C45   H56   S    
C141  C163  A    
O1    Zn12  S    
C141  C146  A    
C40   H46   S    
C58   H92   S    
C126  C135  A    
C61   H105  S    
C32   O33   A    
C25   C77   S    
C123  O8    A    
C157  C161  A    
C104  C108  A    
C165  H101  S    
C186  N5    S    
C48   C134  A    
C165  C170  A    
C137  C141  A    
C80   N10   S    
C166  C176  A    
C140  C144  A    
C6    C10   A    
O23   Zn3   S    
O12   Zn9   S    
H72   N12   S    
C85   O60   D    
C72   H140  S    
C61   H104  S    
C36   O37   A    
C42   H53   S    
C32   O42   A    
C60   H99   S    
C96   H37   S    
C51   H60   S    
C41   C57   A    
C16   C19   A    
C52   H69   S    
C84   C108  S    
H107  N2    S    
C24   C68   A    
C99   H49   S    
C99   N17   S    
C168  C172  A    
C61   N24   S    
C1    C163  S    
C181  O26   A    
C125  N20   S    
H125  N6    S    
C55   H84   S    
O34   Zn8   S    
C140  C162  A    
C110  C115  A    
C47   H58   S    
C44   C49   A    
C130  O19   A    
C63   H115  S    
C66   N6    S    
C169  C170  A    
C11   N13   S    
C19   C23   A    
C4    C8    A    
C72   O51   D    
C3    C188  A    
C81   H15   S    
C86   O61   D    
C119  C124  A    
C2    C46   A    
C67   N7    S    
C73   H141  S    
O7    Zn14  S    
C38   O48   A    
C100  C105  A    
C54   H78   S    
C96   N14   S    
C78   N9    S    
C117  C143  A    
C5    H2    S    
C118  C144  A    
C65   H122  S    
O48   Zn11  S    
C2    C113  A    
O67   Zn10  S    
C131  O20   A    
C165  C173  A    
C15   C16   A    
C123  C160  S    
C153  C158  A    
C35   C79   A    
C101  O6    A    
C64   H119  S    
C117  C121  A    
O1    Zn1   S    
C87   H26   S    
C97   H41   S    
C98   H47   S    
C50   C156  A    
C8    C9    A    
C96   H36   S    
C46   C90   A    
C111  C178  A    
H8    N10   S    
C43   C48   A    
C27   O2    A    
C42   C47   A    
O14   Zn5   S    
H67   N1    S    
C166  C171  A    
C69   N8    S    
C87   C151  S    
C4    H134  S    
C88   C152  S    
H17   N13   S    
C164  C169  A    
O43   Zn4   S    
O38   Zn7   S    
C82   H19   S    
C26   O27   A    
O10   Zn2   S    
C95   O70   D    
O37   Zn6   S    
C130  C148  S    
C105  N18   S    
C59   N22   S    
C39   C43   A    
C52   H71   S    
C21   C74   S    
C53   H74   S    
C184  C188  A    
C128  C137  A    
C144  C149  A    
C64   H117  S    
C89   C153  S    
C40   C44   A    
C56   H87   S    
C55   H82   S    
C33   O43   A    
C34   O44   A    
C82   N13   S    
O13   Zn4   S    
C12   C14   A    
C18   C179  S    
C63   H113  S    
C37   O47   A    
O41   Zn2   S    
O2    Zn6   S    
C116  C142  A    
C71   O50   D    
C74   H142  S    
H103  N24   S    
C132  O13   A    
C104  N12   S    
C106  C110  A    
C125  C133  A    
C75   H143  S    
C67   H132  S    
C155  C160  A    
O34   Zn15  S    
O29   Zn3   S    
O6    Zn13  S    
C65   H124  S    
O32   Zn13  S    
C187  N6    S    
C89   O64   D    
O28   Zn2   S    
C133  N24   S    
H43   N16   S    
O23   Zn14  S    
C98   H45   S    
C86   H25   S    
C121  C126  A    
C38   C102  S    
C70   O49   D    
C135  N2    S    
C83   C107  S    
C102  C106  A    
C78   H7    S    
C23   C25   A    
C180  O67   A    
H120  N5    S    
O15   Zn6   S    
C158  C162  A    
C29   O4    A    
C24   C115  A    
C150  C154  A    
O16   Zn7   S    
C12   C18   A    
C167  H66   S    
C181  O71   A    
C50   H59   S    
C44   H55   S    
