data_mof_unit_24399.cif
_audit_creation_date              2012-12-10T16:50:13-0500
_audit_creation_method            fapswitch 2.2
_symmetry_space_group_name_H-M    P1
_symmetry_Int_Tables_number       1
_space_group_crystal_system       triclinic
_cell_length_a                    23.49564
_cell_length_b                    8.682433
_cell_length_c                    7.41738
_cell_angle_alpha                 103.01463
_cell_angle_beta                  94.064383
_cell_angle_gamma                 92.356961
_cell_volume                      1468.02492389

loop_
_atom_site_label
_atom_site_type_symbol
_atom_type_description
_atom_site_fract_x
_atom_site_fract_y
_atom_site_fract_z
_atom_type_partial_charge
C1    C     C_R   0.498225 0.199556 0.453141 0.880124
C2    C     C_R   0.501701 0.800438 0.546863 0.899446
C3    C     C_R   0.243833 0.604202 0.643677 -0.181617
C4    C     C_R   0.757010 0.403249 0.356154 -0.188681
C5    C     C_R   0.303322 0.602232 0.646727 0.174548
C6    C     C_R   0.697466 0.405117 0.349474 0.147828
C7    C     C_R   0.328471 0.493455 0.507749 -0.175639
C8    C     C_R   0.671584 0.506854 0.493005 -0.125590
C9    C     C_R   0.293100 0.381269 0.373087 0.087662
C10   C     C_R   0.706055 0.612376 0.635873 0.079926
C11   C     C_R   0.233601 0.381712 0.375662 0.215508
C12   C     C_R   0.765860 0.613023 0.637478 0.148954
C13   C     C_R   0.209060 0.495707 0.509174 0.221721
C14   C     C_R   0.791175 0.505497 0.498896 0.256181
C15   C     C_2   0.497259 0.031694 0.426653 -0.373675
C16   C     C_2   0.502573 0.968292 0.573350 -0.368603
C17   C     C_R   0.391009 0.497686 0.502414 0.835568
C18   C     C_R   0.608996 0.501726 0.497445 0.873177
C19   C     C_R   0.879244 0.564674 0.372134 0.548769
C20   C     C_R   0.121209 0.439678 0.638956 0.551186
C21   C     C_R   0.881766 0.436853 0.626208 0.529213
C22   C     C_R   0.118571 0.564751 0.382558 0.529834
C23   C     C_R   0.941538 0.437514 0.633193 -0.017966
C24   C     C_R   0.058850 0.565510 0.376785 -0.019005
C25   C     C_R   0.970172 0.501609 0.503780 -0.019284
C26   C     C_R   0.030249 0.502233 0.506911 -0.018992
C27   C     C_R   0.938861 0.564646 0.370876 -0.017618
C28   C     C_R   0.061579 0.439573 0.640141 -0.019074
C29   C     C_R   0.973194 0.376098 0.766051 -0.173595
C30   C     C_R   0.027201 0.627123 0.244103 -0.173274
C31   C     C_R   0.032646 0.377485 0.769800 -0.168520
C32   C     C_R   0.967783 0.626660 0.241139 -0.168931
Cu1   Cu    Cu3+1 0.506340 0.517380 0.684380 0.957232
Cu2   Cu    Cu3+1 0.493660 0.482620 0.315620 0.942347
H1    H     H_    0.952184 0.327299 0.867880 0.190987
H2    H     H_    0.048190 0.675462 0.141888 0.191702
H3    H     H_    0.055793 0.329507 0.874236 0.186734
H4    H     H_    0.944641 0.674848 0.136874 0.186454
H5    H     H_    0.224401 0.690100 0.747207 0.172388
H6    H     H_    0.776991 0.322666 0.248686 0.170645
H7    H     H_    0.492181 0.959953 0.285302 0.179050
H8    H     H_    0.507637 0.040033 0.714700 0.179227
H9    H     H_    0.455163 0.378746 0.948393 0.218980
H10   H     H_    0.544775 0.621415 0.051645 0.224755
N1    N     N_R   0.852124 0.502432 0.499342 -0.456863
N2    N     N_R   0.148226 0.500378 0.510445 -0.459422
N3    N     N_2   0.484110 0.456420 0.038520 -0.221183
N4    N     N_2   0.515890 0.543580 0.961480 -0.216337
O1    O     O_R   0.504120 0.286130 0.619770 -0.591629
O2    O     O_R   0.495880 0.713870 0.380230 -0.590244
O3    O     O_R   0.493410 0.256770 0.308360 -0.582813
O4    O     O_R   0.506590 0.743230 0.691640 -0.574453
O5    O     O_R   0.423230 0.514630 0.655730 -0.561974
O6    O     O_R   0.576770 0.485370 0.344270 -0.570172
O7    O     O_R   0.412530 0.485280 0.344320 -0.604041
O8    O     O_R   0.587470 0.514720 0.655680 -0.569735
O9    O     O_2   0.848569 0.627182 0.248230 -0.541354
O10   O     O_2   0.151983 0.378637 0.763979 -0.531624
O11   O     O_2   0.853397 0.371024 0.744729 -0.542413
O12   O     O_2   0.146887 0.627547 0.261479 -0.534722
N5    N     N_2   0.337647 0.714179 0.785701 -0.421099
H11   H     H_    0.324832 0.828240 0.799988 0.253337
C33   C     C_3   0.344448 0.670714 0.963003 -0.568226
H12   H     H_    0.302903 0.672568 0.026255 0.223405
H13   H     H_    0.375572 0.756387 0.058355 0.219473
H14   H     H_    0.360892 0.550576 0.946168 0.233105
N6    N     N_2   0.663860 0.300120 0.201735 -0.422582
H15   H     H_    0.676858 0.185724 0.177549 0.249462
C34   C     C_3   0.657895 0.356442 0.032283 -0.571269
H16   H     H_    0.699822 0.360368 0.972232 0.221043
H17   H     H_    0.641210 0.476664 0.059418 0.235472
H18   H     H_    0.627307 0.275212 0.929545 0.222634
N7    N     N_3   0.316540 0.262284 0.235729 -0.537239
H19   H     H_    0.346684 0.203472 0.301518 0.208732
H20   H     H_    0.336437 0.316788 0.142879 0.236253
N8    N     N_3   0.680048 0.721805 0.776845 -0.572950
H21   H     H_    0.694243 0.702237 0.906208 0.244878
H22   H     H_    0.693835 0.836842 0.772409 0.238506
N9    N     N_3   0.198530 0.263972 0.242781 -0.524857
H23   H     H_    0.172170 0.203145 0.314630 0.223180
H24   H     H_    0.172638 0.320560 0.160498 0.261892
N10   N     N_3   0.800227 0.726122 0.778073 -0.580253
H25   H     H_    0.825257 0.665574 0.858004 0.275507
H26   H     H_    0.827381 0.791002 0.713077 0.230495

loop_
_geom_bond_atom_site_label_1
_geom_bond_atom_site_label_2
_ccdc_geom_bond_type
C33   H13   S    
C16   H8    S    
N7    H19   S    
C19   O9    S    
Cu1   O4    S    
Cu2   O3    S    
C23   C29   A    
C24   C26   A    
C21   O11   S    
C22   O12   S    
C13   N2    S    
Cu1   O1    S    
C15   C16   D    
C34   H17   S    
N5    C33   S    
C2    O2    A    
C10   N8    S    
C4    H6    S    
C7    C17   S    
C1    C15   S    
C32   H4    S    
C2    C16   S    
C17   O7    A    
C3    C13   A    
C18   O8    A    
Cu1   O8    S    
C33   H14   S    
C3    H5    S    
Cu2   O7    S    
N7    H20   S    
C34   H16   S    
C11   N9    S    
C9    N7    S    
C10   C12   A    
C14   N1    S    
C21   N1    A    
Cu1   O5    S    
Cu2   O2    S    
C12   N10   S    
N6    H15   S    
N8    H21   S    
C15   H7    S    
C4    C6    A    
C5    C7    A    
C6    C8    A    
C20   C28   A    
C25   C26   A    
C8    C18   S    
N9    H23   S    
N6    C34   S    
C34   H18   S    
C1    O3    A    
N3    N4    D    
Cu1   Cu2   S    
C5    N5    S    
C9    C11   A    
C2    O4    A    
C6    N6    S    
C22   N2    A    
C12   C14   A    
Cu2   O6    S    
N10   H26   S    
C21   C23   A    
C22   C24   A    
C20   O10   S    
C17   O5    A    
C19   C27   A    
N9    H24   S    
C7    C9    A    
C27   C32   A    
C28   C31   A    
N8    H22   S    
C3    C5    A    
C19   N1    A    
C25   C27   A    
C29   H1    S    
C26   C28   A    
C30   H2    S    
C29   C31   A    
C30   C32   A    
C11   C13   A    
C1    O1    A    
C23   C25   A    
C4    C14   A    
N5    H11   S    
C24   C30   A    
C18   O6    A    
C33   H12   S    
C31   H3    S    
C8    C10   A    
N10   H25   S    
Cu1   N4    S    
Cu2   N3    S    
H9    N3    S    
C20   N2    A    
H10   N4    S    
