data_mof_unit_20511.cif
_audit_creation_date              2012-10-26T21:02:26-0400
_audit_creation_method            fapswitch 2.2
_symmetry_space_group_name_H-M    P1
_symmetry_Int_Tables_number       1
_space_group_crystal_system       triclinic
_cell_length_a                    12.388961
_cell_length_b                    13.061613
_cell_length_c                    14.962123
_cell_angle_alpha                 78.266056
_cell_angle_beta                  100.022601
_cell_angle_gamma                 116.609409
_cell_volume                      2109.94619516

loop_
_atom_site_label
_atom_site_type_symbol
_atom_type_description
_atom_site_fract_x
_atom_site_fract_y
_atom_site_fract_z
_atom_type_partial_charge
C1    C     C_R   0.855541 0.286697 0.504972 0.586548
C2    C     C_R   0.923573 0.390838 0.820199 0.242991
C3    C     C_R   0.991746 0.495111 0.766849 -0.008127
C4    C     C_R   0.997393 0.498113 0.670590 0.557569
C5    C     C_R   0.054353 0.597765 0.804435 -0.181247
C6    C     C_R   0.276858 0.041054 0.449448 -0.118440
C7    C     C_R   0.228772 0.837222 0.482353 -0.016421
C8    C     C_R   0.818341 0.081889 0.547582 -0.209188
C9    C     C_R   0.739320 0.967491 0.571805 -0.117583
C10   C     C_R   0.614488 0.932191 0.557679 0.294876
C11   C     C_R   0.566454 0.009386 0.504452 -0.015639
C12   C     C_R   0.051482 0.595515 0.084819 -0.044340
C13   C     C_R   0.648640 0.124449 0.472978 -0.007994
C14   C     C_R   0.440139 0.979287 0.484742 -0.015858
C15   C     C_R   0.399748 0.066706 0.452456 -0.046413
C16   C     C_R   0.144868 0.713888 0.488945 0.534226
C17   C     C_R   0.480689 0.175375 0.415264 -0.127044
C18   C     C_R   0.601498 0.197340 0.412755 0.288209
C19   C     C_R   0.352754 0.865218 0.491105 -0.168815
C20   C     C_R   0.190476 0.926347 0.468329 0.268472
C21   C     C_R   0.773959 0.162878 0.504031 -0.001760
C22   C     C_R   0.349450 0.335359 0.652542 0.235007
C23   C     C_R   0.848370 0.284875 0.062726 0.254841
C24   C     C_R   0.767428 0.653440 0.380938 0.404952
C25   C     C_R   0.690542 0.707721 0.373968 -0.159957
C26   C     C_R   0.587413 0.657598 0.423179 0.256199
C27   C     C_R   0.561383 0.549158 0.479729 0.009659
C28   C     C_R   0.998290 0.495195 0.330157 0.572707
C29   C     C_R   0.654174 0.508928 0.496717 0.083275
C30   C     C_R   0.451624 0.482999 0.525845 -0.033601
C31   C     C_R   0.448401 0.393306 0.598432 -0.057996
C32   C     C_R   0.542570 0.359533 0.614981 -0.165096
C33   C     C_R   0.643281 0.417245 0.566669 -0.107630
C34   C     C_R   0.850069 0.288079 0.968613 -0.135413
C35   C     C_R   0.340809 0.494604 0.499085 0.406969
C36   C     C_R   0.248145 0.360583 0.628688 0.385427
C37   C     C_R   0.053372 0.594408 0.178106 -0.195858
C38   C     C_R   0.997989 0.490422 0.234642 -0.024309
C39   C     C_R   0.937102 0.384910 0.198936 0.259977
C40   C     C_R   0.922539 0.386368 0.103002 0.036642
C41   C     C_R   0.986682 0.491699 0.046754 -0.043563
C42   C     C_3   0.517250 0.825146 0.684011 -0.005541
C43   C     C_3   0.426602 0.704338 0.721684 -0.251384
C44   C     C_3   0.392791 0.702233 0.815556 -0.496290
C45   C     C_R   0.920019 0.390028 0.913784 -0.022054
C46   C     C_3   0.623154 0.274344 0.261269 -0.076518
C47   C     C_3   0.166120 0.306618 0.767650 -0.062820
C48   C     C_3   0.430036 0.296733 0.799531 -0.158402
C49   C     C_3   0.977895 0.240560 0.295166 0.019312
C50   C     C_3   0.045581 0.226983 0.223965 -0.295355
C51   C     C_3   0.126888 0.167655 0.268303 -0.495476
C52   C     C_3   0.308920 0.489508 0.345011 -0.103932
C53   C     C_3   0.840901 0.728634 0.236467 0.002318
C54   C     C_3   0.754523 0.620459 0.191594 -0.275589
C55   C     C_3   0.745727 0.647989 0.087210 -0.491644
C56   C     C_R   0.986009 0.493659 0.952562 -0.040835
C57   C     C_3   0.509837 0.788409 0.345255 -0.084204
C58   C     C_3   0.751999 0.081898 0.100253 0.010135
C59   C     C_3   0.625140 0.012148 0.055924 -0.269861
C60   C     C_3   0.608865 0.892432 0.044521 -0.499502
C61   C     C_3   0.747820 0.257056 0.755232 -0.131802
C62   C     C_3   0.277932 0.891610 0.919082 -0.001062
C63   C     C_3   0.244740 0.984876 0.937540 -0.261646
C64   C     C_3   0.343624 0.065206 0.000087 -0.490289
C65   C     C_3   0.045477 0.941100 0.535220 0.001788
C66   C     C_3   0.022777 0.850254 0.621319 -0.252709
C67   C     C_R   0.052842 0.598891 0.897372 0.028595
C68   C     C_3   0.022581 0.899965 0.705170 -0.456737
C69   C     C_R   0.117760 0.703009 0.935517 0.272835
C70   C     C_R   0.112771 0.699853 0.029533 -0.122668
Cu1   Cu    Cu3+1 0.098270 0.475420 0.521130 1.027461
Cu2   Cu    Cu3+1 0.901730 0.524580 0.478870 1.038932
H1    H     H_    0.099691 0.674495 0.207524 0.115591
H2    H     H_    0.794055 0.210914 0.937986 0.140251
H3    H     H_    0.106134 0.676195 0.760767 0.145868
H4    H     H_    0.156675 0.778112 0.060894 0.098026
H5    H     H_    0.476572 0.886982 0.680018 0.129223
H6    H     H_    0.601852 0.851279 0.731638 0.130371
H7    H     H_    0.342947 0.676567 0.673481 0.193999
H8    H     H_    0.466496 0.641813 0.727477 0.166048
H9    H     H_    0.474580 0.727577 0.865649 0.139415
H10   H     H_    0.326612 0.613567 0.840517 0.148214
H11   H     H_    0.350543 0.762524 0.810631 0.172655
H12   H     H_    0.448287 0.239305 0.381050 0.103614
H13   H     H_    0.541515 0.291920 0.245454 0.072168
H14   H     H_    0.601543 0.186556 0.246553 0.150487
H15   H     H_    0.690515 0.338118 0.214301 0.168061
H16   H     H_    0.086223 0.306410 0.790918 0.179581
H17   H     H_    0.245485 0.387657 0.784990 0.075546
H18   H     H_    0.175539 0.228819 0.806740 0.137719
H19   H     H_    0.485435 0.392328 0.787311 0.102847
H20   H     H_    0.492799 0.254590 0.818386 0.121326
H21   H     H_    0.379799 0.277170 0.859872 0.114954
H22   H     H_    0.930695 0.154319 0.335721 0.152800
H23   H     H_    0.247851 0.109713 0.431333 0.100255
H24   H     H_    0.043319 0.296075 0.344833 0.146930
H25   H     H_    0.980016 0.174198 0.172933 0.173145
H26   H     H_    0.103102 0.313062 0.187732 0.139159
H27   H     H_    0.201886 0.224157 0.312944 0.125231
H28   H     H_    0.166866 0.152154 0.214357 0.144564
H29   H     H_    0.073974 0.083138 0.308827 0.184551
H30   H     H_    0.266882 0.522468 0.281128 0.133471
H31   H     H_    0.398374 0.500578 0.330009 0.087051
H32   H     H_    0.249720 0.396062 0.362421 0.086051
H33   H     H_    0.927943 0.767964 0.204753 0.152093
H34   H     H_    0.380094 0.796944 0.495987 0.240771
H35   H     H_    0.805741 0.795604 0.220353 0.095548
H36   H     H_    0.787696 0.552393 0.212000 0.201402
H37   H     H_    0.662399 0.585849 0.214465 0.133562
H38   H     H_    0.711479 0.715277 0.064030 0.143116
H39   H     H_    0.682105 0.568619 0.057111 0.143728
H40   H     H_    0.836034 0.678937 0.062160 0.158991
H41   H     H_    0.495756 0.744973 0.284578 0.090700
H42   H     H_    0.588528 0.874728 0.339577 0.108700
H43   H     H_    0.427977 0.802777 0.344237 0.147182
H44   H     H_    0.763382 0.034064 0.169017 0.150221
H45   H     H_    0.914124 0.108143 0.568449 0.155359
H46   H     H_    0.822781 0.086802 0.060484 0.098763
H47   H     H_    0.556347 0.002160 0.099807 0.161578
H48   H     H_    0.609828 0.058663 0.987617 0.146026
H49   H     H_    0.675804 0.900282 0.999848 0.144406
H50   H     H_    0.516351 0.843770 0.012196 0.135905
H51   H     H_    0.620834 0.843148 0.112392 0.133913
H52   H     H_    0.728427 0.235794 0.684435 0.132036
H53   H     H_    0.717292 0.324779 0.757563 0.092854
H54   H     H_    0.692461 0.176824 0.798925 0.107103
H55   H     H_    0.348765 0.933522 0.870221 0.143348
H56   H     H_    0.774531 0.906743 0.608252 0.130705
H57   H     H_    0.320939 0.856350 0.981517 0.116654
H58   H     H_    0.231531 0.036724 0.871407 0.182096
H59   H     H_    0.158152 0.944456 0.969868 0.160340
H60   H     H_    0.354721 0.015666 0.067995 0.139253
H61   H     H_    0.317947 0.132944 0.010419 0.134005
H62   H     H_    0.431078 0.107841 0.968854 0.144116
H63   H     H_    0.962200 0.955077 0.513125 0.142776
H64   H     H_    0.118388 0.026265 0.551221 0.129287
H65   H     H_    0.934242 0.775047 0.609681 0.178307
H66   H     H_    0.094989 0.819298 0.635399 0.163274
H67   H     H_    0.538031 0.285702 0.664951 0.142216
H68   H     H_    0.115155 0.965520 0.723922 0.191850
H69   H     H_    0.993617 0.829507 0.763844 0.186392
H70   H     H_    0.959407 0.941455 0.691518 0.133105
H71   H     H_    0.715702 0.792551 0.334362 0.090808
H72   H     H_    0.713315 0.389892 0.588493 0.178204
N1    N     N_R   0.246280 0.438190 0.553160 -0.264635
N2    N     N_R   0.754320 0.561190 0.447410 -0.230696
O1    O     O_R   0.972510 0.318130 0.526570 -0.476720
O2    O     O_3   0.673694 0.289035 0.352538 -0.523802
O3    O     O_3   0.143262 0.297908 0.672985 -0.514323
O4    O     O_3   0.347016 0.248686 0.724558 -0.579821
O5    O     O_3   0.888103 0.280698 0.256481 -0.526304
O6    O     O_3   0.320827 0.553372 0.414850 -0.486014
O7    O     O_3   0.868825 0.702682 0.332136 -0.496027
O8    O     O_3   0.523799 0.720582 0.429346 -0.492410
O9    O     O_3   0.762864 0.190684 0.113655 -0.542456
O10   O     O_3   0.872219 0.288523 0.782665 -0.582821
O11   O     O_3   0.175740 0.805368 0.876719 -0.605409
O12   O     O_R   0.806530 0.359650 0.490890 -0.482706
O13   O     O_3   0.068408 0.900980 0.462603 -0.542025
O14   O     O_R   0.082980 0.479210 0.647590 -0.476146
O15   O     O_R   0.917000 0.520730 0.611900 -0.543152
O16   O     O_R   0.193470 0.640350 0.509110 -0.502646
O17   O     O_R   0.027490 0.681870 0.473430 -0.413011
O18   O     O_R   0.083000 0.479270 0.388100 -0.491883
O19   O     O_R   0.917020 0.520790 0.352410 -0.445867
O20   O     O_3   0.542603 0.821468 0.596625 -0.552304

loop_
_geom_bond_atom_site_label_1
_geom_bond_atom_site_label_2
_ccdc_geom_bond_type
Cu1   O1    S    
C22   O4    S    
C52   H31   S    
C1    C21   S    
C59   H48   S    
Cu1   O16   S    
C48   O4    S    
C55   H40   S    
C27   C29   A    
Cu2   O19   S    
C66   C68   S    
C5    C67   A    
C44   H11   S    
C57   H43   S    
C4    O14   A    
C53   C54   S    
C53   O7    S    
Cu1   O14   S    
C52   H30   S    
C26   C27   A    
C62   C63   S    
C13   C18   A    
C62   H55   S    
C61   H52   S    
C1    O12   A    
C23   O9    S    
C69   C70   A    
C30   C31   A    
C11   C14   A    
C36   O3    S    
C43   H7    S    
C23   C40   A    
C39   O5    S    
C58   H46   S    
Cu2   O12   S    
C35   N1    A    
C63   H58   S    
C12   C37   A    
C12   C70   A    
C29   C33   A    
C6    C15   A    
C64   H61   S    
C46   O2    S    
C64   H60   S    
C45   C56   A    
C8    C9    A    
C20   O13   S    
C69   O11   S    
Cu2   O15   S    
C68   H70   S    
C61   H54   S    
C63   H59   S    
C49   H22   S    
C9    C10   A    
C65   O13   S    
C46   H13   S    
C2    O10   S    
C59   C60   S    
C2    C45   A    
C27   C30   A    
C58   H44   S    
C58   O9    S    
C47   H17   S    
C62   H57   S    
C25   H71   S    
C8    H45   S    
C50   C51   S    
C16   O17   A    
C51   H27   S    
C64   H62   S    
C50   H26   S    
C9    H56   S    
C48   H21   S    
C49   O5    S    
C47   O3    S    
C48   H20   S    
C24   C25   A    
C32   H67   S    
C44   H9    S    
Cu1   O18   S    
C33   H72   S    
C57   H41   S    
C16   O16   A    
C25   C26   A    
C48   H19   S    
C54   H37   S    
C67   C69   A    
C5    H3    S    
C60   H51   S    
C43   C44   S    
C41   C56   A    
C37   C38   A    
C53   H35   S    
C31   C32   A    
C66   H66   S    
C28   C38   S    
C52   O6    S    
C23   C34   A    
C22   C31   A    
C14   C15   A    
C17   C18   A    
C62   O11   S    
C13   C21   A    
C68   H69   S    
C6    H23   S    
C34   C45   A    
C60   H50   S    
C65   H63   S    
C28   O19   A    
C34   H2    S    
C30   C35   A    
C7    C16   S    
Cu1   N1    S    
C7    C20   A    
C7    C19   A    
C55   H38   S    
C70   H4    S    
C47   H18   S    
C1    O1    A    
C42   C43   S    
C3    C4    S    
C61   O10   S    
C29   N2    A    
C22   C36   A    
C24   O7    S    
C28   O18   A    
C12   C41   A    
C46   H15   S    
C51   H28   S    
C15   C17   A    
C37   H1    S    
C54   C55   S    
C40   C41   A    
C50   H25   S    
C59   H47   S    
C55   H39   S    
C68   H68   S    
C14   C19   A    
C3    C5    A    
C8    C21   A    
C42   H6    S    
C57   H42   S    
C10   O20   S    
C51   H29   S    
C56   C67   A    
C6    C20   A    
C57   O8    S    
C44   H10   S    
C54   H36   S    
C17   H12   S    
C47   H16   S    
C2    C3    A    
C43   H8    S    
Cu1   Cu2   S    
C24   N2    A    
C32   C33   A    
C11   C13   A    
C38   C39   A    
C66   H65   S    
Cu2   N2    S    
Cu2   O17   S    
C52   H32   S    
C65   C66   S    
C49   H24   S    
C60   H49   S    
C58   C59   S    
C65   H64   S    
C26   O8    S    
C10   C11   A    
C18   O2    S    
C63   C64   S    
C39   C40   A    
C19   H34   S    
C53   H33   S    
C36   N1    A    
C42   H5    S    
C49   C50   S    
C35   O6    S    
C4    O15   A    
C61   H53   S    
C42   O20   S    
C46   H14   S    
