data_mof_unit_24208.cif
_audit_creation_date              2012-12-11T15:31:33-0500
_audit_creation_method            fapswitch 2.2
_symmetry_space_group_name_H-M    P1
_symmetry_Int_Tables_number       1
_space_group_crystal_system       triclinic
_cell_length_a                    6.984005
_cell_length_b                    14.919268
_cell_length_c                    21.49928
_cell_angle_alpha                 73.327046
_cell_angle_beta                  89.663641
_cell_angle_gamma                 90.193041
_cell_volume                      2145.89728411

loop_
_atom_site_label
_atom_site_type_symbol
_atom_type_description
_atom_site_fract_x
_atom_site_fract_y
_atom_site_fract_z
_atom_type_partial_charge
O1    O     O_R   0.648150 0.130050 0.214300 -0.540722
O2    O     O_R   0.351850 0.869950 0.785700 -0.537426
O3    O     O_R   0.320490 0.006660 0.340150 -0.544022
O4    O     O_R   0.679510 0.993340 0.659850 -0.554678
O5    O     O_R   0.146100 0.869940 0.285700 -0.543822
O6    O     O_R   0.853900 0.130060 0.714300 -0.535540
C1    C     C_R   0.487265 0.000068 0.367232 0.672558
C2    C     C_R   0.511615 0.000911 0.632367 0.680323
O7    O     O_R   0.318690 0.137980 0.218120 -0.539971
O8    O     O_R   0.681310 0.862020 0.781880 -0.542232
O9    O     O_R   0.144280 0.002190 0.162800 -0.538590
O10   O     O_R   0.855720 0.997810 0.837200 -0.538550
C3    C     C_R   0.487670 0.176009 0.209768 0.685524
C4    C     C_R   0.512028 0.823788 0.791821 0.689110
O11   O     O_R   0.649960 0.997790 0.337200 -0.536171
O12   O     O_R   0.350040 0.002210 0.662800 -0.521803
O13   O     O_3   0.479300 0.955290 0.231990 -0.371828
O14   O     O_3   0.520700 0.044710 0.768010 -0.371856
V1    V     V_3+5 0.206040 0.008290 0.253340 1.412640
V2    V     V_3+5 0.793960 0.991710 0.746660 1.400928
O15   O     O_R   0.814320 0.993320 0.159850 -0.543334
O16   O     O_R   0.185680 0.006680 0.840150 -0.543663
C5    C     C_R   0.983413 0.998419 0.132844 0.669497
C6    C     C_R   0.016589 0.001569 0.867158 0.669049
O17   O     O_R   0.816120 0.862000 0.281880 -0.538290
O18   O     O_R   0.183880 0.138000 0.718120 -0.544351
C7    C     C_R   0.985879 0.823770 0.293063 0.709113
C8    C     C_R   0.016668 0.176629 0.707387 0.705856
V3    V     V_3+5 0.705540 0.991700 0.246660 1.413663
V4    V     V_3+5 0.294460 0.008300 0.753340 1.422908
O19   O     O_3   0.982150 0.044700 0.268010 -0.367639
O20   O     O_3   0.017850 0.955300 0.731990 -0.370677
C9    C     C_R   0.998793 0.721052 0.320801 -0.114024
C10   C     C_R   0.018755 0.280152 0.679401 -0.115970
C11   C     C_R   0.947958 0.563001 0.313515 0.431763
C12   C     C_R   0.979898 0.437842 0.689459 0.442061
C13   C     C_R   0.926221 0.660773 0.287560 -0.279609
C14   C     C_R   0.955408 0.339656 0.714910 -0.277552
C15   C     C_R   0.087654 0.682764 0.380825 -0.188167
C16   C     C_R   0.104658 0.320520 0.618623 -0.191780
C17   C     C_R   0.060431 0.587817 0.415754 0.020160
C18   C     C_R   0.075635 0.415819 0.584825 0.022870
C19   C     C_R   0.005270 0.526993 0.379203 0.004484
C20   C     C_R   0.029936 0.475757 0.622923 0.003442
C21   C     C_R   0.075454 0.551887 0.485476 -0.062895
C22   C     C_R   0.078004 0.452438 0.515010 -0.061857
C23   C     C_R   0.056603 0.393472 0.473773 0.402785
C24   C     C_R   0.064512 0.610873 0.527236 0.389000
C25   C     C_R   0.010921 0.430937 0.408434 -0.280761
C26   C     C_R   0.036735 0.572384 0.594171 -0.277028
H1    H     H_    0.980284 0.383229 0.380324 0.174279
H2    H     H_    0.018755 0.619593 0.623676 0.174417
H3    H     H_    0.188782 0.276196 0.597663 0.180589
H4    H     H_    0.174480 0.728038 0.399987 0.180977
H5    H     H_    0.898430 0.309711 0.763413 0.102143
H6    H     H_    0.861694 0.690136 0.240498 0.104560
C27   C     C_3   0.918979 0.921650 0.993236 -0.140723
C28   C     C_3   0.081036 0.078331 0.006765 -0.139386
C29   C     C_3   0.094573 0.925176 0.036366 -0.144481
C30   C     C_3   0.905441 0.074805 0.963635 -0.143169
H7    H     H_    0.172862 0.863377 0.066437 0.096587
H8    H     H_    0.827168 0.136602 0.933553 0.095498
H9    H     H_    0.851673 0.856958 0.987559 0.101919
H10   H     H_    0.148352 0.143020 0.012447 0.101401
C31   C     C_3   0.992525 0.998964 0.062078 -0.004029
C32   C     C_3   0.007487 0.001017 0.937924 -0.004104
C33   C     C_3   0.816648 0.995443 0.019634 -0.113903
C34   C     C_3   0.183365 0.004538 0.980368 -0.114337
H11   H     H_    0.664773 0.991620 0.035782 0.106657
H12   H     H_    0.335239 0.008355 0.964220 0.106578
C35   C     C_3   0.654552 0.039273 0.468672 0.513622
C36   C     C_3   0.338536 0.964552 0.529569 0.527450
C37   C     C_3   0.513555 0.091246 0.501935 -0.303397
C38   C     C_3   0.478557 0.912543 0.496356 -0.320898
H13   H     H_    0.521912 0.164717 0.503701 0.130012
H14   H     H_    0.460342 0.841268 0.491137 0.139145
C39   C     C_3   0.503495 0.002853 0.561316 -0.126330
C40   C     C_3   0.490383 0.000619 0.437331 -0.127733
C41   C     C_3   0.647262 0.951587 0.528274 -0.238959
C42   C     C_3   0.345843 0.051767 0.470128 -0.203494
H15   H     H_    0.771166 0.911831 0.553128 0.171515
H16   H     H_    0.219175 0.089438 0.446520 0.170874
C43   C     C_R   0.491494 0.278834 0.183345 -0.085287
C44   C     C_R   0.504870 0.720942 0.819575 -0.068781
C45   C     C_R   0.456084 0.436517 0.192097 -0.164476
C46   C     C_R   0.563095 0.562947 0.814572 -0.193510
C47   C     C_R   0.471546 0.340182 0.222597 0.085131
C48   C     C_R   0.548631 0.658429 0.782823 0.060704
C49   C     C_R   0.495638 0.314869 0.115910 -0.236745
C50   C     C_R   0.474107 0.685249 0.886806 -0.238619
C51   C     C_R   0.484559 0.411966 0.085051 0.078349
C52   C     C_R   0.492776 0.588438 0.919212 0.075812
C53   C     C_R   0.459443 0.472239 0.124497 0.088155
C54   C     C_R   0.535987 0.527984 0.881116 0.101809
C55   C     C_R   0.497749 0.450866 0.016403 0.071307
C56   C     C_R   0.476306 0.549692 0.988040 0.065975
C57   C     C_R   0.444968 0.606335 0.029618 -0.192492
C58   C     C_R   0.537604 0.394308 0.975424 -0.196176
C59   C     C_R   0.439273 0.568240 0.096471 -0.210242
C60   C     C_R   0.556237 0.432368 0.909282 -0.209125
H17   H     H_    0.418543 0.614620 0.126599 0.112795
H18   H     H_    0.589431 0.386228 0.879850 0.114642
H19   H     H_    0.442105 0.735645 0.912556 0.104371
H20   H     H_    0.502808 0.264122 0.089082 0.104433
H21   H     H_    0.443248 0.484941 0.220715 0.141631
H22   H     H_    0.603988 0.514981 0.787417 0.158483
H23   H     H_    0.428024 0.681035 0.012298 0.117048
H24   H     H_    0.561207 0.320124 0.992654 0.118239
O21   O     O_3   0.828929 0.072905 0.436442 -0.561330
C61   C     C_3   0.798482 0.156336 0.386120 0.093083
H25   H     H_    0.708159 0.206296 0.402145 0.095558
H26   H     H_    0.727994 0.142998 0.344155 0.144323
C62   C     C_3   0.988697 0.202184 0.361074 -0.754750
H27   H     H_    0.080450 0.153317 0.344051 0.245171
H28   H     H_    0.966733 0.265663 0.319775 0.180990
H29   H     H_    0.060787 0.222390 0.400522 0.231438
O22   O     O_3   0.164150 0.931159 0.561481 -0.565499
C63   C     C_3   0.193168 0.842609 0.606182 0.086074
H30   H     H_    0.313566 0.843959 0.639256 0.111042
H31   H     H_    0.223469 0.790240 0.579985 0.180255
C64   C     C_3   0.014719 0.811672 0.647784 -0.701332
H32   H     H_    0.915198 0.775143 0.623632 0.174238
H33   H     H_    0.052835 0.763377 0.695775 0.174891
H34   H     H_    0.938843 0.872502 0.655192 0.265558
C65   C     C_3   0.589966 0.688397 0.710881 -0.369279
C66   C     C_3   0.453885 0.639911 0.674197 -0.292004
C67   C     C_3   0.522856 0.653760 0.605057 -0.798674
H35   H     H_    0.538946 0.729249 0.580736 0.212670
H36   H     H_    0.661692 0.618120 0.605242 0.238537
H37   H     H_    0.419416 0.623305 0.577966 0.244790
H38   H     H_    0.443272 0.563399 0.697217 0.208792
H39   H     H_    0.307878 0.668090 0.674128 0.188302
H40   H     H_    0.581369 0.765367 0.689974 0.138247
H41   H     H_    0.739321 0.667510 0.704190 0.217852
C68   C     C_3   0.495827 0.305455 0.295474 -0.368155
C69   C     C_3   0.380333 0.356705 0.336194 -0.326660
C70   C     C_3   0.499125 0.427873 0.358578 -0.691023
H42   H     H_    0.624479 0.393061 0.386611 0.219581
H43   H     H_    0.548139 0.486316 0.317098 0.250374
H44   H     H_    0.411593 0.457784 0.390865 0.212850
H45   H     H_    0.251846 0.390627 0.309829 0.215342
H46   H     H_    0.331385 0.304057 0.381190 0.204686
H47   H     H_    0.453954 0.230537 0.312869 0.109676
H48   H     H_    0.650348 0.311508 0.304329 0.196802
O23   O     O_3   0.896858 0.500853 0.278745 -0.572553
C71   C     C_3   0.965995 0.530794 0.214030 0.067224
H49   H     H_    0.112237 0.562130 0.210863 0.111277
H50   H     H_    0.865897 0.582397 0.183277 0.130910
C72   C     C_3   0.976859 0.447368 0.186743 -0.694385
H51   H     H_    0.833468 0.416581 0.185801 0.232095
H52   H     H_    0.034676 0.469984 0.136408 0.192859
H53   H     H_    0.070127 0.392390 0.217155 0.217686
O24   O     O_3   0.940574 0.498255 0.726552 -0.573363
C73   C     C_3   0.034412 0.469177 0.787207 0.058144
H54   H     H_    0.177178 0.437352 0.783797 0.117209
H55   H     H_    0.942991 0.417951 0.822911 0.127122
C74   C     C_3   0.067811 0.553260 0.812544 -0.699839
H56   H     H_    0.931932 0.588517 0.817054 0.229560
H57   H     H_    0.134807 0.530149 0.861160 0.196048
H58   H     H_    0.162701 0.604633 0.778852 0.217265
O25   O     O_3   0.080778 0.298146 0.495692 -0.573113
C75   C     C_3   0.903482 0.254861 0.517418 0.001048
H59   H     H_    0.807150 0.261088 0.476160 0.128699
H60   H     H_    0.827112 0.286909 0.551245 0.132117
C76   C     C_3   0.940730 0.152719 0.552543 -0.575890
H61   H     H_    0.045528 0.144550 0.591962 0.195713
H62   H     H_    0.806052 0.119618 0.573714 0.183139
H63   H     H_    0.000674 0.116398 0.519069 0.259499
O26   O     O_3   0.084471 0.706835 0.504319 -0.573309
C77   C     C_3   0.903269 0.748257 0.488501 0.004278
H64   H     H_    0.825575 0.748788 0.532981 0.134198
H65   H     H_    0.813273 0.711065 0.460980 0.136602
C78   C     C_3   0.930143 0.849053 0.447378 -0.608803
H66   H     H_    0.035656 0.856009 0.407972 0.204460
H67   H     H_    0.791708 0.875843 0.425801 0.191972
H68   H     H_    0.982928 0.892828 0.477052 0.260086

loop_
_geom_bond_atom_site_label_1
_geom_bond_atom_site_label_2
_ccdc_geom_bond_type
C65   H41   S    
C43   C47   A    
C76   H61   S    
C37   H13   S    
O26   C77   S    
C32   C34   S    
C55   C56   A    
C4    C44   S    
C27   C32   S    
O4    C2    A    
V1    O19   S    
C63   H31   S    
C35   C41   S    
O25   C75   S    
C55   C58   A    
C72   H51   S    
C68   C69   S    
C23   C25   A    
C21   C22   A    
C7    C9    S    
C70   H43   S    
O9    V1    S    
C3    C43   S    
C74   H56   S    
C18   C20   A    
C10   C16   A    
C11   C13   A    
C62   H27   S    
O3    C1    A    
C72   H52   S    
O23   C71   S    
C40   C42   S    
C27   C29   S    
C15   H4    S    
C77   H64   S    
C28   C30   S    
C71   C72   S    
C16   C18   A    
C52   C56   A    
C36   C42   S    
C58   H24   S    
C30   H8    S    
C18   C22   A    
O7    C3    A    
C63   H30   S    
C64   H34   S    
C69   H46   S    
C46   C54   A    
C36   C39   S    
O13   V1    S    
O5    C7    A    
C13   H6    S    
C45   C53   A    
O7    V1    S    
O6    C8    A    
C14   H5    S    
C30   C33   S    
O8    V2    S    
C25   H1    S    
C36   O22   S    
C26   H2    S    
O3    V1    S    
O14   V4    S    
C66   H39   S    
C49   C51   A    
C11   C19   A    
C53   C59   A    
C71   H50   S    
C6    C32   S    
C62   H29   S    
C2    O12   A    
C24   C26   A    
C30   C32   S    
C76   H62   S    
C28   H10   S    
C17   C19   A    
C46   H22   S    
C44   C50   A    
C27   C33   S    
C45   H21   S    
O1    V3    S    
C57   C59   A    
C12   O24   S    
O11   V3    S    
C75   H60   S    
C45   C47   A    
O17   V3    S    
C43   C49   A    
C70   H44   S    
C29   H7    S    
C71   H49   S    
C46   C48   A    
C47   C68   S    
C73   C74   S    
C36   C38   S    
O8    C4    A    
C72   H53   S    
C41   H15   S    
C19   C25   A    
C1    O11   A    
C31   C33   S    
C78   H66   S    
O15   V3    S    
C9    C13   A    
C61   H25   S    
C33   H11   S    
C63   C64   S    
O4    V2    S    
C67   H36   S    
C69   H45   S    
C29   C34   S    
C51   C53   A    
C75   C76   S    
C28   C31   S    
C50   C52   A    
C20   C26   A    
C54   C60   A    
C65   H40   S    
C56   C57   A    
O10   V2    S    
C60   H18   S    
C73   H54   S    
C39   C41   S    
C9    C15   A    
C61   C62   S    
C64   H32   S    
C78   H67   S    
C38   H14   S    
C1    C40   S    
C42   H16   S    
C68   H48   S    
C59   H17   S    
O18   V4    S    
C76   H63   S    
C58   C60   A    
C38   C41   S    
O15   C5    A    
C49   H20   S    
C65   C66   S    
O16   C6    A    
C12   C20   A    
O1    C3    A    
C67   H35   S    
C35   C37   S    
C75   H59   S    
V2    O20   S    
C21   C24   A    
C28   C34   S    
C11   O23   S    
C22   C23   A    
C23   O25   S    
C37   C39   S    
O16   V4    S    
C10   C14   A    
C73   H55   S    
C44   C48   A    
C27   H9    S    
C69   C70   S    
O5    V1    S    
C74   H58   S    
O6    V2    S    
C70   H42   S    
O10   C6    A    
O18   C8    A    
O2    V4    S    
C5    C31   S    
C12   C14   A    
C67   H37   S    
V3    O19   S    
O13   V3    S    
C29   C31   S    
V4    O20   S    
C52   C54   A    
C2    C39   S    
C77   H65   S    
C66   H38   S    
C66   C67   S    
C35   O21   S    
O9    C5    A    
C68   H47   S    
C78   H68   S    
C37   C42   S    
O14   V2    S    
O2    C4    A    
C61   H26   S    
C50   H19   S    
C64   H33   S    
C48   C65   S    
C8    C10   S    
C24   O26   S    
C57   H23   S    
C15   C17   A    
C51   C55   A    
C74   H57   S    
C16   H3    S    
C38   C40   S    
O21   C61   S    
C34   H12   S    
C17   C21   A    
O24   C73   S    
O22   C63   S    
O12   V4    S    
C77   C78   S    
C35   C40   S    
C62   H28   S    
O17   C7    A    
