data_mof_unit_33586.cif
_audit_creation_date              2012-10-26T21:24:50-0400
_audit_creation_method            fapswitch 2.2
_symmetry_space_group_name_H-M    P1
_symmetry_Int_Tables_number       1
_space_group_crystal_system       triclinic
_cell_length_a                    9.541696
_cell_length_b                    10.821519
_cell_length_c                    15.421276
_cell_angle_alpha                 89.864142
_cell_angle_beta                  74.861406
_cell_angle_gamma                 90.053009
_cell_volume                      1537.06864654

loop_
_atom_site_label
_atom_site_type_symbol
_atom_type_description
_atom_site_fract_x
_atom_site_fract_y
_atom_site_fract_z
_atom_type_partial_charge
C1    C     C_R   0.999171 0.262318 0.501742 0.553803
C2    C     C_R   0.229120 0.557178 0.045062 0.045419
C3    C     C_R   0.325878 0.510128 0.092878 0.032351
C4    C     C_R   0.919011 0.500162 0.672631 0.552707
C5    C     C_R   0.083221 0.579802 0.089396 -0.144398
C6    C     C_R   0.032315 0.558166 0.181261 -0.141380
C7    C     C_R   0.269028 0.481999 0.184437 -0.134832
C8    C     C_R   0.120783 0.063747 0.511255 0.024874
C9    C     C_R   0.995091 0.129222 0.510718 0.009941
C10   C     C_R   0.863680 0.064240 0.522690 -0.159823
C11   C     C_R   0.863837 0.935401 0.522409 -0.161555
C12   C     C_R   0.674162 0.500568 0.908957 0.020622
C13   C     C_R   0.995397 0.870810 0.510179 0.006715
C14   C     C_R   0.120977 0.936566 0.510848 0.025795
C15   C     C_3   0.269178 0.930890 0.447784 -0.271169
C16   C     C_R   0.999363 0.737713 0.501435 0.546464
C17   C     C_3   0.269210 0.071177 0.448571 -0.267047
C18   C     C_R   0.591954 0.591895 0.457364 0.155865
C19   C     C_R   0.553545 0.416392 0.549248 -0.011326
C20   C     C_R   0.404612 0.416410 0.549281 -0.010869
C21   C     C_R   0.444513 0.591976 0.457337 0.157383
C22   C     C_3   0.480923 0.622858 0.359645 -0.273216
C23   C     C_R   0.773288 0.466220 0.958863 0.001724
C24   C     C_3   0.639569 0.622468 0.359917 -0.282923
C25   C     C_R   0.081254 0.500976 0.327755 0.543737
C26   C     C_R   0.875590 0.497018 0.772043 -0.006034
C27   C     C_R   0.125764 0.510662 0.229406 -0.002390
C28   C     C_R   0.920970 0.451435 0.916348 -0.085201
C29   C     C_R   0.974088 0.471068 0.824339 0.220016
C30   C     C_R   0.727873 0.512352 0.815261 -0.173421
C31   C     C_R   0.524742 0.519219 0.954106 0.040587
C32   C     C_R   0.475837 0.494946 0.048146 0.035745
C33   C     C_R   0.579336 0.460736 0.094956 -0.131714
C34   C     C_R   0.724884 0.447503 0.051062 -0.139845
C35   C     C_R   0.423466 0.564437 0.908993 -0.121441
C36   C     C_R   0.279080 0.583458 0.953912 -0.117434
Cu1   Cu    Cu3+1 0.140670 0.499980 0.500000 0.944508
Cu2   Cu    Cu3+1 0.859330 0.500020 0.500000 0.932493
H1    H     H_    0.800334 0.422167 0.089869 0.109984
H2    H     H_    0.332396 0.347309 0.587797 0.138671
H3    H     H_    0.453901 0.547321 0.318305 0.147535
H4    H     H_    0.333654 0.437800 0.223065 0.108085
H5    H     H_    0.441085 0.715648 0.346686 0.120201
H6    H     H_    0.701042 0.545856 0.319464 0.143701
H7    H     H_    0.691606 0.715027 0.347363 0.123606
H8    H     H_    0.921516 0.581959 0.214742 0.116091
H9    H     H_    0.206039 0.620246 0.916967 0.127283
H10   H     H_    0.996559 0.426135 0.955016 0.138739
H11   H     H_    0.655705 0.530010 0.773607 0.132882
H12   H     H_    0.009425 0.617675 0.053441 0.108720
H13   H     H_    0.552953 0.446545 0.166442 0.093733
H14   H     H_    0.452519 0.590465 0.839185 0.110373
H15   H     H_    0.153650 0.535394 0.751947 0.331829
H16   H     H_    0.762270 0.112259 0.527883 0.130001
H17   H     H_    0.762499 0.887136 0.527445 0.134859
H18   H     H_    0.350079 0.889797 0.479800 0.136997
H19   H     H_    0.268454 0.891347 0.381410 0.132921
H20   H     H_    0.349657 0.111071 0.481441 0.134534
H21   H     H_    0.269311 0.113011 0.382598 0.139443
H22   H     H_    0.593033 0.347203 0.587725 0.119870
N1    N     N_R   0.648210 0.500930 0.499430 -0.231843
N2    N     N_R   0.352300 0.500890 0.499430 -0.235314
O1    O     O_R   0.118810 0.319640 0.500000 -0.501207
O2    O     O_R   0.881230 0.319680 0.499990 -0.510887
O3    O     O_R   0.055580 0.499970 0.629840 -0.484350
O4    O     O_R   0.818000 0.500010 0.629830 -0.510882
O5    O     O_R   0.118770 0.680320 0.500010 -0.498269
O6    O     O_R   0.881190 0.680360 0.500000 -0.506136
O7    O     O_R   0.182000 0.499990 0.370170 -0.509761
O8    O     O_R   0.944420 0.500030 0.370160 -0.501597
O9    O     O_3   0.121323 0.459865 0.788058 -0.704545

loop_
_geom_bond_atom_site_label_1
_geom_bond_atom_site_label_2
_ccdc_geom_bond_type
C4    C26   S    
Cu2   O8    S    
C18   N1    A    
C23   C28   A    
Cu1   Cu2   S    
C16   O6    A    
Cu1   O7    S    
C19   H22   S    
C25   C27   S    
C18   C21   A    
C11   C13   A    
C9    C10   A    
C3    C7    A    
C8    C17   S    
C14   C15   S    
C20   H2    S    
C17   H20   S    
C23   C34   A    
C1    C9    S    
C15   H18   S    
Cu2   N1    S    
C19   C20   A    
C33   C34   A    
C11   H17   S    
C16   O5    A    
C13   C14   A    
C32   C33   A    
C4    O4    A    
C15   H19   S    
C12   C23   A    
C6    H8    S    
C21   N2    A    
C3    C32   A    
C35   C36   A    
C17   H21   S    
C18   C24   S    
C24   H7    S    
Cu1   O5    S    
C22   C24   S    
Cu1   O3    S    
C28   C29   A    
Cu1   O1    S    
C30   H11   S    
C19   N1    A    
C26   C30   A    
Cu2   O2    S    
C12   C31   A    
C20   N2    A    
C5    C6    A    
C24   H6    S    
C31   C35   A    
C5    H12   S    
C13   C16   S    
C2    C5    A    
C25   O7    A    
C10   C11   A    
C10   H16   S    
C34   H1    S    
C22   H3    S    
C1    O2    A    
Cu2   O4    S    
C7    C27   A    
C36   H9    S    
C7    H4    S    
C2    C36   A    
C35   H14   S    
C15   C17   S    
Cu1   N2    S    
C4    O3    A    
C1    O1    A    
C2    C3    A    
C25   O8    A    
C8    C14   A    
C26   C29   A    
C12   C30   A    
C21   C22   S    
C31   C32   A    
C28   H10   S    
C33   H13   S    
C6    C27   A    
Cu2   O6    S    
C8    C9    A    
C29   O9    S    
C22   H5    S    
H15   O9    S    
