data_mof_unit_37857.cif
_audit_creation_date              2012-10-26T20:08:15-0400
_audit_creation_method            fapswitch 2.2
_symmetry_space_group_name_H-M    P1
_symmetry_Int_Tables_number       1
_space_group_crystal_system       triclinic
_cell_length_a                    10.890217
_cell_length_b                    10.823577
_cell_length_c                    9.551378
_cell_angle_alpha                 90.058385
_cell_angle_beta                  90.892694
_cell_angle_gamma                 90.60035
_cell_volume                      1125.63222604

loop_
_atom_site_label
_atom_site_type_symbol
_atom_type_description
_atom_site_fract_x
_atom_site_fract_y
_atom_site_fract_z
_atom_type_partial_charge
C1    C     C_R   0.500065 0.262187 0.499922 0.548656
C2    C     C_R   0.503742 0.064085 0.627229 -0.127482
C3    C     C_R   0.499847 0.871716 0.500075 0.009469
C4    C     C_R   0.500153 0.128284 0.499925 0.009469
C5    C     C_R   0.458637 0.399506 0.073317 0.019657
C6    C     C_R   0.541363 0.600494 0.926683 0.019657
C7    C     C_R   0.458796 0.399485 0.924942 0.013042
C8    C     C_R   0.541204 0.600515 0.075058 0.013042
C9    C     C_R   0.262252 0.501638 0.498578 0.548972
C10   C     C_R   0.737748 0.498362 0.501422 0.548972
C11   C     C_R   0.213034 0.690599 0.073192 0.009258
C12   C     C_R   0.499934 0.737813 0.500078 0.548656
C13   C     C_R   0.786968 0.309399 0.926808 0.009258
C14   C     C_R   0.161231 0.668388 0.204295 -0.070750
C15   C     C_R   0.838770 0.331611 0.795704 -0.070751
C16   C     C_R   0.113633 0.550838 0.235870 0.040818
C17   C     C_R   0.886367 0.449161 0.764130 0.040818
C18   C     C_R   0.118181 0.455988 0.136350 -0.081554
C19   C     C_R   0.881818 0.544010 0.863650 -0.081553
C20   C     C_R   0.170276 0.478088 0.006371 -0.128608
C21   C     C_R   0.829723 0.521910 0.993629 -0.128608
C22   C     C_R   0.216521 0.595455 0.973865 -0.109191
C23   C     C_R   0.871716 0.497348 0.503874 -0.002551
C24   C     C_R   0.783480 0.404543 0.026135 -0.109191
C25   C     C_R   0.931781 0.522467 0.378805 -0.152338
C26   C     C_R   0.068219 0.477533 0.621195 -0.152338
C27   C     C_1   0.264453 0.810195 0.041387 0.168255
C28   C     C_1   0.735551 0.189802 0.958613 0.168256
C29   C     C_R   0.128284 0.502651 0.496126 -0.002551
C30   C     C_R   0.941233 0.474258 0.626933 -0.031237
C31   C     C_R   0.058767 0.525741 0.373066 -0.031237
C32   C     C_R   0.496482 0.063698 0.372692 -0.124780
C33   C     C_R   0.503518 0.936302 0.627308 -0.124780
C34   C     C_R   0.496259 0.935915 0.372771 -0.127482
Cu1   Cu    Cu3+1 0.500000 0.500020 0.640660 0.938394
Cu2   Cu    Cu3+1 0.500000 0.499980 0.359340 0.938394
H1    H     H_    0.256669 0.611559 0.872423 0.143170
H2    H     H_    0.823618 0.596920 0.067800 0.104505
H3    H     H_    0.879589 0.541516 0.284670 0.129679
H4    H     H_    0.120411 0.458484 0.715330 0.129679
H5    H     H_    0.493645 0.111568 0.273163 0.145502
H6    H     H_    0.506356 0.888432 0.726837 0.145502
H7    H     H_    0.493203 0.887723 0.273299 0.147756
H8    H     H_    0.506797 0.112277 0.726701 0.147756
H9    H     H_    0.423984 0.319170 0.127604 0.118671
H10   H     H_    0.576016 0.680830 0.872396 0.118671
H11   H     H_    0.743332 0.388438 0.127576 0.143170
H12   H     H_    0.424286 0.319104 0.869211 0.115447
H13   H     H_    0.575714 0.680896 0.130789 0.115448
H14   H     H_    0.158520 0.741570 0.281743 0.106626
H15   H     H_    0.841483 0.258429 0.718257 0.106626
H16   H     H_    0.082404 0.364749 0.160079 0.116381
H17   H     H_    0.917594 0.635249 0.839921 0.116381
H18   H     H_    0.176380 0.403077 0.932199 0.104504
N1    N     N_R   0.500030 0.500030 0.852070 -0.231432
N2    N     N_R   0.499970 0.499970 0.147930 -0.231432
N3    N     N_1   0.306019 0.906241 0.015808 -0.330704
N4    N     N_1   0.693986 0.093756 0.984192 -0.330703
O1    O     O_R   0.499990 0.319660 0.618740 -0.514362
O2    O     O_R   0.500010 0.680340 0.381260 -0.514362
O3    O     O_R   0.499990 0.319630 0.381170 -0.516309
O4    O     O_R   0.500010 0.680370 0.618830 -0.516309
O5    O     O_R   0.319650 0.500020 0.618780 -0.519513
O6    O     O_R   0.680350 0.499980 0.381220 -0.519512
O7    O     O_R   0.319640 0.500000 0.381210 -0.483451
O8    O     O_R   0.680360 0.500000 0.618790 -0.483451

loop_
_geom_bond_atom_site_label_1
_geom_bond_atom_site_label_2
_ccdc_geom_bond_type
C5    N2    A    
C25   C31   A    
C2    C4    A    
C32   H5    S    
C5    C7    A    
C13   C28   S    
Cu2   N2    S    
C15   H15   S    
C10   C23   S    
C12   O4    A    
C11   C22   A    
Cu1   Cu2   S    
C3    C34   A    
C13   C15   A    
C11   C27   S    
C6    N1    A    
C1    C4    S    
C7    H12   S    
C19   H17   S    
C9    O7    A    
C10   O8    A    
C18   H16   S    
C29   C31   A    
C16   C18   A    
C14   H14   S    
C25   H3    S    
C16   C31   S    
C28   N4    T    
C9    C29   S    
C22   H1    S    
C26   H4    S    
C4    C32   A    
C17   C30   S    
C7    N1    A    
C8    H13   S    
C2    C33   A    
Cu1   O1    S    
C17   C19   A    
C1    O1    A    
C20   C22   A    
C26   C30   A    
Cu1   O4    S    
C18   C20   A    
C23   C25   A    
C11   C14   A    
C14   C16   A    
C3    C33   A    
Cu1   N1    S    
Cu2   O3    S    
C12   O2    A    
C23   C30   A    
C26   C29   A    
C20   H18   S    
C27   N3    T    
C21   C24   A    
C15   C17   A    
C33   H6    S    
C8    N2    A    
Cu2   O7    S    
C21   H2    S    
C6    C8    A    
C3    C12   S    
C6    H10   S    
Cu1   O8    S    
C19   C21   A    
C32   C34   A    
Cu2   O6    S    
C24   H11   S    
C5    H9    S    
Cu1   O5    S    
C10   O6    A    
C34   H7    S    
C13   C24   A    
C2    H8    S    
C9    O5    A    
Cu2   O2    S    
C1    O3    A    
