data_mof_unit_23876.cif
_audit_creation_date              2013-03-05T15:49:44-0500
_audit_creation_method            fapswitch 2.2
_symmetry_space_group_name_H-M    P1
_symmetry_Int_Tables_number       1
_space_group_crystal_system       triclinic
_cell_length_a                    13.524648
_cell_length_b                    13.544761
_cell_length_c                    27.582364
_cell_angle_alpha                 90.506974
_cell_angle_beta                  89.728662
_cell_angle_gamma                 60.011669
_cell_volume                      4375.91830424

loop_
_atom_site_label
_atom_site_type_symbol
_atom_site_description
_atom_site_fract_x
_atom_site_fract_y
_atom_site_fract_z
_atom_type_partial_charge
O1    O     O_R   0.301780 0.195490 0.553940 -0.494031
O2    O     O_R   0.522450 0.158840 0.550250 -0.486747
C1    C     C_R   0.619941 0.101213 0.569744 0.537184
O3    O     O_R   0.694460 0.003360 0.553820 -0.519325
O4    O     O_R   0.657750 0.819520 0.549120 -0.506329
C2    C     C_R   0.598409 0.781767 0.569118 0.546561
O5    O     O_R   0.501990 0.803120 0.552700 -0.498536
O6    O     O_R   0.318230 0.023430 0.549370 -0.509921
C3    C     C_R   0.278772 0.121039 0.569786 0.532118
O7    O     O_R   0.302950 0.194150 0.446980 -0.517752
O8    O     O_R   0.523540 0.157600 0.451100 -0.516488
C4    C     C_R   0.622367 0.100213 0.431562 0.573969
O9    O     O_R   0.695630 0.002030 0.446860 -0.425542
O10   O     O_R   0.658840 0.818280 0.449970 -0.464824
C5    C     C_R   0.602494 0.776783 0.430346 0.605638
O11   O     O_R   0.503160 0.801780 0.445740 -0.445454
O12   O     O_R   0.319320 0.022190 0.450230 -0.463642
C6    C     C_R   0.279942 0.119496 0.430877 0.557192
Cr1   Cr    Cr6+3 0.417550 0.169090 0.500530 1.052505
Cr2   Cr    Cr6+3 0.669180 0.913420 0.499920 1.064291
Cr3   Cr    Cr6+3 0.413260 0.917540 0.499520 1.067266
O13   O     O_3   0.499990 0.000010 0.499990 -0.273867
C7    C     C_3   0.739597 0.593989 0.736819 -0.084449
C8    C     C_3   0.775250 0.657206 0.773548 -0.092913
H1    H     H_    0.863887 0.628932 0.785119 0.128449
H2    H     H_    0.800081 0.517516 0.715557 0.132016
H3    H     H_    0.719441 0.835165 0.739090 0.139096
C9    C     C_1   0.695777 0.614872 0.900149 -0.014073
C10   C     C_1   0.626134 0.743262 0.618042 -0.012385
C11   C     C_3   0.641555 0.611164 0.771294 -0.114820
C12   C     C_3   0.676744 0.674970 0.807329 0.033722
C13   C     C_3   0.559968 0.725524 0.747070 -0.110023
C14   C     C_3   0.658200 0.707699 0.713160 0.038522
C15   C     C_3   0.595489 0.789271 0.783707 -0.072212
C16   C     C_3   0.693925 0.771797 0.748918 -0.083357
C17   C     C_1   0.686060 0.647818 0.859044 -0.062558
C18   C     C_1   0.643513 0.723785 0.660660 -0.065641
H4    H     H_    0.536263 0.869135 0.803601 0.153264
H5    H     H_    0.471517 0.752759 0.735584 0.099981
H6    H     H_    0.620466 0.545300 0.781946 0.122279
C19   C     C_3   0.076908 0.163580 0.739210 -0.117541
C20   C     C_3   0.153584 0.070622 0.776301 -0.157712
H7    H     H_    0.139861 0.001221 0.789587 0.127427
H8    H     H_    0.002374 0.167178 0.721075 0.107788
H9    H     H_    0.333701 0.966354 0.740030 0.116668
C21   C     C_1   0.107177 0.194618 0.902668 -0.015577
C22   C     C_1   0.232703 0.135024 0.618105 -0.005057
C23   C     C_3   0.080824 0.254117 0.772171 0.304357
C24   C     C_3   0.157791 0.162231 0.808587 -0.010475
C25   C     C_3   0.188180 0.236708 0.745656 0.340812
C26   C     C_3   0.185491 0.146032 0.713002 0.027088
C27   C     C_3   0.266141 0.144603 0.781920 -0.112745
C28   C     C_3   0.262246 0.052622 0.749077 -0.147022
C29   C     C_1   0.138164 0.173587 0.861037 -0.059002
C30   C     C_1   0.206561 0.140875 0.660411 -0.023722
H10   H     H_    0.342400 0.138149 0.799795 0.153720
C31   C     C_3   0.579468 0.266850 0.742981 0.288531
C32   C     C_3   0.535926 0.217698 0.783006 -0.101029
H11   H     H_    0.450176 0.259615 0.800353 0.098425
C33   C     C_1   0.688753 0.203873 0.902367 0.003691
C34   C     C_1   0.630607 0.130236 0.618492 -0.005743
C35   C     C_3   0.692570 0.224724 0.769226 0.300953
C36   C     C_3   0.650925 0.175632 0.809483 -0.016449
C37   C     C_3   0.747279 0.110061 0.741548 -0.171046
C38   C     C_3   0.633659 0.154201 0.714183 0.011104
C39   C     C_3   0.704214 0.060193 0.781792 -0.128962
C40   C     C_3   0.591067 0.103891 0.753826 0.266838
C41   C     C_1   0.667971 0.189936 0.861139 -0.023276
C42   C     C_1   0.633004 0.145389 0.661334 -0.037264
H12   H     H_    0.754248 0.974482 0.798001 0.123140
H13   H     H_    0.834127 0.065836 0.725014 0.110494
C43   C     C_R   0.641146 0.724339 0.382097 0.017139
C44   C     C_R   0.711332 0.754038 0.354633 0.221047
C45   C     C_R   0.711869 0.746890 0.304701 -0.107729
C46   C     C_R   0.652932 0.700837 0.281448 -0.056981
C47   C     C_R   0.595753 0.657275 0.308433 -0.112293
C48   C     C_R   0.590766 0.666589 0.359075 0.182610
C49   C     C_R   0.566907 0.712722 0.200983 -0.121501
C50   C     C_R   0.581039 0.684915 0.151929 -0.158619
C51   C     C_R   0.785035 0.617324 0.158180 0.270806
C52   C     C_R   0.769813 0.643854 0.207243 -0.084535
C53   C     C_R   0.662223 0.687825 0.228983 -0.005222
C54   C     C_R   0.690713 0.631340 0.130815 0.033836
H14   H     H_    0.482824 0.748990 0.217466 0.141138
H15   H     H_    0.507479 0.698137 0.131336 0.160388
H16   H     H_    0.758137 0.778845 0.284023 0.140078
H17   H     H_    0.844179 0.622675 0.228958 0.095696
H18   H     H_    0.557322 0.614026 0.289982 0.160903
C55   C     C_R   0.226535 0.136285 0.383413 0.021277
C56   C     C_R   0.257165 0.041433 0.352407 0.257039
C57   C     C_R   0.231870 0.059084 0.303477 -0.101347
C58   C     C_R   0.168725 0.169558 0.285449 0.022237
C59   C     C_R   0.127979 0.263474 0.317264 -0.080091
C60   C     C_R   0.158809 0.246994 0.365833 -0.168509
C61   C     C_R   0.161253 0.265497 0.207126 0.286836
C62   C     C_R   0.140214 0.275080 0.157124 -0.117371
C63   C     C_R   0.100025 0.118768 0.159424 0.190485
C64   C     C_R   0.116980 0.112132 0.209124 -0.163105
C65   C     C_R   0.146987 0.184548 0.233214 -0.000469
C66   C     C_R   0.103874 0.206630 0.133520 -0.030886
H19   H     H_    0.149434 0.337967 0.136760 0.152987
H20   H     H_    0.265128 0.985517 0.279382 0.127838
H21   H     H_    0.107796 0.048572 0.229087 0.142526
H22   H     H_    0.075262 0.349464 0.304340 0.138360
H23   H     H_    0.132893 0.320641 0.389296 0.135034
C67   C     C_R   0.642259 0.140292 0.385100 -0.009507
C68   C     C_R   0.548741 0.232079 0.362632 -0.132923
C69   C     C_R   0.552287 0.253695 0.313535 0.218298
C70   C     C_R   0.653807 0.184610 0.287000 -0.040519
C71   C     C_R   0.750607 0.100151 0.310360 -0.141263
C72   C     C_R   0.746443 0.078627 0.359478 0.285408
C73   C     C_R   0.691697 0.105632 0.203330 -0.069165
C74   C     C_R   0.702289 0.116414 0.153406 0.236214
C75   C     C_R   0.648171 0.315556 0.167606 -0.155188
C76   C     C_R   0.638624 0.303366 0.216873 -0.076924
C77   C     C_R   0.661376 0.198267 0.234897 0.022450
C78   C     C_R   0.683068 0.222146 0.135742 0.020503
H24   H     H_    0.468586 0.281302 0.382088 0.186365
H25   H     H_    0.706392 0.025305 0.217790 0.150606
H26   H     H_    0.615825 0.375164 0.241115 0.145564
H27   H     H_    0.635285 0.396579 0.154822 0.140193
H28   H     H_    0.829092 0.048553 0.290030 0.138821
O14   O     O_R   0.819250 0.149410 0.965240 -0.492521
O15   O     O_R   0.006940 0.180310 0.968270 -0.491163
C79   C     C_R   0.052429 0.233465 0.948909 0.538040
O16   O     O_R   0.028420 0.332670 0.963010 -0.515474
O17   O     O_R   0.810130 0.520390 0.966030 -0.501788
C80   C     C_R   0.711991 0.562484 0.946645 0.545786
O18   O     O_R   0.636050 0.541380 0.962520 -0.501266
O19   O     O_R   0.666480 0.323610 0.968170 -0.497370
C81   C     C_R   0.722751 0.223993 0.949105 0.553527
O20   O     O_R   0.817280 0.156800 0.072180 -0.431413
O21   O     O_R   0.005110 0.187160 0.067410 -0.445327
C82   C     C_R   0.048376 0.243126 0.086175 0.560893
O22   O     O_R   0.026450 0.340060 0.069950 -0.500799
O23   O     O_R   0.808300 0.527240 0.065170 -0.447843
C83   C     C_R   0.709430 0.571568 0.084445 0.556227
O24   O     O_R   0.634070 0.548770 0.069460 -0.528519
O25   O     O_R   0.664650 0.330470 0.067300 -0.514168
C84   C     C_R   0.719537 0.233581 0.087333 0.584016
Cr4   Cr    Cr6+3 0.909770 0.175810 0.018240 1.133261
Cr5   Cr    Cr6+3 0.913300 0.427650 0.016090 1.050017
Cr6   Cr    Cr6+3 0.657770 0.431010 0.016900 1.043109
O26   O     O_3   0.826940 0.344820 0.017080 -0.281154
O27   O     O_3   0.207340 0.321448 0.725775 -0.546743
C85   C     C_3   0.194095 0.401069 0.762029 -0.091240
H29   H     H_    0.245872 0.359472 0.794619 0.088916
H30   H     H_    0.102956 0.456289 0.772246 0.167352
H31   H     H_    0.223113 0.457904 0.746942 0.139115
O28   O     O_3   0.986537 0.364261 0.780945 -0.608189
C86   C     C_3   0.919911 0.363994 0.820362 -0.122474
H32   H     H_    0.830323 0.430599 0.814779 0.164148
H33   H     H_    0.948073 0.386852 0.854235 0.138739
H34   H     H_    0.919903 0.282221 0.824274 0.164724
O29   O     O_3   0.515498 0.373807 0.720753 -0.557866
C87   C     C_3   0.460914 0.459045 0.756804 -0.122196
H35   H     H_    0.519490 0.451503 0.786503 0.130077
H36   H     H_    0.386784 0.456157 0.772424 0.103430
H37   H     H_    0.428934 0.543591 0.739960 0.137117
O30   O     O_3   0.536609 0.038166 0.750104 -0.597604
C88   C     C_3   0.513502 0.025933 0.701421 -0.117458
H38   H     H_    0.593636 0.978935 0.679799 0.118300
H39   H     H_    0.453205 0.109962 0.685519 0.165351
H40   H     H_    0.473161 0.972511 0.699650 0.130345
O31   O     O_3   0.747647 0.288493 0.776255 -0.596565
C89   C     C_3   0.766775 0.322877 0.730566 -0.131432
H41   H     H_    0.688950 0.400065 0.718135 0.166817
H42   H     H_    0.796795 0.255216 0.702006 0.110509
H43   H     H_    0.834782 0.344317 0.734062 0.160302
O32   O     O_3   0.769266 0.803195 0.375585 -0.504398
C90   C     C_3   0.884009 0.717481 0.381544 -0.064386
H44   H     H_    0.927256 0.683406 0.345884 0.099323
H45   H     H_    0.890841 0.647029 0.404452 0.095966
H46   H     H_    0.929782 0.755263 0.400383 0.177974
O33   O     O_3   0.895279 0.558759 0.139806 -0.575746
C91   C     C_3   0.930716 0.637889 0.129117 -0.077990
H47   H     H_    0.874445 0.700064 0.101626 0.183649
H48   H     H_    0.018202 0.590936 0.113401 0.133730
H49   H     H_    0.934321 0.682878 0.162438 0.138455
N1    N     N_R   0.537994 0.614736 0.386397 0.078981
O34   O     O_R   0.466788 0.589943 0.365600 -0.327845
O35   O     O_R   0.574290 0.575634 0.429535 -0.336043
O36   O     O_3   0.324254 0.930972 0.368163 -0.541111
C92   C     C_3   0.252523 0.885300 0.377302 -0.073517
H50   H     H_    0.215207 0.874599 0.343149 0.111233
H51   H     H_    0.183716 0.938729 0.403936 0.083305
H52   H     H_    0.304060 0.800015 0.393489 0.207647
O37   O     O_3   0.205046 0.326495 0.230428 -0.507544
C93   C     C_3   0.136917 0.444423 0.221853 -0.077254
H53   H     H_    0.043965 0.473687 0.223006 0.098547
H54   H     H_    0.161120 0.466926 0.186883 0.137487
H55   H     H_    0.153251 0.491474 0.250905 0.178529
N2    N     N_R   0.079155 0.035661 0.136221 0.099683
O38   O     O_R   0.011984 0.004980 0.156711 -0.330390
O39   O     O_R   0.142549 0.976278 0.099537 -0.316656
N3    N     N_R   0.731781 0.020643 0.121550 0.101571
O40   O     O_R   0.783949 0.917555 0.138375 -0.369032
O41   O     O_R   0.695321 0.036299 0.077150 -0.324375
N4    N     N_R   0.449915 0.339490 0.290786 0.086074
O42   O     O_R   0.421360 0.321081 0.248105 -0.293963
O43   O     O_R   0.377065 0.429531 0.315317 -0.316604
O44   O     O_3   0.840605 0.989246 0.380703 -0.522824
C94   C     C_3   0.918539 0.025774 0.392640 -0.124452
H56   H     H_    0.878715 0.102190 0.417037 0.121493
H57   H     H_    0.954338 0.043235 0.359521 0.103963
H58   H     H_    0.990570 0.956392 0.412447 0.130871

loop_
_geom_bond_atom_site_label_1
_geom_bond_atom_site_label_2
_geom_bond_distance
_ccdc_geom_bond_type
C50   C54   1.405082 A    
C94   H56   1.114086 S    
C60   H23   1.083356 S    
O31   C89   1.414126 S    
O21   C82   1.274477 A    
C23   O28   1.413966 S    
C19   C20   1.560456 S    
C21   C79   1.428848 S    
C61   C62   1.403529 A    
C50   H15   1.083294 S    
C90   H44   1.113212 S    
C80   O18   1.272695 A    
C63   C66   1.416379 A    
C88   H38   1.110410 S    
C31   C32   1.551641 S    
C31   C35   1.527993 S    
O4    Cr2   1.925670 S    
C39   H12   1.110079 S    
C92   H50   1.112821 S    
C5    C43   1.467813 S    
C94   H57   1.113065 S    
O8    Cr1   1.921630 S    
O11   Cr3   2.042843 S    
C87   H35   1.111671 S    
O24   Cr6   2.047479 S    
C20   C28   1.552808 S    
C11   C12   1.536801 S    
C51   C52   1.384781 A    
C61   C65   1.407566 A    
C13   H5    1.109961 S    
C73   C77   1.401255 A    
O32   C90   1.409930 S    
Cr6   O26   1.981871 S    
C64   C65   1.399006 A    
C63   C64   1.387230 A    
C32   C36   1.552171 S    
C69   C70   1.410850 A    
C33   C81   1.439533 S    
C93   H54   1.110124 S    
C15   C16   1.555023 S    
C44   C45   1.379523 A    
C37   H13   1.110490 S    
C63   N2    1.436310 S    
C55   C60   1.402407 A    
C7    H2    1.106196 S    
C71   C72   1.395084 A    
C35   C37   1.538602 S    
C70   C77   1.460222 S    
C14   C16   1.539048 S    
C75   H27   1.084117 S    
O25   Cr6   1.924503 S    
C91   H49   1.112946 S    
N1    O35   1.301534 A    
O6    C3    1.276137 A    
C38   C40   1.546404 S    
C64   H21   1.083714 S    
C25   C27   1.544581 S    
C7    C8    1.547280 S    
C40   O30   1.414248 S    
C11   C13   1.542736 S    
C47   H18   1.083472 S    
C68   H24   1.083209 S    
C23   C25   1.530771 S    
C79   O16   1.271078 A    
C36   C39   1.547492 S    
H9    C28   1.106926 S    
N4    O42   1.300995 A    
C15   H4    1.109969 S    
Cr3   O13   1.983318 S    
C89   H42   1.112442 S    
O14   Cr4   2.051588 S    
C51   C54   1.415149 A    
C59   H22   1.082403 S    
C73   C74   1.400224 A    
C88   H39   1.112300 S    
C66   C82   1.470678 S    
C61   O37   1.389204 S    
O27   C85   1.407550 S    
C85   H30   1.108853 S    
C67   C72   1.409295 A    
C1    C34   1.425621 S    
C90   H46   1.109129 S    
O1    Cr1   2.039318 S    
C8    C16   1.549051 S    
O44   C94   1.409207 S    
C58   C65   1.467317 S    
C48   N1    1.440816 S    
C7    C11   1.546726 S    
O10   Cr2   1.931034 S    
C94   H58   1.108886 S    
Cr1   O13   1.983645 S    
O1    C3    1.274743 A    
C47   C48   1.399684 A    
N3    O41   1.301436 A    
C45   C46   1.389462 A    
Cr4   O26   1.983552 S    
C57   C58   1.398352 A    
C49   C50   1.387666 A    
N3    O40   1.300996 A    
C7    C14   1.529561 S    
C32   H11   1.108133 S    
O5    Cr3   2.047266 S    
O16   Cr5   2.040944 S    
C52   C53   1.396682 A    
C1    O3    1.271039 A    
O37   C93   1.412033 S    
C26   C28   1.545183 S    
O17   Cr5   1.930858 S    
C13   C15   1.549628 S    
C93   H55   1.109254 S    
O36   C92   1.409879 S    
C35   C36   1.540721 S    
C49   H14   1.083477 S    
C73   H25   1.083800 S    
C85   H31   1.107227 S    
C90   H45   1.114223 S    
C49   C53   1.396958 A    
O19   C81   1.278057 A    
O33   C91   1.408232 S    
C76   C77   1.394418 A    
O7    Cr1   2.050309 S    
C68   C69   1.393680 A    
C24   C27   1.543476 S    
C21   C29   1.202345 T    
N2    O39   1.301465 A    
O12   C6    1.272454 A    
C12   C15   1.533932 S    
C11   H6    1.105327 S    
C25   C26   1.531771 S    
C59   C60   1.391354 A    
C8    H1    1.110155 S    
O19   Cr6   1.931121 S    
C9    C17   1.205643 T    
C52   H17   1.083039 S    
O23   Cr5   1.924427 S    
C86   H34   1.113846 S    
C74   C78   1.413261 A    
C25   O27   1.411503 S    
C23   C24   1.542194 S    
Cr2   O13   1.982098 S    
C3    C22   1.438741 S    
C89   H41   1.108244 S    
C19   H8    1.106718 S    
Cr5   O26   1.983378 S    
O15   Cr4   1.922211 S    
C78   C84   1.457339 S    
O20   C84   1.271437 A    
C20   H7    1.110057 S    
C57   H20   1.083681 S    
O17   C80   1.276043 A    
C54   C83   1.459159 S    
C88   H40   1.103591 S    
C27   C28   1.556158 S    
O22   Cr5   2.047962 S    
C22   C30   1.208052 T    
C85   H29   1.111906 S    
C34   C42   1.200943 T    
O20   Cr4   2.038551 S    
C36   C41   1.470935 S    
C91   H47   1.113291 S    
C46   C47   1.399497 A    
O9    Cr2   2.040993 S    
O14   C81   1.271765 A    
O2    Cr1   1.933316 S    
O10   C5    1.271344 A    
C6    C55   1.461983 S    
C87   H37   1.109268 S    
C51   O33   1.382975 S    
C31   C38   1.533398 S    
C43   C44   1.420215 A    
O6    Cr3   1.924879 S    
C2    C10   1.433644 S    
C43   C48   1.416835 A    
O25   C84   1.273380 A    
C76   H26   1.083831 S    
C46   C53   1.453498 S    
C72   O44   1.381527 S    
C2    O5    1.272842 A    
O18   Cr6   2.043472 S    
C45   H16   1.084414 S    
C83   O24   1.273310 A    
C82   O22   1.278471 A    
O21   Cr4   1.933049 S    
O28   C86   1.409991 S    
C92   H52   1.107596 S    
H3    C16   1.108406 S    
C13   C14   1.536811 S    
C69   N4    1.440092 S    
C87   H36   1.108042 S    
O2    C1    1.273665 A    
C55   C56   1.413771 A    
C8    C12   1.537789 S    
C37   C39   1.558222 S    
C70   C71   1.400609 A    
O30   C88   1.407113 S    
C4    C67   1.471223 S    
C56   C57   1.387056 A    
O4    C2    1.273142 A    
C27   H10   1.109029 S    
O7    C6    1.274540 A    
C38   C42   1.461978 S    
C5    O11   1.279509 A    
C62   C66   1.404593 A    
C37   C38   1.545662 S    
C91   H48   1.109233 S    
C58   C59   1.402433 A    
C74   N3    1.439839 S    
C19   C23   1.542357 S    
C92   H51   1.113687 S    
C14   C18   1.465899 S    
C39   C40   1.549501 S    
C26   C30   1.471296 S    
C75   C76   1.383525 A    
C86   H33   1.109041 S    
C93   H53   1.113458 S    
O12   Cr3   1.929227 S    
C75   C78   1.405520 A    
C20   C24   1.545115 S    
O3    Cr2   2.049468 S    
C9    C80   1.435123 S    
C32   C40   1.550268 S    
C35   O31   1.407146 S    
C56   O36   1.381612 S    
C33   C41   1.208320 T    
C89   H43   1.098618 S    
N2    O38   1.301587 A    
C67   C68   1.406612 A    
C10   C18   1.205318 T    
O29   C87   1.409757 S    
N4    O43   1.301478 A    
C12   C17   1.466451 S    
O23   C83   1.271316 A    
C4    O9    1.274768 A    
C44   O32   1.382102 S    
C62   H19   1.081927 S    
C86   H32   1.103271 S    
C19   C26   1.540665 S    
C71   H28   1.084193 S    
N1    O34   1.301678 A    
C24   C29   1.462417 S    
O8    C4    1.276045 A    
C31   O29   1.411031 S    
O15   C79   1.276132 A    
