data_mof_unit_48731.cif
_audit_creation_date              2012-12-11T17:43:16-0500
_audit_creation_method            fapswitch 2.2
_symmetry_space_group_name_H-M    P1
_symmetry_Int_Tables_number       1
_space_group_crystal_system       triclinic
_cell_length_a                    15.065461
_cell_length_b                    15.023508
_cell_length_c                    17.312524
_cell_angle_alpha                 109.201389
_cell_angle_beta                  106.628149
_cell_angle_gamma                 108.791717
_cell_volume                      3148.30582616

loop_
_atom_site_label
_atom_site_type_symbol
_atom_type_description
_atom_site_fract_x
_atom_site_fract_y
_atom_site_fract_z
_atom_type_partial_charge
C1    C     C_R   0.083273 0.282910 0.072476 -0.144163
C2    C     C_R   0.073036 0.107982 0.125370 -0.236849
C3    C     C_R   0.985823 0.919996 0.077993 0.045671
C4    C     C_R   0.984338 0.098049 0.060013 0.060833
C5    C     C_R   0.075276 0.019532 0.135069 0.032547
C6    C     C_R   0.890281 0.001167 0.016119 0.020603
C7    C     C_R   0.774290 0.915144 0.850635 -0.140148
C8    C     C_R   0.156532 0.986523 0.264097 -0.143532
C9    C     C_R   0.598565 0.894998 0.796056 -0.097339
C10   C     C_R   0.344041 0.069487 0.350907 -0.086171
C11   C     C_R   0.483554 0.585738 0.265701 -0.124136
C12   C     C_R   0.907320 0.719885 0.979609 -0.119512
C13   C     C_R   0.502600 0.303498 0.652083 -0.117734
C14   C     C_R   0.479450 0.562796 0.179350 -0.119662
C15   C     C_R   0.494315 0.317618 0.733216 -0.137048
C16   C     C_R   0.934464 0.519042 0.748911 -0.171193
C17   C     C_R   0.067086 0.525232 0.264352 -0.150255
C18   C     C_R   0.445738 0.457840 0.116395 0.123156
C19   C     C_R   0.469252 0.396861 0.776241 0.115798
C20   C     C_R   0.417534 0.376478 0.141188 -0.195117
C21   C     C_R   0.451392 0.460661 0.735884 -0.170215
C22   C     C_R   0.419829 0.399614 0.227075 -0.147412
C23   C     C_R   0.024749 0.578493 0.748449 0.014825
C24   C     C_R   0.459568 0.446075 0.654618 -0.106015
C25   C     C_R   0.453046 0.504233 0.289365 -0.093869
C26   C     C_R   0.485216 0.367651 0.612803 -0.093618
C27   C     C_R   0.525021 0.423988 0.014274 -0.233994
C28   C     C_R   0.375067 0.420048 0.872727 -0.242650
C29   C     C_R   0.538658 0.419546 0.936965 0.058565
C30   C     C_R   0.366596 0.433297 0.953892 0.075054
C31   C     C_R   0.461590 0.412642 0.862986 0.025730
C32   C     C_R   0.441680 0.433297 0.024896 0.011428
C33   C     C_R   0.676882 0.874489 0.778858 -0.148373
C34   C     C_R   0.975893 0.491505 0.272824 0.001473
C35   C     C_R   0.243934 0.003889 0.335109 -0.095130
C36   C     C_R   0.973038 0.491267 0.353660 0.126729
C37   C     C_R   0.028097 0.586820 0.670195 0.123732
C38   C     C_R   0.074636 0.685544 0.591748 -0.232775
C39   C     C_R   0.929345 0.394589 0.433948 -0.238899
C40   C     C_R   0.775746 0.202083 0.811714 -0.140027
C41   C     C_R   0.279073 0.786433 0.178659 -0.127670
C42   C     C_R   0.076303 0.684340 0.671920 -0.172729
C43   C     C_R   0.927780 0.394562 0.354203 -0.150043
C44   C     C_R   0.980176 0.491271 0.591747 -0.299544
C45   C     C_R   0.759117 0.196903 0.726380 0.054154
C46   C     C_R   0.022083 0.588176 0.431399 -0.305193
C47   C     C_R   0.977817 0.491326 0.512441 0.192429
C48   C     C_R   0.025048 0.589174 0.511859 0.192340
C49   C     C_R   0.717296 0.101846 0.640023 0.134912
C50   C     C_R   0.441633 0.859728 0.325472 0.132482
C51   C     C_R   0.589893 0.033662 0.398075 -0.249564
C52   C     C_R   0.610111 0.911975 0.553299 -0.238092
C53   C     C_R   0.497710 0.952868 0.322838 -0.180202
C54   C     C_R   0.679948 0.001398 0.635922 -0.182058
C55   C     C_R   0.486043 0.842723 0.398886 -0.313185
C56   C     C_R   0.333590 0.784924 0.257386 0.064745
C57   C     C_R   0.699360 0.110054 0.559013 -0.293758
C58   C     C_R   0.576102 0.923720 0.474936 0.202933
C59   C     C_R   0.625184 0.022019 0.476471 0.193817
C60   C     C_R   0.616067 0.952073 0.885518 -0.125313
C61   C     C_R   0.357106 0.116224 0.294629 -0.137541
C62   C     C_R   0.710939 0.986410 0.958064 -0.206001
C63   C     C_R   0.269965 0.098912 0.223349 -0.180163
C64   C     C_R   0.259817 0.531643 0.951592 -0.135562
C65   C     C_R   0.698927 0.403474 0.993497 -0.149616
C66   C     C_R   0.792379 0.972412 0.940765 0.122461
C67   C     C_R   0.285248 0.456566 0.967578 0.032162
C68   C     C_R   0.168615 0.034434 0.207780 0.117971
C69   C     C_R   0.781645 0.298037 0.736187 -0.126225
C70   C     C_R   0.271776 0.691312 0.253883 -0.133062
C71   C     C_R   0.242871 0.430939 0.022079 -0.100143
C72   C     C_R   0.704350 0.501385 0.921362 -0.128049
C73   C     C_R   0.107611 0.604086 0.825260 0.022075
C74   C     C_R   0.892000 0.436084 0.187762 0.025917
C75   C     C_R   0.911540 0.200903 0.993296 -0.159180
C76   C     C_R   0.081268 0.806202 0.055070 -0.147111
C77   C     C_R   0.993497 0.187753 0.038940 0.067991
C78   C     C_R   0.641449 0.437579 0.945457 0.047708
C79   C     C_R   0.991636 0.818910 0.044423 0.062049
C80   C     C_R   0.217383 0.681652 0.860509 0.093955
C81   C     C_R   0.272333 0.668077 0.807832 -0.178448
C82   C     C_R   0.380252 0.731387 0.846733 -0.118932
C83   C     C_R   0.433549 0.808838 0.937925 -0.092530
C84   C     C_R   0.378805 0.825752 0.989406 -0.133771
C85   C     C_R   0.271180 0.762494 0.950857 -0.142294
C86   C     C_R   0.784007 0.368002 0.166989 0.104084
C87   C     C_R   0.735009 0.258741 0.107871 -0.193726
C88   C     C_R   0.636470 0.193013 0.095427 -0.116311
C89   C     C_R   0.891632 0.917366 0.032464 -0.228382
C90   C     C_R   0.587518 0.235562 0.143573 -0.096932
C91   C     C_R   0.637006 0.343860 0.204082 -0.121922
C92   C     C_R   0.734373 0.410060 0.215278 -0.146760
H1    H     H_    0.160381 0.307725 0.122187 0.097757
H2    H     H_    0.507381 0.266746 0.762443 0.114337
H3    H     H_    0.392193 0.295258 0.093500 0.118601
H4    H     H_    0.432499 0.522527 0.767855 0.111300
H5    H     H_    0.396862 0.336655 0.245656 0.109126
H6    H     H_    0.446259 0.495811 0.624165 0.104859
H7    H     H_    0.585354 0.431453 0.071953 0.147656
H8    H     H_    0.315133 0.417354 0.818011 0.130709
H9    H     H_    0.057935 0.661827 0.428847 0.132626
H10   H     H_    0.944827 0.416441 0.592859 0.132079
H11   H     H_    0.892935 0.319585 0.293493 0.134191
H12   H     H_    0.825536 0.698552 0.952767 0.093172
H13   H     H_    0.113686 0.758088 0.734275 0.132590
H14   H     H_    0.111334 0.760691 0.591949 0.131145
H15   H     H_    0.893985 0.319671 0.434578 0.130117
H16   H     H_    0.855670 0.494666 0.702386 0.110015
H17   H     H_    0.146000 0.561555 0.316447 0.108907
H18   H     H_    0.662583 0.828242 0.709702 0.110007
H19   H     H_    0.234026 0.967156 0.378396 0.110395
H20   H     H_    0.732873 0.186102 0.560132 0.116289
H21   H     H_    0.446428 0.770832 0.401918 0.114645
H22   H     H_    0.697555 0.992772 0.696888 0.132710
H23   H     H_    0.834624 0.899266 0.836372 0.115785
H24   H     H_    0.467443 0.967084 0.265932 0.120076
H25   H     H_    0.628011 0.108181 0.397757 0.127824
H26   H     H_    0.575142 0.836034 0.552362 0.120576
H27   H     H_    0.524089 0.865948 0.740143 0.105197
H28   H     H_    0.411481 0.083917 0.406701 0.114811
H29   H     H_    0.555228 0.967831 0.898494 0.112266
H30   H     H_    0.434808 0.166164 0.306400 0.106142
H31   H     H_    0.722263 0.026386 0.027363 0.114326
H32   H     H_    0.281633 0.135357 0.180157 0.104169
H33   H     H_    0.764705 0.137591 0.828483 0.112925
H34   H     H_    0.079443 0.936814 0.253758 0.113742
H35   H     H_    0.309825 0.840388 0.153599 0.083295
H36   H     H_    0.284819 0.569615 0.913685 0.132453
H37   H     H_    0.667419 0.339308 0.008150 0.129455
H38   H     H_    0.776266 0.323806 0.684630 0.092442
H39   H     H_    0.294045 0.655644 0.295971 0.089406
H40   H     H_    0.244818 0.372845 0.044868 0.114395
H41   H     H_    0.680626 0.532743 0.875638 0.107662
H42   H     H_    0.830440 0.155275 0.971601 0.112559
H43   H     H_    0.161302 0.866077 0.096396 0.115901
H44   H     H_    0.819418 0.844527 0.996964 0.127641
H45   H     H_    0.455771 0.522253 0.356144 0.097642
H46   H     H_    0.141926 0.183916 0.167632 0.121706
H47   H     H_    0.232913 0.605096 0.738471 0.125355
H48   H     H_    0.422902 0.718584 0.806895 0.115327
H49   H     H_    0.517376 0.855222 0.969256 0.111274
H50   H     H_    0.420064 0.886427 0.059753 0.102467
H51   H     H_    0.230386 0.775088 0.992059 0.110296
H52   H     H_    0.773572 0.224589 0.072727 0.114073
H53   H     H_    0.598715 0.108864 0.049676 0.104271
H54   H     H_    0.511913 0.184467 0.134879 0.096993
H55   H     H_    0.600780 0.376528 0.243354 0.131351
H56   H     H_    0.491535 0.356525 0.549927 0.101838
H57   H     H_    0.772117 0.493714 0.263026 0.119464
H58   H     H_    0.510859 0.666749 0.314348 0.119120
H59   H     H_    0.522371 0.242703 0.619602 0.111625
H60   H     H_    0.502475 0.626460 0.161474 0.114440
N1    N     N_R   0.055660 0.348550 0.045620 -0.038470
N2    N     N_R   0.185200 0.638170 0.176300 -0.038288
N3    N     N_R   0.201680 0.494570 0.045620 -0.041238
N4    N     N_R   0.798320 0.505430 0.954380 -0.040936
N5    N     N_R   0.068420 0.560530 0.871650 -0.058525
N6    N     N_R   0.931580 0.439470 0.128350 -0.059743
N7    N     N_R   0.948070 0.295860 0.997670 -0.040957
N8    N     N_R   0.051930 0.704140 0.002330 -0.050497
N9    N     N_R   0.944340 0.651450 0.954380 -0.040337
N10   N     N_R   0.960830 0.507850 0.823700 -0.043929
N11   N     N_R   0.039170 0.492150 0.176300 -0.045581
N12   N     N_R   0.811290 0.303410 0.871650 -0.040961
N13   N     N_R   0.188710 0.696590 0.128350 -0.043240
N14   N     N_R   0.205200 0.552990 0.997670 -0.042564
N15   N     N_R   0.794800 0.447010 0.002330 -0.041116
N16   N     N_R   0.814800 0.361830 0.823700 -0.037474
Ni1   Ni    Ni4+2 0.119340 0.493420 0.109960 0.214680
Ni2   Ni    Ni4+2 0.880660 0.506580 0.890040 0.212222
Ni3   Ni    Ni4+2 0.872590 0.372590 0.000000 0.208738
Ni4   Ni    Ni4+2 0.127410 0.627410 0.000000 0.210217

loop_
_geom_bond_atom_site_label_1
_geom_bond_atom_site_label_2
_ccdc_geom_bond_type
C87   C88   A    
N14   Ni4   S    
C72   N4    A    
C27   C29   A    
C1    C77   A    
C41   H35   S    
C25   H45   S    
C76   C79   A    
C19   C31   S    
C85   H51   S    
C15   H2    S    
C91   H55   S    
C63   H32   S    
C72   H41   S    
C75   H42   S    
C15   C19   A    
C27   H7    S    
C6    C66   S    
N7    Ni3   S    
C24   H6    S    
C19   C21   A    
C24   C26   A    
C38   C42   A    
N5    Ni4   S    
C11   C14   A    
N6    Ni3   S    
C57   C59   A    
C57   H20   S    
C11   C25   A    
N3    N14   A    
C49   C54   A    
C12   C79   A    
C73   N5    A    
C49   C57   A    
C60   C62   A    
C7    H23   S    
C37   C42   A    
C61   C63   A    
C14   C18   A    
C72   C78   A    
C17   N11   A    
C12   N9    A    
C29   C78   S    
C83   C84   A    
C69   H38   S    
C64   H36   S    
C22   C25   A    
C41   N13   A    
C67   C71   A    
C82   H48   S    
C88   H53   S    
N2    N13   A    
C36   C46   A    
C10   C35   A    
C84   H50   S    
C87   H52   S    
C38   C48   A    
C30   C67   S    
C44   C47   A    
C28   H8    S    
N13   Ni4   S    
N16   Ni2   S    
C71   H40   S    
C3    C79   S    
C89   H44   S    
C9    C33   A    
C7    C33   A    
C23   C73   A    
C5    C68   S    
C62   H31   S    
C76   H43   S    
C52   C54   A    
C81   C82   A    
C40   C45   A    
C46   H9    S    
C46   C48   A    
C50   C53   A    
C62   C66   A    
C45   C69   A    
C2    H46   S    
C64   C67   A    
N12   N16   A    
C84   C85   A    
C13   H59   S    
C4    C6    A    
C91   C92   A    
C83   H49   S    
C74   N6    A    
C86   C87   A    
C39   C43   A    
C55   H21   S    
N4    N15   A    
C3    C5    A    
C58   C59   A    
C23   C37   S    
C1    H1    S    
C50   C56   S    
N2    Ni1   S    
C61   H30   S    
C51   C53   A    
C8    C35   A    
C38   H14   S    
C2    C4    A    
C41   C56   A    
C80   C85   A    
N3    Ni1   S    
C11   H58   S    
C47   C48   A    
N10   Ni2   S    
C45   C49   S    
C71   N3    A    
N8    Ni4   S    
C74   C86   S    
C1    N1    A    
C75   C77   A    
C52   C58   A    
N6    N11   A    
C34   C74   A    
N9    Ni2   S    
C8    H34   S    
C20   H3    S    
C88   C90   A    
C8    C68   A    
C16   C23   A    
C56   C70   A    
C13   C15   A    
C9    H27   S    
C13   C26   A    
C21   C24   A    
C10   C61   A    
C18   C32   S    
C17   C34   A    
N1    Ni1   S    
C35   H19   S    
N1    N7    A    
C39   C47   A    
C75   N7    A    
C81   H47   S    
C63   C68   A    
C76   N8    A    
C44   H10   S    
C65   C78   A    
C27   C32   A    
C70   N2    A    
C28   C31   A    
C20   C22   A    
C80   C81   A    
C64   N14   A    
C17   H17   S    
C39   H15   S    
C65   H37   S    
C53   H24   S    
C12   H12   S    
C21   H4    S    
C6    C89   A    
C65   N15   A    
C36   C43   A    
C50   C55   A    
N15   Ni3   S    
C3    C89   A    
C9    C60   A    
C16   N10   A    
N8    N9    A    
C37   C44   A    
C28   C30   A    
C69   N16   A    
C4    C77   S    
C90   H54   S    
C86   C92   A    
C7    C66   A    
C30   C32   A    
C40   N12   A    
C90   C91   A    
C40   H33   S    
C54   H22   S    
N4    Ni2   S    
C70   H39   S    
C51   H25   S    
C73   C80   S    
C18   C20   A    
C60   H29   S    
N11   Ni1   S    
C42   H13   S    
C43   H11   S    
C10   H28   S    
C16   H16   S    
C2    C5    A    
C26   H56   S    
C51   C59   A    
C34   C36   S    
C29   C31   A    
C82   C83   A    
C55   C58   A    
C14   H60   S    
C92   H57   S    
C22   H5    S    
N12   Ni3   S    
C33   H18   S    
N5    N10   A    
C52   H26   S    
