data_mof_unit_46289.cif
_audit_creation_date              2012-12-10T18:46:13-0500
_audit_creation_method            fapswitch 2.2
_symmetry_space_group_name_H-M    P1
_symmetry_Int_Tables_number       1
_space_group_crystal_system       triclinic
_cell_length_a                    9.840134
_cell_length_b                    10.72382
_cell_length_c                    13.142414
_cell_angle_alpha                 90.08903
_cell_angle_beta                  70.02996
_cell_angle_gamma                 90.022359
_cell_volume                      1303.44751128

loop_
_atom_site_label
_atom_site_type_symbol
_atom_type_description
_atom_site_fract_x
_atom_site_fract_y
_atom_site_fract_z
_atom_type_partial_charge
C1    C     C_R   0.499969 0.740151 0.500213 0.872646
C2    C     C_R   0.430663 0.472265 0.984521 0.086887
C3    C     C_R   0.460971 0.439058 0.875403 0.085166
C4    C     C_R   0.541381 0.457743 0.029412 0.078628
C5    C     C_R   0.669925 0.391751 0.972163 0.173796
C6    C     C_R   0.687703 0.342560 0.870349 -0.257828
C7    C     C_R   0.584471 0.365691 0.822441 -0.200736
C8    C     C_R   0.528764 0.509747 0.129078 -0.260024
C9    C     C_R   0.755445 0.417206 0.123364 -0.209252
C10   C     C_R   0.367746 0.482037 0.821814 -0.121599
C11   C     C_R   0.629128 0.936188 0.485881 -0.195886
C12   C     C_R   0.419982 0.492946 0.704101 0.860657
C13   C     C_R   0.629124 0.063918 0.485770 -0.199643
C14   C     C_R   0.499850 0.127420 0.500308 -0.012415
C15   C     C_R   0.370530 0.063852 0.515160 -0.195446
C16   C     C_R   0.370529 0.936114 0.515288 -0.196476
C17   C     C_R   0.499869 0.872607 0.500502 -0.015784
C18   C     C_R   0.960170 0.426423 0.429397 -0.091891
C19   C     C_R   0.104047 0.426414 0.429441 -0.075049
C20   C     C_R   0.039763 0.573459 0.570707 -0.086383
C21   C     C_R   0.895888 0.573462 0.570664 -0.061461
C22   C     C_R   0.499934 0.259853 0.500031 0.859077
C23   C     C_R   0.580094 0.499551 0.295695 0.876452
C24   C     C_R   0.777509 0.374185 0.018729 -0.201507
C25   C     C_R   0.628347 0.482027 0.179317 -0.059450
C26   C     C_R   0.231021 0.529782 0.881641 -0.195303
C27   C     C_R   0.191215 0.543471 0.993034 -0.149519
C28   C     C_R   0.290957 0.518496 0.044146 -0.197547
H1    H     H_    0.833525 0.394880 0.162036 0.150981
H2    H     H_    0.730009 0.112478 0.473769 0.154256
H3    H     H_    0.269664 0.112369 0.527069 0.156152
H4    H     H_    0.269644 0.887546 0.527311 0.154354
H5    H     H_    0.931323 0.367664 0.372933 0.121330
H6    H     H_    0.184211 0.367532 0.373006 0.132326
H7    H     H_    0.068596 0.632191 0.627190 0.120936
H8    H     H_    0.815708 0.632307 0.627116 0.134160
H9    H     H_    0.782605 0.288069 0.826866 0.149790
H10   H     H_    0.875528 0.323128 0.976041 0.141310
H11   H     H_    0.438529 0.568969 0.171675 0.151016
H12   H     H_    0.156652 0.559986 0.841964 0.154768
H13   H     H_    0.254714 0.532936 0.130567 0.132075
H14   H     H_    0.601578 0.323993 0.744047 0.173851
H15   H     H_    0.730003 0.887687 0.473967 0.156721
N1    N     N_R   0.142790 0.500030 0.500030 -0.076834
N2    N     N_R   0.857180 0.499940 0.500010 -0.078086
O1    O     O_R   0.385370 0.683250 0.500010 -0.623829
O2    O     O_R   0.614700 0.683220 0.500010 -0.622305
O3    O     O_R   0.328400 0.499990 0.653620 -0.614514
O4    O     O_R   0.557730 0.499960 0.653620 -0.614375
O5    O     O_R   0.385300 0.316780 0.499990 -0.623100
O6    O     O_R   0.614630 0.316750 0.499990 -0.632721
O7    O     O_R   0.442270 0.500040 0.346380 -0.615245
O8    O     O_R   0.671600 0.500010 0.346380 -0.617122
Zn1   Zn    Zn3+2 0.346870 0.500020 0.500000 0.939482
Zn2   Zn    Zn3+2 0.653130 0.499980 0.500000 0.936458
H16   H     H_    0.084944 0.578814 0.039312 0.148052

loop_
_geom_bond_atom_site_label_1
_geom_bond_atom_site_label_2
_ccdc_geom_bond_type
C24   H10   S    
C9    C24   A    
C11   H15   S    
C6    C7    A    
C8    H11   S    
C9    H1    S    
C2    C3    A    
C16   H4    S    
C13   H2    S    
C21   N2    A    
C12   O3    A    
C4    C8    A    
C22   O5    A    
O1    Zn1   S    
O8    Zn2   S    
C12   O4    A    
C23   O7    A    
C6    H9    S    
C9    C25   A    
C21   H8    S    
O4    Zn2   S    
C13   C14   A    
C19   N1    A    
O3    Zn1   S    
C8    C25   A    
C11   C13   A    
C26   H12   S    
C26   C27   A    
O5    Zn1   S    
C5    C24   A    
C10   C12   S    
C5    C6    A    
C2    C4    A    
C1    O2    A    
C20   N1    A    
O7    Zn1   S    
C23   O8    A    
C3    C7    A    
O6    Zn2   S    
C23   C25   S    
C14   C22   S    
C18   H5    S    
C1    O1    A    
C16   C17   A    
C15   C16   A    
C18   N2    A    
N1    Zn1   S    
C28   H13   S    
C20   C21   A    
N2    Zn2   S    
O2    Zn2   S    
C18   C19   A    
C7    H14   S    
C27   C28   A    
C3    C10   A    
C27   H16   S    
C4    C5    A    
C2    C28   A    
C14   C15   A    
C20   H7    S    
C1    C17   S    
C15   H3    S    
C10   C26   A    
C11   C17   A    
C22   O6    A    
C19   H6    S    
