data_mof_unit_7881.cif
_audit_creation_date              2012-12-10T18:45:09-0500
_audit_creation_method            fapswitch 2.2
_symmetry_space_group_name_H-M    P1
_symmetry_Int_Tables_number       1
_space_group_crystal_system       triclinic
_cell_length_a                    10.701898
_cell_length_b                    9.886801
_cell_length_c                    10.65983
_cell_angle_alpha                 89.359654
_cell_angle_beta                  92.883131
_cell_angle_gamma                 90.106432
_cell_volume                      1126.39137388

loop_
_atom_site_label
_atom_site_type_symbol
_atom_type_description
_atom_site_fract_x
_atom_site_fract_y
_atom_site_fract_z
_atom_type_partial_charge
C1    C     C_R   0.260499 0.499751 0.507319 0.819188
C2    C     C_R   0.481082 0.500076 0.737259 0.848261
C3    C     C_R   0.541391 0.754950 0.103067 -0.311076
C4    C     C_R   0.406786 0.748131 0.874246 -0.393392
C5    C     C_R   0.514052 0.877736 0.037883 0.480981
C6    C     C_R   0.434475 0.874946 0.929162 0.441614
C7    C     C_R   0.450323 0.626865 0.931900 0.050110
C8    C     C_R   0.497711 0.629618 0.055534 0.046037
C9    C     C_R   0.501701 0.505367 0.124023 -0.105944
C10   C     C_R   0.454376 0.502519 0.868326 -0.106810
C11   C     C_R   0.479137 0.382650 0.062622 -0.196990
C12   C     C_R   0.740163 0.500031 0.503272 0.858264
C13   C     C_R   0.459686 0.380959 0.934993 -0.217305
C14   C     C_R   0.064308 0.376398 0.516835 -0.207962
C15   C     C_R   0.936408 0.376688 0.510713 -0.195312
C16   C     C_R   0.873107 0.499780 0.514125 -0.015810
C17   C     C_R   0.128774 0.499070 0.521694 0.005606
C18   C     C_3   0.675818 0.000142 0.139602 0.062387
C19   C     C_3   0.728520 0.142980 0.146855 -0.841815
C20   C     C_3   0.293242 0.991958 0.791368 0.069597
C21   C     C_3   0.244784 0.133988 0.762659 -0.842592
C22   C     C_3   0.690037 0.193243 0.751917 -0.693638
C23   C     C_R   0.937611 0.621675 0.531725 -0.211088
C24   C     C_3   0.249794 0.188899 0.302328 -0.739968
C25   C     C_3   0.717844 0.875041 0.753398 0.107077
C26   C     C_3   0.760078 0.745914 0.822125 -0.834641
C27   C     C_3   0.245398 0.845843 0.316074 0.148701
C28   C     C_3   0.199978 0.728988 0.233615 -0.786449
C29   C     C_R   0.065923 0.620844 0.537722 -0.215230
C30   C     C_R   0.587024 0.071087 0.574306 0.099228
C31   C     C_R   0.427639 0.072906 0.412046 0.111189
C32   C     C_R   0.586016 0.924580 0.575228 0.392460
C33   C     C_R   0.426631 0.927893 0.413266 0.338056
C34   C     C_R   0.505628 0.501478 0.259270 0.852052
H1    H     H_    0.479339 0.286920 0.112226 0.215772
H2    H     H_    0.672117 0.960857 0.237499 0.152827
H3    H     H_    0.673588 0.204643 0.210746 0.264721
H4    H     H_    0.827187 0.139840 0.184385 0.204568
H5    H     H_    0.725153 0.190890 0.052022 0.260892
H6    H     H_    0.216983 0.933466 0.834585 0.141832
H7    H     H_    0.317072 0.946333 0.700708 0.126339
H8    H     H_    0.315235 0.192858 0.711932 0.273543
H9    H     H_    0.157216 0.128427 0.702519 0.197071
H10   H     H_    0.224805 0.186156 0.851172 0.260178
H11   H     H_    0.778804 0.102997 0.602749 0.197840
H12   H     H_    0.452425 0.284569 0.888730 0.213562
H13   H     H_    0.600156 0.168691 0.794139 0.263463
H14   H     H_    0.706358 0.303914 0.750648 0.256088
H15   H     H_    0.767018 0.150185 0.813189 0.176155
H16   H     H_    0.398831 0.098525 0.220346 0.278577
H17   H     H_    0.197285 0.153682 0.216175 0.198051
H18   H     H_    0.246709 0.300701 0.297274 0.264742
H19   H     H_    0.202255 0.149590 0.385198 0.205474
H20   H     H_    0.640588 0.920903 0.803869 0.165963
H21   H     H_    0.801050 0.941599 0.756944 0.143817
H22   H     H_    0.838311 0.698670 0.774041 0.251036
H23   H     H_    0.600153 0.757495 0.187916 0.175699
H24   H     H_    0.792743 0.769868 0.919856 0.188905
H25   H     H_    0.682467 0.672679 0.826034 0.269267
H26   H     H_    0.198372 0.936976 0.277248 0.132166
H27   H     H_    0.215668 0.829686 0.413123 0.119346
H28   H     H_    0.246664 0.633295 0.263852 0.261447
H29   H     H_    0.097318 0.716345 0.239685 0.192171
H30   H     H_    0.221137 0.750158 0.134308 0.239289
H31   H     H_    0.352610 0.742463 0.786258 0.167334
H32   H     H_    0.111876 0.280669 0.515312 0.149790
H33   H     H_    0.887859 0.281084 0.500627 0.156580
H34   H     H_    0.889605 0.717291 0.539505 0.192908
H35   H     H_    0.115078 0.715047 0.553439 0.132241
H36   H     H_    0.740589 0.937745 0.085595 0.126621
N1    N     N_R   0.500000 0.857200 0.500000 -0.167115
N2    N     N_R   0.500000 0.142810 0.500000 -0.128466
N3    N     N_2   0.693606 0.141830 0.625340 -0.265169
N4    N     N_2   0.378263 0.143536 0.303360 -0.244843
O1    O     O_R   0.316770 0.614620 0.499990 -0.627919
O2    O     O_3   0.400984 0.999165 0.873411 -0.610335
O3    O     O_3   0.684644 0.846665 0.626663 -0.588397
O4    O     O_3   0.376268 0.858220 0.310605 -0.573501
O5    O     O_R   0.683230 0.614620 0.500010 -0.568660
O6    O     O_R   0.316800 0.385290 0.500000 -0.617051
O7    O     O_R   0.683200 0.385290 0.500000 -0.603572
O8    O     O_R   0.500010 0.614690 0.316770 -0.569652
O9    O     O_R   0.499990 0.614690 0.683230 -0.595428
O10   O     O_R   0.500040 0.385360 0.316770 -0.601389
O11   O     O_R   0.499960 0.385360 0.683230 -0.617951
O12   O     O_3   0.554280 0.003905 0.081118 -0.610274
Zn1   Zn    Zn3+2 0.500000 0.653120 0.500000 0.999084
Zn2   Zn    Zn3+2 0.500000 0.346880 0.500000 0.959576

loop_
_geom_bond_atom_site_label_1
_geom_bond_atom_site_label_2
_ccdc_geom_bond_type
C24   H18   S    
C7    C10   A    
O9    Zn1   S    
C18   H36   S    
C17   C29   A    
C22   H14   S    
C27   O4    S    
O5    Zn1   S    
C20   H7    S    
C7    C8    A    
C18   O12   S    
C25   O3    S    
C23   C29   A    
C27   H26   S    
H16   N4    S    
C5    C6    A    
C20   H6    S    
C33   O4    S    
O8    Zn1   S    
C12   O5    A    
C20   O2    S    
C2    O11   A    
H11   N3    S    
C18   C19   S    
C4    H31   S    
C19   H3    S    
C32   O3    S    
C21   H9    S    
C12   C16   S    
C8    C9    A    
C31   C33   A    
C27   H27   S    
C26   H25   S    
C24   H17   S    
C22   H13   S    
C14   C17   A    
C2    O9    A    
C34   O10   A    
C4    C7    A    
N2    Zn2   S    
C32   N1    A    
C29   H35   S    
C1    O1    A    
O10   Zn2   S    
C25   H20   S    
C4    C6    A    
C3    C8    A    
C30   N3    S    
C31   N4    S    
C24   H19   S    
C23   H34   S    
C19   H4    S    
C21   H10   S    
C26   H24   S    
C15   H33   S    
C14   H32   S    
C9    C11   A    
C19   H5    S    
C22   H15   S    
N1    Zn1   S    
C5    O12   S    
C28   H30   S    
O1    Zn1   S    
C31   N2    A    
C16   C23   A    
C9    C34   S    
C2    C10   S    
C3    H23   S    
O11   Zn2   S    
C25   H21   S    
C3    C5    A    
C10   C13   A    
C26   H22   S    
C30   N2    A    
C6    O2    S    
C1    C17   S    
C11   H1    S    
C25   C26   S    
O6    Zn2   S    
C30   C32   A    
C11   C13   A    
C24   N4    S    
C13   H12   S    
C12   O7    A    
O7    Zn2   S    
C33   N1    A    
C21   H8    S    
C28   H29   S    
C20   C21   S    
C27   C28   S    
C1    O6    A    
C14   C15   A    
C34   O8    A    
C22   N3    S    
C18   H2    S    
C15   C16   A    
C28   H28   S    
