data_mof_unit_35824.cif
_audit_creation_date              2012-12-10T17:23:10-0500
_audit_creation_method            fapswitch 2.2
_symmetry_space_group_name_H-M    P1
_symmetry_Int_Tables_number       1
_space_group_crystal_system       triclinic
_cell_length_a                    15.864509
_cell_length_b                    10.843551
_cell_length_c                    9.618271
_cell_angle_alpha                 89.305906
_cell_angle_beta                  89.984249
_cell_angle_gamma                 92.686595
_cell_volume                      1652.66770035

loop_
_atom_site_label
_atom_site_type_symbol
_atom_type_description
_atom_site_fract_x
_atom_site_fract_y
_atom_site_fract_z
_atom_type_partial_charge
C1    C     C_R   0.496917 0.262579 0.500834 0.904132
C2    C     C_3   0.083327 0.502796 0.500446 0.116724
C3    C     C_3   0.974523 0.578328 0.595980 0.016601
C4    C     C_3   0.916813 0.500945 0.499521 0.083858
C5    C     C_3   0.031878 0.617870 0.471708 -0.243410
C6    C     C_3   0.973672 0.538430 0.375506 -0.033398
C7    C     C_1   0.174961 0.502693 0.500834 -0.046062
C8    C     C_1   0.825077 0.500396 0.499718 -0.034287
C9    C     C_R   0.348871 0.124081 0.382083 0.409742
C10   C     C_R   0.285973 0.057698 0.308788 -0.266050
C11   C     C_R   0.288152 0.931675 0.296431 -0.269482
C12   C     C_R   0.340065 0.500802 0.500239 0.953822
C13   C     C_R   0.352467 0.866503 0.358979 0.406427
C14   C     C_R   0.420146 0.931231 0.429519 -0.004112
C15   C     C_R   0.419594 0.062692 0.437121 -0.011547
C16   C     C_R   0.488704 0.127974 0.503171 -0.115544
C17   C     C_R   0.552564 0.063949 0.569914 -0.046809
C18   C     C_R   0.550501 0.936696 0.567758 -0.253924
C19   C     C_R   0.487209 0.870093 0.496831 -0.069126
C20   C     C_R   0.611695 0.664829 0.141703 -0.129510
C21   C     C_R   0.666684 0.745115 0.068660 -0.179237
C22   C     C_R   0.667086 0.744809 0.925377 -0.181231
C23   C     C_R   0.494594 0.736709 0.498932 0.855882
C24   C     C_R   0.612449 0.664294 0.854196 -0.129074
C25   C     C_R   0.555073 0.580910 0.924187 0.196915
C26   C     C_R   0.554882 0.581020 0.073625 0.208709
C27   C     C_R   0.447827 0.422868 0.075644 -0.081272
C28   C     C_R   0.447645 0.422539 0.927965 0.033722
C29   C     C_R   0.659941 0.500154 0.500000 0.788495
C30   C     C_3   0.968632 0.386228 0.528123 -0.198552
C31   C     C_3   0.025973 0.425168 0.403662 -0.006243
C32   C     C_1   0.250435 0.501980 0.500729 -0.160851
C33   C     C_1   0.749565 0.500228 0.499905 -0.135032
C34   C     C_3   0.027166 0.464826 0.626297 -0.168733
Cu1   Cu    Cu3+1 0.499990 0.499990 0.640660 0.977488
Cu2   Cu    Cu3+1 0.500010 0.500010 0.359340 0.982974
H1    H     H_    0.237119 0.883643 0.241450 0.157955
H2    H     H_    0.600693 0.888525 0.618717 0.134869
H3    H     H_    0.405258 0.359848 0.132847 0.155809
H4    H     H_    0.616678 0.672486 0.251262 0.189050
H5    H     H_    0.709426 0.807972 0.123966 0.160354
H6    H     H_    0.710140 0.807433 0.868595 0.164509
H7    H     H_    0.618258 0.671610 0.744525 0.188093
H8    H     H_    0.942007 0.291515 0.550291 0.160346
H9    H     H_    0.058445 0.712557 0.449080 0.151668
H10   H     H_    0.050206 0.435660 0.730044 0.158210
H11   H     H_    0.232996 0.103683 0.264144 0.173326
N1    N     N_R   0.500800 0.501210 0.147910 -0.199591
N2    N     N_R   0.500830 0.501290 0.852040 -0.221910
O1    O     O_R   0.499990 0.319640 0.618810 -0.574214
O2    O     O_R   0.500000 0.319660 0.381240 -0.557312
O3    O     O_R   0.379070 0.499980 0.618770 -0.577466
O4    O     O_R   0.379080 0.500000 0.381190 -0.537153
O5    O     O_R   0.500000 0.680340 0.618760 -0.614815
O6    O     O_R   0.500010 0.680360 0.381190 -0.563874
O7    O     O_R   0.620920 0.500000 0.618810 -0.589979
O8    O     O_R   0.620930 0.500020 0.381230 -0.601110
C35   C     C_1   0.055547 0.340731 0.297931 0.232134
N3    N     N_1   0.078956 0.274222 0.214642 -0.293025
O9    O     O_3   0.348049 0.739796 0.353475 -0.736287
H12   H     H_    0.298192 0.710815 0.298523 0.317455
C36   C     C_1   0.390200 0.336929 0.858949 0.310033
N4    N     N_1   0.343827 0.267779 0.804087 -0.267977
C37   C     C_1   0.943578 0.578205 0.238541 0.242111
N5    N     N_1   0.919780 0.609512 0.130626 -0.253228
C38   C     C_1   0.945251 0.662219 0.702369 0.251278
N6    N     N_1   0.922052 0.728333 0.786244 -0.262814
C39   C     C_1   0.623220 0.127285 0.638093 0.241085
N7    N     N_1   0.679685 0.177965 0.692520 -0.272582
O10   O     O_3   0.338889 0.247287 0.406944 -0.751140
H13   H     H_    0.286798 0.274338 0.360957 0.314188

loop_
_geom_bond_atom_site_label_1
_geom_bond_atom_site_label_2
_ccdc_geom_bond_type
C27   N1    A    
C2    C7    S    
C4    C8    S    
C13   O9    S    
C5    C6    S    
C31   C35   S    
C30   C31   S    
C20   H4    S    
C15   C16   A    
C29   C33   S    
C18   C19   A    
C6    C37   S    
C11   H1    S    
Cu2   O4    S    
Cu1   Cu2   S    
C27   H3    S    
C39   N7    T    
Cu1   N2    S    
O10   H13   S    
C34   H10   S    
C1    O1    A    
C12   O4    A    
C26   N1    A    
C25   C26   A    
C2    C34   S    
C6    C31   S    
C13   C14   A    
C12   C32   S    
Cu1   O5    S    
C30   H8    S    
C12   O3    A    
C10   H11   S    
C30   C34   S    
C38   N6    T    
C24   C25   A    
C4    C6    S    
Cu2   O8    S    
C16   C17   A    
C3    C34   S    
C35   N3    T    
C5    H9    S    
O9    H12   S    
C19   C23   S    
C36   N4    T    
C28   N2    A    
Cu1   O1    S    
C17   C18   A    
C1    C16   S    
C9    O10   S    
C1    O2    A    
Cu2   O2    S    
C21   H5    S    
C29   O8    A    
C22   C24   A    
C3    C38   S    
C3    C4    S    
Cu1   O3    S    
C23   O5    A    
C9    C10   A    
C17   C39   S    
C7    C32   T    
Cu1   O7    S    
C14   C19   A    
C3    C5    S    
C23   O6    A    
C29   O7    A    
C37   N5    T    
C18   H2    S    
Cu2   O6    S    
C11   C13   A    
C22   H6    S    
C20   C26   A    
Cu2   N1    S    
C8    C33   T    
C9    C15   A    
C25   N2    A    
C10   C11   A    
C2    C5    S    
C20   C21   A    
C27   C28   A    
C24   H7    S    
C14   C15   A    
C2    C31   S    
C21   C22   A    
C4    C30   S    
C28   C36   S    
