data_mof_unit_9036.cif
_audit_creation_date              2012-10-26T21:05:19-0400
_audit_creation_method            fapswitch 2.2
_symmetry_space_group_name_H-M    P1
_symmetry_Int_Tables_number       1
_space_group_crystal_system       triclinic
_cell_length_a                    9.655339
_cell_length_b                    10.863732
_cell_length_c                    13.863364
_cell_angle_alpha                 95.010913
_cell_angle_beta                  85.132519
_cell_angle_gamma                 90.799475
_cell_volume                      1443.35672932

loop_
_atom_site_label
_atom_site_type_symbol
_atom_type_description
_atom_site_fract_x
_atom_site_fract_y
_atom_site_fract_z
_atom_type_partial_charge
C1    C     C_R   0.498480 0.737468 0.513247 0.553011
C2    C     C_R   0.615078 0.942073 0.535907 -0.121064
C3    C     C_R   0.610422 0.069504 0.534320 -0.129504
C4    C     C_R   0.477626 0.500354 0.682722 0.551246
C5    C     C_R   0.487192 0.128661 0.518837 0.006128
C6    C     C_R   0.866884 0.363845 0.352353 -0.052123
C7    C     C_R   0.935234 0.338169 0.261773 -0.151407
C8    C     C_R   0.076729 0.354572 0.249965 -0.112283
C9    C     C_R   0.151841 0.378802 0.331751 0.132981
C10   C     C_R   0.082143 0.435183 0.422275 0.144347
C11   C     C_R   0.931937 0.432451 0.426556 0.125240
C12   C     C_1   0.464577 0.499270 0.785861 0.013132
C13   C     C_R   0.920938 0.566464 0.569668 0.184674
C14   C     C_R   0.067138 0.561755 0.571301 0.012448
C15   C     C_R   0.496935 0.262200 0.504609 0.558252
C16   C     C_R   0.522614 0.503573 0.317609 0.574106
C17   C     C_1   0.536073 0.506380 0.214588 0.016265
C18   C     C_2   0.557342 0.510389 0.024292 -0.105659
C19   C     C_2   0.443442 0.496535 0.976300 -0.107697
C20   C     C_1   0.453997 0.498054 0.872691 -0.028454
C21   C     C_1   0.546805 0.508403 0.127842 -0.028811
C22   C     C_R   0.237348 0.875187 0.574513 -0.097358
C23   C     C_R   0.112936 0.915975 0.545991 -0.083177
C24   C     C_R   0.112111 0.025341 0.502047 0.091725
C25   C     C_R   0.228060 0.102637 0.502304 -0.057002
C26   C     C_R   0.359405 0.059145 0.523692 0.018536
C27   C     C_R   0.363618 0.935144 0.546822 0.022502
C28   C     C_R   0.492497 0.872757 0.535617 0.000171
Cu1   Cu    Cu3+1 0.359340 0.500010 0.500010 0.970299
Cu2   Cu    Cu3+1 0.640660 0.499990 0.499990 0.995114
H1    H     H_    0.341930 0.483700 0.014488 0.141638
H2    H     H_    0.209514 0.190849 0.478501 0.190214
H3    H     H_    0.705251 0.121899 0.541072 0.178414
H4    H     H_    0.762346 0.330987 0.360868 0.197360
H5    H     H_    0.879670 0.297700 0.202001 0.142547
H6    H     H_    0.127728 0.325149 0.179133 0.151456
H7    H     H_    0.116219 0.611936 0.630023 0.125187
H8    H     H_    0.658881 0.523097 0.986124 0.150017
H9    H     H_    0.714880 0.897803 0.535727 0.178640
H10   H     H_    0.235485 0.792775 0.612662 0.134423
H11   H     H_    0.019972 0.859763 0.553203 0.150846
I1    I     I_    0.320718 0.249884 0.297142 -0.357570
I2    I     I_    0.949388 0.064318 0.418692 -0.434396
I3    I     I_    0.820673 0.691676 0.678566 -0.391826
N1    N     N_R   0.852210 0.498790 0.499090 -0.233687
N2    N     N_R   0.148080 0.498710 0.499060 -0.257552
O1    O     O_R   0.381190 0.680360 0.500010 -0.508138
O2    O     O_R   0.618760 0.680340 0.500000 -0.473458
O3    O     O_R   0.364420 0.499990 0.637850 -0.513662
O4    O     O_R   0.601990 0.499960 0.637840 -0.462665
O5    O     O_R   0.381240 0.319660 0.500000 -0.499856
O6    O     O_R   0.618810 0.319640 0.499990 -0.517699
O7    O     O_R   0.398010 0.500040 0.362160 -0.469018
O8    O     O_R   0.635580 0.500010 0.362150 -0.516855

loop_
_geom_bond_atom_site_label_1
_geom_bond_atom_site_label_2
_ccdc_geom_bond_type
C10   N2    A    
C1    C28   S    
C23   C24   A    
C1    O2    A    
C8    H6    S    
C6    C7    A    
C15   O5    A    
C4    C12   S    
C18   C21   S    
C9    C10   A    
C4    O3    A    
Cu2   N1    S    
C19   C20   S    
C23   H11   S    
Cu1   N2    S    
C22   H10   S    
C12   C20   T    
C25   H2    S    
C2    C3    A    
C18   H8    S    
C19   H1    S    
C7    C8    A    
C14   N2    A    
Cu1   O3    S    
C15   O6    A    
C14   H7    S    
C13   N1    A    
Cu2   O8    S    
C9    I1    S    
Cu1   Cu2   S    
Cu1   O7    S    
Cu1   O1    S    
Cu2   O2    S    
C22   C27   A    
C22   C23   A    
C26   C27   A    
Cu2   O4    S    
C16   O8    A    
C11   N1    A    
C5    C15   S    
C10   C11   A    
C3    H3    S    
C5    C26   A    
C6    C11   A    
C24   C25   A    
C18   C19   D    
Cu1   O5    S    
C27   C28   A    
C24   I2    S    
Cu2   O6    S    
C16   O7    A    
C1    O1    A    
C2    C28   A    
C25   C26   A    
C13   C14   A    
C7    H5    S    
C2    H9    S    
C13   I3    S    
C17   C21   T    
C6    H4    S    
C16   C17   S    
C4    O4    A    
C8    C9    A    
C3    C5    A    
