data_mof_unit_42882.cif
_audit_creation_date              2012-12-10T17:29:20-0500
_audit_creation_method            fapswitch 2.2
_symmetry_space_group_name_H-M    P1
_symmetry_Int_Tables_number       1
_space_group_crystal_system       triclinic
_cell_length_a                    12.024956
_cell_length_b                    12.839566
_cell_length_c                    13.050228
_cell_angle_alpha                 87.093769
_cell_angle_beta                  113.260988
_cell_angle_gamma                 93.869988
_cell_volume                      1846.25655344

loop_
_atom_site_label
_atom_site_type_symbol
_atom_type_description
_atom_site_fract_x
_atom_site_fract_y
_atom_site_fract_z
_atom_type_partial_charge
C1    C     C_R   0.476669 0.299654 0.497803 0.950267
C2    C     C_R   0.612892 0.514865 0.829110 -0.107617
C3    C     C_R   0.534310 0.811428 0.491739 -0.044852
C4    C     C_R   0.567243 0.501956 0.708628 0.872088
C5    C     C_R   0.461834 0.187942 0.497675 -0.061061
C6    C     C_R   0.409918 0.028091 0.576594 -0.256257
C7    C     C_R   0.406499 0.135747 0.563948 0.048061
C8    C     C_R   0.515413 0.133540 0.439872 -0.011055
C9    C     C_R   0.523034 0.025695 0.456477 0.121261
C10   C     C_R   0.469996 0.973738 0.525746 0.142070
C11   C     C_R   0.476713 0.867341 0.543090 -0.305186
C12   C     C_R   0.571059 0.544678 0.991774 0.040646
C13   C     C_R   0.589336 0.861188 0.424212 0.101584
C14   C     C_R   0.583413 0.968678 0.406840 -0.266119
C15   C     C_R   0.010283 0.602083 0.399901 -0.334498
C16   C     C_R   0.522456 0.700265 0.499713 0.891903
C17   C     C_R   0.129678 0.591851 0.408156 0.275605
C18   C     C_R   0.158393 0.456108 0.544719 -0.057163
C19   C     C_R   0.038291 0.463082 0.538378 0.072431
C20   C     C_R   0.963545 0.537393 0.464805 0.035725
C21   C     C_R   0.843572 0.545099 0.457580 -0.075107
C22   C     C_R   0.870388 0.408382 0.592960 0.085670
C23   C     C_R   0.543245 0.562167 0.877382 0.045485
C24   C     C_R   0.991351 0.398205 0.603611 -0.046034
C25   C     C_R   0.433872 0.505915 0.290999 0.873400
C26   C     C_R   0.287622 0.632341 0.007451 -0.195179
C27   C     C_R   0.397981 0.529255 0.172371 -0.054719
C28   C     C_R   0.723565 0.473253 0.897581 -0.237029
C29   C     C_R   0.763841 0.476847 0.012705 -0.137233
C30   C     C_R   0.689627 0.512494 0.061518 0.102467
C31   C     C_1   0.823492 0.342493 0.660989 0.209380
C32   C     C_1   0.266355 0.718243 0.789126 0.136437
C33   C     C_R   0.477930 0.557993 0.029570 0.057861
C34   C     C_R   0.375889 0.616208 0.964560 0.119945
C35   C     C_R   0.364798 0.654884 0.858390 -0.031140
C36   C     C_R   0.446780 0.626103 0.814914 -0.239014
C37   C     C_R   0.479038 0.506458 0.126097 -0.257868
C38   C     C_R   0.300634 0.591311 0.112432 -0.198759
H1    H     H_    0.237177 0.610488 0.147753 0.156939
H2    H     H_    0.853445 0.451539 0.064562 0.152042
H3    H     H_    0.435618 0.655810 0.732489 0.170037
H4    H     H_    0.434828 0.827172 0.595135 0.153006
H5    H     H_    0.735604 0.830829 0.393093 0.182716
H6    H     H_    0.601397 0.815693 0.283035 0.178081
H7    H     H_    0.396575 0.175392 0.707989 0.186773
H8    H     H_    0.261740 0.165112 0.597960 0.191873
H9    H     H_    0.654944 0.180551 0.394316 0.193280
H10   H     H_    0.518554 0.158865 0.285737 0.177275
H11   H     H_    0.073838 0.338381 0.760516 0.195772
H12   H     H_    0.368752 0.987496 0.628833 0.152941
H13   H     H_    0.023827 0.248529 0.659027 0.188884
H14   H     H_    0.172505 0.734790 0.359171 0.171756
H15   H     H_    0.117399 0.646684 0.257000 0.151273
H16   H     H_    0.700518 0.587236 0.201284 0.191743
H17   H     H_    0.744655 0.460604 0.222995 0.187527
H18   H     H_    0.625077 0.005891 0.353618 0.136888
H19   H     H_    0.786207 0.602992 0.402328 0.148684
H20   H     H_    0.954578 0.659864 0.342489 0.153728
H21   H     H_    0.217730 0.399884 0.600923 0.174541
H22   H     H_    0.210169 0.678303 0.961620 0.151020
H23   H     H_    0.545430 0.449623 0.168474 0.157017
H24   H     H_    0.780151 0.439600 0.862173 0.176668
N1    N     N_R   0.798200 0.480260 0.519790 -0.123235
N2    N     N_3   0.745008 0.530861 0.179030 -0.482148
N3    N     N_R   0.201820 0.519740 0.480210 -0.105511
N4    N     N_3   0.645612 0.802356 0.369050 -0.453388
N5    N     N_3   0.352240 0.192336 0.622676 -0.442838
N6    N     N_3   0.561640 0.189531 0.365410 -0.454992
N7    N     N_1   0.786770 0.288952 0.715894 -0.229829
N8    N     N_3   0.066411 0.322641 0.680177 -0.480146
N9    N     N_3   0.175688 0.657134 0.340367 -0.401682
N10   N     N_1   0.187570 0.768857 0.733444 -0.216928
O1    O     O_R   0.579910 0.341070 0.505280 -0.599784
O2    O     O_R   0.388440 0.353740 0.492580 -0.607358
O3    O     O_R   0.643280 0.490550 0.663120 -0.613281
O4    O     O_R   0.451810 0.503220 0.650420 -0.618208
O5    O     O_R   0.611560 0.646260 0.507420 -0.598568
O6    O     O_R   0.420090 0.658930 0.494720 -0.616453
O7    O     O_R   0.548190 0.496780 0.349580 -0.618101
O8    O     O_R   0.356720 0.509450 0.336880 -0.602210
Zn1   Zn    Zn3+2 0.627850 0.491540 0.508480 0.959179
Zn2   Zn    Zn3+2 0.372150 0.508460 0.491520 0.958621

loop_
_geom_bond_atom_site_label_1
_geom_bond_atom_site_label_2
_ccdc_geom_bond_type
C14   H18   S    
C30   N2    S    
C25   O8    A    
H6    N4    S    
C35   C36   A    
C24   N8    S    
C32   N10   T    
C18   N3    A    
C12   C23   A    
N1    Zn1   S    
C1    C5    S    
C1    O2    A    
C28   C29   A    
C34   C35   A    
C38   H1    S    
C27   C38   A    
C11   H4    S    
C18   C19   A    
C4    O3    A    
C22   N1    A    
C26   C34   A    
C19   C20   A    
C8    C9    A    
H7    N5    S    
H13   N8    S    
C9    C10   A    
C3    C13   A    
C13   C14   A    
C36   H3    S    
O2    Zn2   S    
O1    Zn1   S    
C13   N4    S    
C15   C20   A    
C4    O4    A    
C22   C31   S    
C32   C35   S    
O8    Zn2   S    
O4    Zn2   S    
O7    Zn1   S    
C26   C38   A    
C33   C37   A    
C2    C4    S    
C9    C14   A    
C21   H19   S    
C29   C30   A    
O6    Zn2   S    
O5    Zn1   S    
H17   N2    S    
C33   C34   A    
C6    H12   S    
C8    N6    S    
H11   N8    S    
C15   H20   S    
C22   C24   A    
H15   N9    S    
H9    N6    S    
C5    C7    A    
C15   C17   A    
C12   C30   A    
C25   O7    A    
O3    Zn1   S    
H10   N6    S    
C6    C10   A    
C5    C8    A    
C37   H23   S    
C17   N9    S    
C6    C7    A    
C25   C27   S    
C17   N3    A    
C1    O1    A    
C19   C24   A    
H8    N5    S    
H14   N9    S    
N3    Zn2   S    
H16   N2    S    
C27   C37   A    
H5    N4    S    
C29   H2    S    
C16   O6    A    
C21   N1    A    
C3    C11   A    
C10   C11   A    
C7    N5    S    
C18   H21   S    
C31   N7    T    
C20   C21   A    
C23   C36   A    
C2    C23   A    
C16   O5    A    
C2    C28   A    
C12   C33   A    
C26   H22   S    
C3    C16   S    
C28   H24   S    
