data_mof_unit_66268.cif
_audit_creation_date              2013-03-05T16:37:08-0500
_audit_creation_method            fapswitch 2.2
_symmetry_space_group_name_H-M    P1
_symmetry_Int_Tables_number       1
_space_group_crystal_system       triclinic
_cell_length_a                    41.516793
_cell_length_b                    35.527174
_cell_length_c                    21.628119
_cell_angle_alpha                 90.00422
_cell_angle_beta                  121.287067
_cell_angle_gamma                 90.027304
_cell_volume                      27261.7582755

loop_
_atom_site_label
_atom_site_type_symbol
_atom_site_description
_atom_site_fract_x
_atom_site_fract_y
_atom_site_fract_z
_atom_type_partial_charge
O1    O     O_R   0.055440 0.968710 0.055440 -0.631681
O2    O     O_R   0.944560 0.968710 0.944560 -0.631535
O3    O     O_R   0.555440 0.468710 0.055440 -0.631595
O4    O     O_R   0.444560 0.468710 0.944560 -0.631618
O5    O     O_R   0.055440 0.031290 0.055450 -0.603281
O6    O     O_R   0.944560 0.031290 0.944550 -0.603559
O7    O     O_R   0.555440 0.531290 0.055450 -0.603537
O8    O     O_R   0.444560 0.531290 0.944550 -0.603483
C1    C     C_R   0.073402 0.000003 0.073198 0.921017
C2    C     C_R   0.926598 0.999982 0.926805 0.921240
C3    C     C_R   0.573402 0.500003 0.073185 0.921564
C4    C     C_R   0.426598 0.499982 0.926817 0.921568
O9    O     O_R   0.000000 0.968710 0.091620 -0.626588
O10   O     O_R   1.000000 0.968710 0.908380 -0.626744
O11   O     O_R   0.500000 0.468710 0.091620 -0.626977
O12   O     O_R   0.500000 0.468710 0.908380 -0.626947
O13   O     O_R   0.000000 0.031290 0.091630 -0.592212
O14   O     O_R   0.000000 0.031290 0.908370 -0.592170
O15   O     O_R   0.500000 0.531290 0.091630 -0.592326
O16   O     O_R   0.500000 0.531290 0.908370 -0.592305
C5    C     C_R   0.999874 0.999993 0.119939 0.950044
C6    C     C_R   0.000137 0.999990 0.880076 0.950335
C7    C     C_R   0.499851 0.499992 0.119908 0.950599
C8    C     C_R   0.500148 0.499990 0.880090 0.950572
Zn1   Zn    Zn3+2 1.000000 0.958210 0.000000 0.985825
Zn2   Zn    Zn3+2 0.500000 0.458210 0.000000 0.985212
Zn3   Zn    Zn3+2 1.000000 0.041790 0.000000 1.082949
Zn4   Zn    Zn3+2 0.500000 0.541790 0.000000 1.082761
C9    C     C_R   0.910144 0.908722 0.052793 -0.213708
C10   C     C_R   0.090130 0.909197 0.947725 -0.213726
C11   C     C_R   0.409481 0.409625 0.051506 -0.213894
C12   C     C_R   0.590461 0.409663 0.948395 -0.214041
H1    H     H_    0.912561 0.879458 0.041883 0.181715
H2    H     H_    0.087757 0.879965 0.958906 0.181729
H3    H     H_    0.411783 0.380445 0.039936 0.181740
H4    H     H_    0.588143 0.380479 0.959926 0.181668
C13   C     C_R   0.941223 0.926526 0.110701 -0.167138
C14   C     C_R   0.058983 0.926870 0.889795 -0.167079
C15   C     C_R   0.440719 0.427200 0.109482 -0.166885
C16   C     C_R   0.559234 0.427219 0.890430 -0.166897
H5    H     H_    0.967024 0.910829 0.143540 0.157056
H6    H     H_    0.033180 0.911104 0.857205 0.157243
H7    H     H_    0.466520 0.411408 0.141727 0.157451
H8    H     H_    0.533428 0.411409 0.858155 0.157448
C17   C     C_R   0.938888 0.964298 0.126530 0.123517
C18   C     C_R   0.061259 0.964595 0.873612 0.122579
C19   C     C_R   0.438537 0.464854 0.126172 0.121679
C20   C     C_R   0.561436 0.464879 0.873792 0.121769
C21   C     C_R   0.905249 0.984173 0.083856 -0.230823
C22   C     C_R   0.094906 0.984554 0.915957 -0.230097
C23   C     C_R   0.404885 0.484838 0.084284 -0.230125
C24   C     C_R   0.595094 0.484889 0.915721 -0.230219
H9    H     H_    0.903101 0.013383 0.095619 0.175061
H10   H     H_    0.097011 0.013728 0.903915 0.175867
H11   H     H_    0.402847 0.513955 0.096724 0.176115
H12   H     H_    0.597146 0.514010 0.903321 0.176088
C25   C     C_R   0.874050 0.966324 0.026308 -0.217337
C26   C     C_R   0.126170 0.966838 0.973534 -0.217178
C27   C     C_R   0.373533 0.467220 0.026654 -0.217085
C28   C     C_R   0.626434 0.467289 0.973338 -0.217190
C29   C     C_R   0.876082 0.928316 0.010456 0.380333
C30   C     C_R   0.124199 0.928874 0.989730 0.380229
C31   C     C_R   0.375411 0.429326 0.009961 0.380045
C32   C     C_R   0.624537 0.429390 0.989981 0.380243
C33   C     C_R   0.971315 0.984143 0.253663 -0.205135
C34   C     C_R   0.028762 0.984305 0.746421 -0.204047
C35   C     C_R   0.471131 0.484461 0.253457 -0.204007
C36   C     C_R   0.528855 0.484470 0.746526 -0.204072
H13   H     H_    0.948981 0.970173 0.256889 0.173781
H14   H     H_    0.051152 0.970451 0.743251 0.173922
H15   H     H_    0.448662 0.470707 0.256543 0.174100
H16   H     H_    0.551315 0.470727 0.743428 0.174076
C37   C     C_R   0.000279 0.002823 0.313559 -0.115329
C38   C     C_R   0.999719 0.002834 0.686453 -0.114251
C39   C     C_R   0.500283 0.502854 0.313540 -0.114713
C40   C     C_R   0.499718 0.502852 0.686463 -0.114715
C41   C     C_R   0.029236 0.021591 0.309952 -0.097738
C42   C     C_R   0.970688 0.021451 0.690003 -0.097470
C43   C     C_R   0.529421 0.521340 0.310089 -0.097445
C44   C     C_R   0.470594 0.521323 0.689931 -0.097441
C45   C     C_R   0.029628 0.019660 0.245951 0.273230
C46   C     C_R   0.970308 0.019510 0.754014 0.273263
C47   C     C_R   0.529783 0.519396 0.246060 0.273184
C48   C     C_R   0.470227 0.519375 0.753955 0.273191
C49   C     C_R   0.000552 0.000103 0.186530 -0.197153
C50   C     C_R   0.999456 0.000093 0.813490 -0.196961
C51   C     C_R   0.500532 0.500097 0.186488 -0.196746
C52   C     C_R   0.499465 0.500089 0.813509 -0.196738
C53   C     C_R   0.971093 0.982707 0.189752 -0.033087
C54   C     C_R   0.028986 0.982854 0.810333 -0.033308
C55   C     C_R   0.470903 0.482995 0.189542 -0.033320
C56   C     C_R   0.529081 0.483003 0.810439 -0.033308
C57   C     C_R   0.094714 0.027859 0.416636 -0.063170
C58   C     C_R   0.905150 0.027387 0.583417 -0.063308
C59   C     C_R   0.595051 0.526974 0.416513 -0.063449
C60   C     C_R   0.404966 0.526936 0.583520 -0.063395
H17   H     H_    0.101100 0.999912 0.405965 0.141594
H18   H     H_    0.898870 0.999431 0.594284 0.141604
H19   H     H_    0.601187 0.499048 0.405254 0.141633
H20   H     H_    0.398805 0.499010 0.594753 0.141721
C61   C     C_R   0.122327 0.048196 0.475789 -0.200191
C62   C     C_R   0.877442 0.047566 0.524182 -0.200834
C63   C     C_R   0.622884 0.546967 0.475956 -0.200864
C64   C     C_R   0.377150 0.546919 0.524097 -0.200780
H21   H     H_    0.149937 0.036010 0.510466 0.162511
H22   H     H_    0.849865 0.035250 0.489640 0.162387
H23   H     H_    0.650416 0.534543 0.510255 0.162445
H24   H     H_    0.349607 0.534487 0.489789 0.162528
C65   C     C_R   0.114476 0.084288 0.490197 -0.147701
C66   C     C_R   0.885159 0.083663 0.509503 -0.149739
C67   C     C_R   0.615346 0.583012 0.491169 -0.150258
C68   C     C_R   0.384721 0.582963 0.508915 -0.150266
H25   H     H_    0.136429 0.099632 0.536026 0.191432
H26   H     H_    0.863140 0.098875 0.463597 0.190913
H27   H     H_    0.637456 0.598079 0.537237 0.190855
H28   H     H_    0.362624 0.598022 0.462862 0.190868
C69   C     C_R   0.078818 0.100572 0.445150 0.349275
C70   C     C_R   0.920775 0.100113 0.554364 0.351610
C71   C     C_R   0.579790 0.599599 0.446632 0.351690
C72   C     C_R   0.420293 0.599562 0.553465 0.351700
C73   C     C_R   0.050970 0.079676 0.386279 -0.172451
C74   C     C_R   0.948708 0.079387 0.613353 -0.171995
C75   C     C_R   0.551736 0.579067 0.387406 -0.171682
C76   C     C_R   0.448329 0.579041 0.612671 -0.171691
C77   C     C_R   0.058819 0.043386 0.372003 0.118254
C78   C     C_R   0.941000 0.043085 0.627881 0.118267
C79   C     C_R   0.559258 0.542810 0.372357 0.118729
C80   C     C_R   0.440774 0.542783 0.627687 0.118703
C81   C     C_R   0.326167 0.999630 0.270708 -0.134963
C82   C     C_R   0.673831 0.999512 0.729293 -0.135341
C83   C     C_R   0.826166 0.499644 0.270706 -0.134966
C84   C     C_R   0.173832 0.499502 0.729293 -0.134661
H29   H     H_    0.310998 0.999574 0.212093 0.152269
H30   H     H_    0.688999 0.999441 0.787908 0.152034
H31   H     H_    0.810997 0.499589 0.212091 0.152366
H32   H     H_    0.189001 0.499429 0.787908 0.152415
C85   C     C_R   0.365380 0.999682 0.309596 -0.183744
C86   C     C_R   0.634618 0.999617 0.690404 -0.183795
C87   C     C_R   0.865380 0.499693 0.309595 -0.183442
C88   C     C_R   0.134619 0.499606 0.690404 -0.183547
C89   C     C_R   0.385338 0.999785 0.385605 -0.046316
C90   C     C_R   0.614661 0.999745 0.614395 -0.046250
C91   C     C_R   0.885337 0.499794 0.385604 -0.046466
C92   C     C_R   0.114662 0.499739 0.614395 -0.046152
C93   C     C_R   0.365499 0.999807 0.422060 -0.180097
C94   C     C_R   0.634502 0.999740 0.577942 -0.180226
C95   C     C_R   0.865498 0.499821 0.422058 -0.180420
C96   C     C_R   0.134502 0.499735 0.577942 -0.180524
C97   C     C_R   0.326294 0.999757 0.383020 -0.148952
C98   C     C_R   0.673706 0.999638 0.616983 -0.149007
C99   C     C_R   0.826293 0.499774 0.383018 -0.149298
C100  C     C_R   0.173706 0.499633 0.616983 -0.148964
H33   H     H_    0.311229 0.999801 0.411593 0.145846
H34   H     H_    0.688772 0.999665 0.588412 0.145778
H35   H     H_    0.811228 0.499821 0.411590 0.145703
H36   H     H_    0.188772 0.499663 0.588411 0.145762
C101  C     C_R   0.306773 0.999678 0.307533 0.146479
C102  C     C_R   0.693226 0.999534 0.692470 0.146640
C103  C     C_R   0.806772 0.499696 0.307530 0.146452
C104  C     C_R   0.193227 0.499528 0.692470 0.146478
C105  C     C_1   0.266731 0.999741 0.267775 -0.035967
C106  C     C_1   0.733267 0.999571 0.732232 -0.036307
C107  C     C_1   0.766730 0.499758 0.267771 -0.036094
C108  C     C_1   0.233269 0.499569 0.732231 -0.035803
C109  C     C_1   0.233066 0.999840 0.234355 -0.014752
C110  C     C_1   0.766933 0.999668 0.765660 -0.015349
C111  C     C_1   0.733064 0.499855 0.234350 -0.014514
C112  C     C_1   0.266935 0.499671 0.765657 -0.014246
C113  C     C_R   0.173706 0.032844 0.159563 -0.160984
C114  C     C_R   0.826302 0.032732 0.840391 -0.161294
C115  C     C_R   0.673702 0.532834 0.159438 -0.161140
C116  C     C_R   0.326304 0.532701 0.840592 -0.161195
H37   H     H_    0.188916 0.058286 0.162795 0.152198
H38   H     H_    0.811098 0.058173 0.837102 0.151910
H39   H     H_    0.688911 0.558263 0.162585 0.152023
H40   H     H_    0.311099 0.558115 0.837456 0.152024
C117  C     C_R   0.134506 0.032938 0.120049 -0.163378
C118  C     C_R   0.865501 0.032865 0.879899 -0.163846
C119  C     C_R   0.634502 0.532924 0.119919 -0.163793
C120  C     C_R   0.365503 0.532833 0.880108 -0.163754
H41   H     H_    0.119850 0.058571 0.092977 0.170708
H42   H     H_    0.880162 0.058526 0.906909 0.170484
H43   H     H_    0.619844 0.558539 0.092757 0.170516
H44   H     H_    0.380164 0.558465 0.907278 0.170531
C121  C     C_R   0.114561 0.000013 0.114967 -0.027274
C122  C     C_R   0.885438 0.999946 0.885047 -0.027105
C123  C     C_R   0.614560 0.500015 0.114944 -0.026852
C124  C     C_R   0.385439 0.499946 0.885065 -0.026893
C125  C     C_R   0.134260 0.967119 0.150322 -0.163167
C126  C     C_R   0.865730 0.967016 0.849770 -0.162823
C127  C     C_R   0.634260 0.467142 0.150410 -0.162353
C128  C     C_R   0.365734 0.467052 0.849590 -0.162442
H45   H     H_    0.119423 0.941443 0.147260 0.172183
H46   H     H_    0.880560 0.941344 0.852884 0.172240
H47   H     H_    0.619425 0.441480 0.147432 0.172068
H48   H     H_    0.380567 0.441406 0.852556 0.172140
C129  C     C_R   0.173449 0.967203 0.190339 -0.072980
C130  C     C_R   0.826541 0.967061 0.809760 -0.073269
C131  C     C_R   0.673449 0.467231 0.190436 -0.072893
C132  C     C_R   0.326545 0.467099 0.809566 -0.072666
H49   H     H_    0.188455 0.941698 0.217465 0.169424
H50   H     H_    0.811528 0.941530 0.782685 0.169618
H51   H     H_    0.688457 0.441741 0.217646 0.169044
H52   H     H_    0.311532 0.441594 0.782344 0.169340
C133  C     C_R   0.193032 0.999983 0.194500 0.136480
C134  C     C_R   0.806967 0.999838 0.805529 0.136175
C135  C     C_R   0.693030 0.499994 0.194490 0.137127
C136  C     C_R   0.306969 0.499842 0.805527 0.137025
O17   O     O_R   0.968720 0.055450 0.468730 -0.585082
O18   O     O_R   0.031280 0.055450 0.531270 -0.585908
O19   O     O_R   0.468720 0.555450 0.468730 -0.585839
O20   O     O_R   0.531280 0.555450 0.531270 -0.585877
C137  C     C_R   0.000025 0.073389 0.500177 0.963277
C138  C     C_R   0.500011 0.573371 0.500008 0.964975
O21   O     O_R   0.968700 0.000020 0.377090 -0.596433
O22   O     O_R   0.031300 0.000020 0.622910 -0.595359
O23   O     O_R   0.468700 0.500020 0.377090 -0.595819
O24   O     O_R   0.531300 0.500020 0.622910 -0.595870
O25   O     O_R   0.031300 0.000000 0.439680 -0.636164
O26   O     O_R   0.968700 0.000000 0.560320 -0.636741
O27   O     O_R   0.531300 0.500000 0.439680 -0.636619
O28   O     O_R   0.468700 0.500000 0.560320 -0.636600
C139  C     C_R   0.000082 0.001344 0.379734 0.921644
C140  C     C_R   0.999918 0.001344 0.620271 0.922792
C141  C     C_R   0.500084 0.501350 0.379728 0.922874
C142  C     C_R   0.499917 0.501350 0.620274 0.922913
Zn5   Zn    Zn3+2 0.958200 0.000020 0.458210 1.017958
Zn6   Zn    Zn3+2 0.041800 0.000020 0.541790 1.019041
Zn7   Zn    Zn3+2 0.458200 0.500020 0.458210 1.018404
Zn8   Zn    Zn3+2 0.541800 0.500020 0.541790 1.018261
O29   O     O_R   0.968690 0.944590 0.468690 -0.629484
O30   O     O_R   0.031310 0.944590 0.531310 -0.629455
O31   O     O_R   0.468690 0.444590 0.468690 -0.629486
O32   O     O_R   0.531310 0.444590 0.531310 -0.629517
C143  C     C_R   0.999990 0.926573 0.499990 0.854301
C144  C     C_R   0.499990 0.426573 0.499990 0.854302
O33   O     O_R   0.500000 0.055330 0.551710 -0.621768
O34   O     O_R   0.500000 0.055330 0.448290 -0.621762
O35   O     O_R   0.000000 0.555330 0.551710 -0.621754
O36   O     O_R   0.000000 0.555330 0.448290 -0.621751
C145  C     C_R   0.499998 0.073277 0.500000 0.866242
C146  C     C_R   0.999998 0.573277 0.500000 0.866266
O37   O     O_R   0.444560 0.999900 0.496290 -0.619910
O38   O     O_R   0.555440 0.999900 0.503710 -0.619930
O39   O     O_R   0.944560 0.499900 0.496290 -0.619970
O40   O     O_R   0.055440 0.499900 0.503710 -0.620481
O41   O     O_R   0.444560 0.999880 0.392840 -0.619689
O42   O     O_R   0.555440 0.999880 0.607160 -0.619730
O43   O     O_R   0.944560 0.499880 0.392840 -0.619121
O44   O     O_R   0.055440 0.499880 0.607160 -0.619643
C147  C     C_R   0.426613 0.999861 0.426681 0.871182
C148  C     C_R   0.573387 0.999856 0.573319 0.871094
C149  C     C_R   0.926613 0.499863 0.426680 0.871660
C150  C     C_R   0.073387 0.499854 0.573319 0.870679
Zn9   Zn    Zn3+2 0.500000 0.999910 0.569080 0.985206
Zn10  Zn    Zn3+2 0.500000 0.999910 0.430920 0.985232
Zn11  Zn    Zn3+2 0.000000 0.499910 0.569080 0.985233
Zn12  Zn    Zn3+2 0.000000 0.499910 0.430920 0.985188
O45   O     O_R   0.500000 0.944470 0.551750 -0.615958
O46   O     O_R   0.500000 0.944470 0.448250 -0.615954
O47   O     O_R   1.000000 0.444470 0.551750 -0.615820
O48   O     O_R   0.000000 0.444470 0.448250 -0.615977
C151  C     C_R   0.500001 0.926559 0.499999 0.926121
C152  C     C_R   0.000170 0.426547 0.500164 0.925759
C153  C     C_R   0.501238 0.826325 0.558021 0.301084
C154  C     C_R   0.498867 0.826322 0.442056 0.301078
C155  C     C_R   0.005653 0.326406 0.562365 0.300150
C156  C     C_R   0.004608 0.326362 0.447706 0.296166
C157  C     C_R   0.500733 0.865611 0.556718 -0.235805
C158  C     C_R   0.499325 0.865609 0.443323 -0.235800
C159  C     C_R   0.003221 0.365632 0.559168 -0.236438
C160  C     C_R   0.002215 0.365596 0.446163 -0.234385
H53   H     H_    0.501609 0.880806 0.600987 0.207802
H54   H     H_    0.498433 0.880801 0.399041 0.207805
H55   H     H_    0.003195 0.380836 0.602550 0.208246
H56   H     H_    0.001382 0.380777 0.401930 0.208530
C161  C     C_R   0.500017 0.885340 0.500011 -0.162427
C162  C     C_R   0.001534 0.385325 0.501504 -0.162706
C163  C     C_R   0.500064 0.806673 0.500049 -0.134572
C164  C     C_R   0.005843 0.306752 0.505745 -0.128533
C165  C     C_1   0.500077 0.766563 0.500059 0.151280
C166  C     C_1   0.004081 0.266647 0.504118 0.145468
C167  C     C_1   0.002677 0.233064 0.503024 0.123591
C168  C     C_1   0.500079 0.732967 0.500058 0.127414
C169  C     C_R   0.028669 0.173399 0.562587 -0.062219
C170  C     C_R   0.973549 0.174315 0.441724 -0.077052
C171  C     C_R   0.527424 0.673795 0.560729 -0.068042
C172  C     C_R   0.472701 0.673780 0.439346 -0.068111
H57   H     H_    0.049895 0.188604 0.609799 0.195732
H58   H     H_    0.952956 0.190238 0.394995 0.185171
H59   H     H_    0.548167 0.689384 0.607878 0.195267
H60   H     H_    0.451970 0.689357 0.392206 0.195281
C173  C     C_R   0.028019 0.134173 0.563312 0.298382
C174  C     C_R   0.972914 0.135038 0.439566 0.309082
C175  C     C_R   0.527394 0.634546 0.562163 0.303336
C176  C     C_R   0.472696 0.634531 0.437887 0.303321
C177  C     C_R   0.000216 0.114599 0.501022 -0.316640
C178  C     C_R   0.500035 0.614548 0.500020 -0.314183
C179  C     C_R   0.001501 0.193140 0.502454 0.024542
C180  C     C_R   0.500070 0.693054 0.500044 0.018084
C181  C     C_R   0.499939 0.173607 0.443870 -0.152936
C182  C     C_R   0.499943 0.173608 0.556037 -0.152936
C183  C     C_R   0.999939 0.673607 0.443869 -0.152890
C184  C     C_R   0.999943 0.673608 0.556037 -0.152887
C185  C     C_R   0.499965 0.134432 0.443812 -0.188317
C186  C     C_R   0.499968 0.134433 0.556138 -0.188326
C187  C     C_R   0.999965 0.634432 0.443812 -0.188286
C188  C     C_R   0.999968 0.634433 0.556138 -0.188289
H61   H     H_    0.499972 0.119787 0.399905 0.163880
H62   H     H_    0.499979 0.119789 0.600060 0.163875
H63   H     H_    0.999972 0.619787 0.399905 0.163898
H64   H     H_    0.999979 0.619789 0.600060 0.163895
C189  C     C_R   0.499979 0.114538 0.499986 -0.043873
C190  C     C_R   0.999980 0.614538 0.499986 -0.043901
C191  C     C_R   0.499928 0.193071 0.499942 0.153114
C192  C     C_R   0.999928 0.693071 0.499942 0.153081
C193  C     C_1   0.499916 0.233110 0.499933 -0.054982
C194  C     C_1   0.999915 0.733110 0.499933 -0.054927
C195  C     C_1   0.999915 0.766764 0.499932 -0.055253
C196  C     C_1   0.499915 0.266763 0.499933 -0.055302
C197  C     C_R   0.034127 0.826271 0.534503 -0.153851
C198  C     C_R   0.965751 0.826261 0.465398 -0.153843
C199  C     C_R   0.534127 0.326271 0.534491 -0.153998
C200  C     C_R   0.465751 0.326261 0.465411 -0.153766
H65   H     H_    0.060666 0.811187 0.561330 0.144392
H66   H     H_    0.939198 0.811170 0.438561 0.144377
H67   H     H_    0.560666 0.311187 0.561308 0.144267
H68   H     H_    0.439198 0.311170 0.438584 0.144440
C201  C     C_R   0.034193 0.865445 0.534561 -0.191013
C202  C     C_R   0.965722 0.865437 0.465367 -0.191074
C203  C     C_R   0.534193 0.365445 0.534549 -0.191082
C204  C     C_R   0.465722 0.365437 0.465380 -0.191022
H69   H     H_    0.060963 0.880105 0.561622 0.164104
H70   H     H_    0.938967 0.880091 0.438317 0.164045
H71   H     H_    0.560963 0.380105 0.561600 0.164013
H72   H     H_    0.438967 0.380091 0.438341 0.164089
C205  C     C_R   0.999967 0.885326 0.499971 -0.040529
C206  C     C_R   0.499967 0.385326 0.499972 -0.040472
C207  C     C_R   0.999930 0.806803 0.499944 0.151891
C208  C     C_R   0.499930 0.306803 0.499945 0.151921
N1    N     N_R   0.843681 0.909638 0.952431 0.199820
O49   O     O_R   0.846628 0.876012 0.931997 -0.386552
O50   O     O_R   0.810732 0.925713 0.920664 -0.396989
N2    N     N_R   0.156667 0.910325 0.047763 0.199879
O51   O     O_R   0.153799 0.876741 0.068478 -0.386842
O52   O     O_R   0.189596 0.926477 0.079275 -0.396900
N3    N     N_R   0.342850 0.410867 0.951894 0.199957
O53   O     O_R   0.345606 0.377357 0.930760 -0.386871
O54   O     O_R   0.309955 0.427036 0.920739 -0.396634
N4    N     N_R   0.657086 0.410952 0.048038 0.199817
O55   O     O_R   0.654310 0.377434 0.069127 -0.387671
O56   O     O_R   0.689988 0.427146 0.079226 -0.397172
N5    N     N_R   0.071115 0.138221 0.458451 0.202231
O57   O     O_R   0.040563 0.155532 0.410731 -0.368640
O58   O     O_R   0.095227 0.156071 0.517112 -0.354955
N6    N     N_R   0.928358 0.137751 0.540727 0.200697
O59   O     O_R   0.958952 0.155162 0.588114 -0.376862
O60   O     O_R   0.904139 0.155457 0.482008 -0.359898
N7    N     N_R   0.572384 0.637177 0.460852 0.200787
O61   O     O_R   0.541950 0.654817 0.413601 -0.375679
O62   O     O_R   0.596612 0.654601 0.519987 -0.358976
N8    N     N_R   0.427733 0.637139 0.539274 0.200793
O63   O     O_R   0.458186 0.654789 0.586537 -0.375660
O64   O     O_R   0.403521 0.654552 0.480154 -0.358991
H73   H     H_    0.023276 0.091593 0.351142 0.203919
H74   H     H_    0.976360 0.091445 0.648381 0.204616
H75   H     H_    0.524125 0.591231 0.352634 0.204356
H76   H     H_    0.475951 0.591213 0.647452 0.204363
H77   H     H_    0.380001 0.999654 0.280218 0.167478
H78   H     H_    0.619996 0.999607 0.719780 0.167414
H79   H     H_    0.880001 0.499662 0.280218 0.167675
H80   H     H_    0.119997 0.499594 0.719781 0.167536
H81   H     H_    0.380205 0.999880 0.480596 0.166568
H82   H     H_    0.619796 0.999829 0.519406 0.166531
H83   H     H_    0.880204 0.499893 0.480594 0.166463
H84   H     H_    0.119796 0.499827 0.519406 0.166321
N9    N     N_R   0.502874 0.807086 0.618305 0.224827
O65   O     O_R   0.488446 0.822609 0.653022 -0.347319
O66   O     O_R   0.522311 0.776275 0.644002 -0.356258
N10   N     N_R   0.497252 0.807079 0.381789 0.224833
O67   O     O_R   0.511660 0.822636 0.347055 -0.347342
O68   O     O_R   0.477850 0.776222 0.356120 -0.356267
N11   N     N_R   0.007635 0.307155 0.622952 0.224149
O69   O     O_R   0.992755 0.322237 0.657224 -0.348318
O70   O     O_R   0.027684 0.276727 0.649148 -0.353887
N12   N     N_R   0.005476 0.307067 0.389919 0.218143
O71   O     O_R   0.989812 0.322187 0.325893 -0.352945
O72   O     O_R   0.025227 0.276516 0.402511 -0.331510
N13   N     N_R   0.054933 0.114894 0.628394 0.226168
O73   O     O_R   0.043766 0.089245 0.656100 -0.402069
O74   O     O_R   0.089518 0.127001 0.666022 -0.336386
N14   N     N_R   0.945506 0.116636 0.373716 0.225803
O75   O     O_R   0.911513 0.130141 0.335730 -0.336642
O76   O     O_R   0.955952 0.090585 0.345473 -0.401578
N15   N     N_R   0.554314 0.615713 0.627859 0.226259
O77   O     O_R   0.588451 0.628803 0.666708 -0.334844
O78   O     O_R   0.543311 0.589598 0.655021 -0.402790
N16   N     N_R   0.445762 0.615683 0.372177 0.226276
O79   O     O_R   0.411637 0.628761 0.333333 -0.334827
O80   O     O_R   0.456743 0.589563 0.345003 -0.402778
H85   H     H_    0.499930 0.188695 0.400314 0.142932
H86   H     H_    0.499937 0.188697 0.599581 0.142932
H87   H     H_    0.999930 0.688695 0.400313 0.142965
H88   H     H_    0.999937 0.688697 0.599580 0.142965
H89   H     H_    0.848329 0.982224 0.994243 0.189258
H90   H     H_    0.151895 0.982802 0.005341 0.189399
H91   H     H_    0.347809 0.483203 0.995206 0.189378
H92   H     H_    0.652164 0.483291 0.004818 0.189377
N17   N     N_R   0.059734 0.036854 0.241490 0.207684
O81   O     O_R   0.067053 0.072536 0.255107 -0.348778
O82   O     O_R   0.080300 0.016641 0.224909 -0.420774
N18   N     N_R   0.940146 0.036556 0.758437 0.207535
O83   O     O_R   0.932705 0.072206 0.744732 -0.349526
O84   O     O_R   0.919641 0.016237 0.775045 -0.421092
N19   N     N_R   0.560022 0.536332 0.241704 0.207353
O85   O     O_R   0.567656 0.571948 0.255643 -0.349239
O86   O     O_R   0.580422 0.515937 0.224981 -0.421479
N20   N     N_R   0.439998 0.536292 0.758324 0.207365
O87   O     O_R   0.432390 0.571905 0.744426 -0.349230
O88   O     O_R   0.419583 0.515884 0.775022 -0.421414

loop_
_geom_bond_atom_site_label_1
_geom_bond_atom_site_label_2
_geom_bond_distance
_ccdc_geom_bond_type
O1    Zn1   2.001810 S    
O43   C149  1.287357 A    
C51   C55   1.403669 A    
C182  C191  1.396197 A    
C130  C134  1.395882 A    
C90   C94   1.405197 A    
C64   H24   1.082330 S    
C69   N5    1.438762 S    
C66   C70   1.406533 A    
C165  C168  1.193575 T    
C33   C53   1.378465 A    
C166  C167  1.194126 T    
C186  H62   1.082934 S    
C114  C118  1.390784 A    
Zn11  O47   2.004942 S    
O45   C151  1.287487 A    
C113  C133  1.396053 A    
C59   H19   1.083104 S    
C197  C207  1.396248 A    
O27   C141  1.271951 A    
C197  C201  1.391760 A    
C10   C14   1.397942 A    
C201  C205  1.405178 A    
C97   H33   1.083756 S    
C183  C192  1.396195 A    
C138  C178  1.462924 S    
C100  H36   1.083756 S    
O28   Zn7   2.016766 S    
C144  C206  1.465375 S    
O44   C150  1.287356 A    
C112  C136  1.420383 S    
C99   H35   1.083758 S    
O4    C4    1.281143 A    
O19   Zn7   2.004113 S    
C89   C93   1.405199 A    
C132  C136  1.395896 A    
C73   H73   1.082466 S    
C82   H30   1.083748 S    
O32   C144  1.282064 A    
N5    O58   1.301549 A    
C184  C192  1.396199 A    
C175  N15   1.437743 S    
C171  C180  1.390401 A    
C200  C208  1.396258 A    
C108  C112  1.194452 T    
N14   O76   1.301232 A    
C50   C54   1.403705 A    
C57   C61   1.395991 A    
C68   C72   1.406496 A    
C10   H2    1.082299 S    
O16   Zn4   2.016561 S    
O39   C149  1.287111 A    
O17   C137  1.280212 A    
O7    Zn4   2.002255 S    
O26   Zn5   2.016766 S    
C122  C126  1.403846 A    
C193  C196  1.195607 T    
O15   C7    1.270640 A    
O22   C140  1.275059 A    
C42   C46   1.394415 A    
C181  C185  1.391782 A    
C36   H16   1.085219 S    
C172  C180  1.390397 A    
O9    C5    1.270280 A    
C187  C190  1.405322 A    
C172  C176  1.394744 A    
C118  H42   1.083021 S    
C197  H65   1.083718 S    
C81   H29   1.083748 S    
O42   C148  1.287352 A    
C60   C64   1.395974 A    
N13   O73   1.301026 A    
C89   C147  1.464412 S    
C173  N13   1.437446 S    
C204  C206  1.405185 A    
N11   O69   1.301582 A    
C82   C86   1.391266 A    
C104  C108  1.420657 S    
C41   C77   1.481915 S    
C15   C19   1.400739 A    
C114  H38   1.083669 S    
C125  C129  1.390550 A    
C16   C20   1.400740 A    
C43   C79   1.481973 S    
C160  C162  1.399906 A    
O18   Zn6   2.004555 S    
O35   Zn11  2.004467 S    
O3    Zn2   2.001810 S    
C48   C52   1.406740 A    
C183  C187  1.391786 A    
C25   C29   1.406465 A    
C71   C75   1.406746 A    
C182  C186  1.391786 A    
C27   C31   1.406464 A    
C28   C32   1.406463 A    
C34   H14   1.085231 S    
C21   H9    1.083158 S    
C184  H88   1.083721 S    
C36   C56   1.378453 A    
C171  C175  1.394767 A    
Zn8   O32   2.003909 S    
C23   H11   1.083177 S    
C128  C132  1.390581 A    
N4    O55   1.301456 A    
O3    C3    1.281125 A    
C118  C122  1.403747 A    
C167  C179  1.419026 S    
C20   C24   1.401127 A    
C81   C85   1.391277 A    
C58   C62   1.395988 A    
O38   Zn10  2.003144 S    
C195  C207  1.422487 S    
N7    O61   1.301287 A    
C37   C41   1.411580 A    
C63   H23   1.082327 S    
N17   O81   1.301058 A    
C39   C43   1.411818 A    
O24   C142  1.275124 A    
C105  C109  1.194442 T    
C120  H44   1.083023 S    
N10   O67   1.301575 A    
Zn5   O29   2.004349 S    
C9    H1    1.082260 S    
C155  N11   1.442143 S    
C71   N7    1.438737 S    
O43   Zn12  2.001788 S    
C48   N20   1.438445 S    
O5    C1    1.281595 A    
O22   Zn6   2.015588 S    
C156  N12   1.442205 S    
C12   H4    1.082276 S    
C158  C161  1.399520 A    
C63   C67   1.397617 A    
N18   O83   1.301057 A    
N8    O63   1.301288 A    
C34   C38   1.394966 A    
C169  H57   1.084363 S    
C155  C164  1.413195 A    
C21   C25   1.397725 A    
C170  C174  1.395946 A    
C67   C71   1.406497 A    
C70   C74   1.406777 A    
C196  C208  1.422487 S    
C24   C28   1.397721 A    
O5    Zn3   2.002255 S    
C87   C91   1.405105 A    
C156  C160  1.396615 A    
C88   H80   1.082945 S    
O27   Zn8   2.016763 S    
C130  H50   1.083685 S    
N19   O86   1.300700 A    
C27   H91   1.082487 S    
O25   Zn6   2.016763 S    
C66   H26   1.082326 S    
C199  H67   1.083719 S    
O8    C4    1.281566 A    
O41   Zn10  2.001788 S    
C163  C165  1.424974 S    
C199  C208  1.396246 A    
C94   C98   1.390947 A    
C97   C101  1.395731 A    
C115  C119  1.390811 A    
Zn12  O48   2.004996 S    
C113  C117  1.390814 A    
C59   C63   1.395977 A    
O7    C3    1.281583 A    
N20   O88   1.300709 A    
N1    O50   1.301566 A    
C9    C29   1.406738 A    
O37   C147  1.287107 A    
C37   C139  1.436480 S    
C95   H83   1.082945 S    
O13   Zn3   2.016615 S    
C11   C31   1.406741 A    
C39   C141  1.436832 S    
C12   C32   1.406745 A    
C64   C68   1.397617 A    
C44   C80   1.481981 S    
C127  H47   1.083034 S    
C92   C150  1.464415 S    
C99   C103  1.395731 A    
C95   C99   1.390950 A    
C73   C77   1.403082 A    
C75   C79   1.403071 A    
C86   H78   1.082943 S    
C84   H32   1.083750 S    
C145  C189  1.465880 S    
N6    O60   1.301525 A    
C157  C161  1.399519 A    
C83   C103  1.395976 A    
O15   Zn4   2.016615 S    
N16   O80   1.301153 A    
C170  C179  1.391116 A    
C35   C39   1.395006 A    
C202  C205  1.405184 A    
C115  C135  1.396053 A    
C172  H60   1.084256 S    
C57   H17   1.083121 S    
C68   H28   1.082315 S    
O39   Zn11  2.003150 S    
C185  C189  1.405324 A    
O14   C6    1.270651 A    
O37   Zn9   2.003150 S    
C40   C44   1.411823 A    
O47   C152  1.287789 A    
C121  C125  1.403828 A    
O41   C147  1.287353 A    
C154  C163  1.413627 A    
C36   C40   1.395010 A    
O18   C137  1.279342 A    
C110  C134  1.420372 S    
O33   C145  1.287383 A    
C124  C128  1.403820 A    
C46   N18   1.438457 S    
O10   C6    1.270223 A    
C182  H86   1.083721 S    
C109  C133  1.420375 S    
C117  H41   1.083020 S    
C60   H20   1.083104 S    
C2    C122  1.460417 S    
O21   Zn5   2.015587 S    
C13   H5    1.083153 S    
O31   C144  1.282096 A    
C93   C97   1.390947 A    
N9    O66   1.301301 A    
C83   C87   1.391280 A    
C125  H45   1.083037 S    
C184  C188  1.391786 A    
O19   C138  1.279442 A    
C199  C203  1.391760 A    
N2    O51   1.301475 A    
C20   C56   1.478402 S    
C113  H37   1.083668 S    
O29   C143  1.282096 A    
O36   Zn12  2.004413 S    
C45   C49   1.406881 A    
C116  H40   1.083667 S    
O23   C141  1.275116 A    
C26   C30   1.406490 A    
C47   C51   1.406737 A    
C129  C133  1.395881 A    
C44   C48   1.394405 A    
C85   H77   1.082941 S    
N5    O57   1.301314 A    
O42   Zn9   2.001788 S    
C65   C69   1.406521 A    
C34   C54   1.378460 A    
O34   C145  1.287384 A    
C22   H10   1.083200 S    
C29   N1    1.438877 S    
C128  H48   1.083035 S    
C114  C134  1.396043 A    
C154  N10   1.442203 S    
C35   H15   1.085219 S    
C119  C123  1.403743 A    
C58   H18   1.083117 S    
C61   C65   1.397637 A    
C198  C202  1.391792 A    
C38   C140  1.436656 S    
C117  C121  1.403753 A    
C60   C80   1.401305 A    
C192  C194  1.422491 S    
C153  C157  1.395969 A    
O24   Zn8   2.015588 S    
C120  C124  1.403728 A    
C106  C110  1.194437 T    
C155  C159  1.396402 A    
C153  N9    1.442195 S    
C143  C205  1.465375 S    
C103  C107  1.420653 S    
C17   C53   1.478262 S    
O44   Zn11  2.001788 S    
O6    Zn3   2.001814 S    
C76   C80   1.403074 A    
C116  C120  1.390792 A    
C176  C178  1.419450 A    
C131  H51   1.083682 S    
O46   C151  1.287497 A    
C183  H87   1.083723 S    
O12   Zn2   2.016402 S    
C5    C49   1.425819 S    
C90   C148  1.464404 S    
C170  H58   1.084190 S    
C22   C26   1.397732 A    
C96   C100  1.390954 A    
O1    C1    1.281125 A    
C174  C177  1.419490 A    
C86   C90   1.405102 A    
N3    O53   1.301454 A    
C49   C53   1.403751 A    
C19   C23   1.401128 A    
O40   C150  1.287110 A    
C203  H71   1.082962 S    
C46   C50   1.406804 A    
C168  C180  1.417999 S    
C26   H90   1.082515 S    
O21   C139  1.274953 A    
C91   C95   1.405202 A    
C93   H81   1.082945 S    
C200  H68   1.083718 S    
C35   C55   1.378457 A    
C47   N19   1.438451 S    
C74   H74   1.082377 S    
N4    O56   1.301596 A    
C8    C52   1.425515 S    
C188  C190  1.405325 A    
O20   C138  1.279461 A    
C158  H54   1.083139 S    
C10   C30   1.406766 A    
C3    C123  1.460369 S    
C62   C66   1.397635 A    
C42   C78   1.481951 S    
C101  C105  1.420646 S    
Zn6   O30   2.003909 S    
C126  C130  1.390573 A    
N10   O68   1.301306 A    
C85   C89   1.405105 A    
C181  C191  1.396197 A    
C98   C102  1.395731 A    
C70   N6    1.438797 S    
C186  C189  1.405327 A    
C19   C55   1.478401 S    
O33   Zn9   2.004467 S    
C88   C92   1.405102 A    
C127  C131  1.390557 A    
N14   O75   1.301294 A    
C87   H79   1.082941 S    
O6    C2    1.281576 A    
O4    Zn2   2.002255 S    
N15   O77   1.301296 A    
C18   C54   1.478329 S    
C84   C88   1.391276 A    
C156  C164  1.413160 A    
C75   H75   1.082356 S    
C146  C190  1.465880 S    
C157  H53   1.083142 S    
C82   C102  1.395977 A    
N18   O84   1.300730 A    
N12   O71   1.301582 A    
C43   C47   1.394412 A    
N8    O64   1.301490 A    
C33   H13   1.085235 S    
C17   C21   1.401089 A    
O2    Zn1   2.002255 S    
C187  H63   1.082933 S    
C6    C50   1.425663 S    
O10   Zn1   2.016402 S    
C173  C177  1.419482 A    
O13   C5    1.270674 A    
O25   C139  1.271924 A    
C59   C79   1.401301 A    
C15   H7    1.083166 S    
C38   C42   1.411716 A    
C9    C13   1.397933 A    
N13   O74   1.301801 A    
O17   Zn5   2.004113 S    
C30   N2    1.438888 S    
C137  C177  1.464143 S    
C100  C104  1.395734 A    
N12   O72   1.301377 A    
C92   C96   1.405199 A    
C81   C101  1.395976 A    
C198  H66   1.083717 S    
N1    O49   1.301422 A    
C159  H55   1.083097 S    
C84   C104  1.395973 A    
C181  H85   1.083722 S    
C164  C166  1.426172 S    
C14   H6    1.083191 S    
C1    C121  1.460392 S    
C185  H61   1.082935 S    
O28   C142  1.271947 A    
C4    C124  1.460374 S    
Zn10  O46   2.004996 S    
C33   C37   1.394896 A    
C202  H70   1.082962 S    
C94   H82   1.082946 S    
C69   C73   1.406801 A    
O23   Zn7   2.015587 S    
C198  C207  1.396257 A    
C72   C76   1.406747 A    
C159  C162  1.399731 A    
O16   C8    1.270633 A    
C152  C162  1.465333 S    
C129  H49   1.083685 S    
C41   C45   1.394452 A    
N17   O82   1.300721 A    
C123  C127  1.403812 A    
C160  H56   1.083087 S    
C176  N16   1.437745 S    
O11   C7    1.270159 A    
C32   N4    1.438894 S    
O12   C8    1.270168 A    
C7    C51   1.425516 S    
C169  C179  1.390249 A    
Zn7   O31   2.004349 S    
O9    Zn1   2.016346 S    
C175  C178  1.419455 A    
C119  H43   1.083020 S    
C58   C78   1.401290 A    
C61   H21   1.082341 S    
Zn9   O45   2.004942 S    
C191  C193  1.422491 S    
C14   C18   1.400723 A    
C40   C142  1.436835 S    
C52   C56   1.403668 A    
C116  C136  1.396049 A    
C154  C158  1.395971 A    
C31   N3    1.438893 S    
C126  H46   1.083036 S    
C153  C163  1.413622 A    
O11   Zn2   2.016346 S    
O48   C152  1.287665 A    
C151  C161  1.464399 S    
C115  H39   1.083667 S    
O30   C143  1.282064 A    
O34   Zn10  2.004413 S    
C111  C135  1.420381 S    
C74   C78   1.403066 A    
C107  C111  1.194445 T    
N11   O70   1.301376 A    
C194  C195  1.195607 T    
O40   Zn12  2.003144 S    
C132  H52   1.083684 S    
N3    O54   1.301590 A    
O20   Zn8   2.004555 S    
C83   H31   1.083748 S    
N19   O85   1.301060 A    
C16   H8    1.083170 S    
C131  C135  1.395893 A    
O36   C146  1.287384 A    
N7    O62   1.301492 A    
N9    O65   1.301586 A    
C57   C77   1.401283 A    
N2    O52   1.301591 A    
C174  N14   1.437544 S    
C91   C149  1.464425 S    
C171  H59   1.084254 S    
C23   C27   1.397726 A    
O2    C2    1.281153 A    
O26   C140  1.271919 A    
C45   N17   1.438469 S    
N20   O87   1.301061 A    
C28   H92   1.082491 S    
C201  H69   1.082961 S    
O38   C148  1.287106 A    
O14   Zn3   2.016561 S    
C204  H72   1.082962 S    
C25   H89   1.082486 S    
C203  C206  1.405176 A    
C65   H25   1.082331 S    
C200  C204  1.391792 A    
C18   C22   1.401131 A    
N15   O78   1.301156 A    
O8    Zn4   2.001814 S    
N6    O59   1.301331 A    
C11   C15   1.397938 A    
C62   H22   1.082342 S    
O35   C146  1.287383 A    
C11   H3    1.082273 S    
C12   C16   1.397937 A    
C76   H76   1.082356 S    
C102  C106  1.420639 S    
C188  H64   1.082934 S    
C96   H84   1.082946 S    
C98   H34   1.083757 S    
C169  C173  1.394088 A    
N16   O79   1.301286 A    
C67   H27   1.082314 S    
C72   N8    1.438741 S    
C13   C17   1.400680 A    
C24   H12   1.083180 S    
