data_mof_unit_64411.cif
_audit_creation_date              2012-12-10T18:00:55-0500
_audit_creation_method            fapswitch 2.2
_symmetry_space_group_name_H-M    P1
_symmetry_Int_Tables_number       1
_space_group_crystal_system       triclinic
_cell_length_a                    30.618324
_cell_length_b                    30.770252
_cell_length_c                    24.694198
_cell_angle_alpha                 89.99982
_cell_angle_beta                  128.022405
_cell_angle_gamma                 90.00001
_cell_volume                      18327.6507649

loop_
_atom_site_label
_atom_site_type_symbol
_atom_type_description
_atom_site_fract_x
_atom_site_fract_y
_atom_site_fract_z
_atom_type_partial_charge
C1    C     C_R   0.809009 0.809449 0.498889 0.873669
C2    C     C_R   0.190222 0.809210 0.499268 0.806116
C3    C     C_R   0.309787 0.309209 0.500753 0.806708
C4    C     C_R   0.690992 0.309449 0.501114 0.873360
C5    C     C_R   0.646733 0.750971 0.291573 -0.130727
C6    C     C_R   0.353710 0.751337 0.709097 -0.160506
C7    C     C_R   0.146299 0.251342 0.290907 -0.158973
C8    C     C_R   0.853264 0.250977 0.708430 -0.131936
C9    C     C_R   0.463902 0.746841 0.930643 0.440569
C10   C     C_R   0.534090 0.746876 0.070395 0.443952
C11   C     C_R   0.965887 0.246886 0.929611 0.443980
C12   C     C_R   0.036081 0.246852 0.069362 0.440311
C13   C     C_R   0.887377 0.832304 0.499708 0.011402
C14   C     C_R   0.106369 0.854712 0.438926 -0.018413
C15   C     C_R   0.393509 0.354860 0.561149 -0.016978
C16   C     C_R   0.612670 0.332304 0.500391 0.011024
C17   C     C_R   0.843175 0.843032 0.500230 -0.048938
C18   C     C_R   0.157326 0.842420 0.499718 -0.009410
C19   C     C_R   0.342681 0.342417 0.500304 -0.009700
C20   C     C_R   0.656825 0.343030 0.499771 -0.048771
C21   C     C_R   0.835495 0.887077 0.508282 -0.170565
C22   C     C_R   0.179911 0.867078 0.559349 -0.163287
C23   C     C_R   0.320195 0.366920 0.440561 -0.163581
C24   C     C_R   0.664447 0.387069 0.491614 -0.171878
C25   C     C_R   0.867866 0.919301 0.508656 -0.119256
C26   C     C_R   0.148735 0.900275 0.559417 -0.185347
C27   C     C_R   0.351358 0.400123 0.440482 -0.186069
C28   C     C_R   0.632073 0.419294 0.491233 -0.120682
C29   C     C_R   0.908579 0.907690 0.502013 -0.010714
C30   C     C_R   0.095192 0.909692 0.499177 -0.054084
C31   C     C_R   0.404796 0.409689 0.500807 -0.055759
C32   C     C_R   0.591419 0.407689 0.497986 -0.010548
C33   C     C_R   0.921010 0.864027 0.503596 -0.002917
C34   C     C_R   0.076738 0.888725 0.438260 0.121350
C35   C     C_R   0.423133 0.388865 0.561779 0.123869
C36   C     C_R   0.579037 0.364025 0.496506 -0.004097
C37   C     C_3   0.930757 0.839535 0.459903 -0.464798
C38   C     C_3   0.022076 0.868471 0.384020 -0.437267
C39   C     C_3   0.477799 0.368726 0.616292 -0.435743
C40   C     C_3   0.569364 0.339565 0.540292 -0.464224
C41   C     C_3   0.891788 0.804956 0.452733 0.244209
C42   C     C_3   0.054323 0.830022 0.385682 0.200467
C43   C     C_3   0.445565 0.330288 0.614689 0.200274
C44   C     C_3   0.608337 0.304990 0.547462 0.244155
C45   C     C_R   0.684356 0.750619 0.367505 0.899571
C46   C     C_R   0.315764 0.750754 0.632728 0.833274
C47   C     C_R   0.184239 0.250756 0.367273 0.834205
C48   C     C_R   0.815643 0.250620 0.632496 0.898556
C49   C     C_R   0.831495 0.752422 0.746228 0.161170
C50   C     C_R   0.168801 0.750284 0.254104 0.162630
C51   C     C_R   0.331205 0.250253 0.745895 0.163222
C52   C     C_R   0.668512 0.252418 0.253776 0.160706
C53   C     C_R   0.868625 0.751348 0.818426 -0.130450
C54   C     C_R   0.131723 0.749261 0.181893 -0.132465
C55   C     C_R   0.368286 0.249233 0.818106 -0.132293
C56   C     C_R   0.631384 0.251346 0.181577 -0.130593
C57   C     C_R   0.925901 0.746329 0.853910 0.006149
C58   C     C_R   0.074192 0.746556 0.146284 0.005774
C59   C     C_R   0.425820 0.246568 0.853714 0.005880
C60   C     C_R   0.574107 0.246331 0.146089 0.006152
C61   C     C_R   0.945814 0.741811 0.816004 -0.139716
C62   C     C_R   0.053962 0.744416 0.184074 -0.140608
C63   C     C_R   0.446051 0.244467 0.815922 -0.139741
C64   C     C_R   0.554191 0.241814 0.183992 -0.140726
C65   C     C_R   0.909395 0.742590 0.744288 -0.210056
C66   C     C_R   0.090332 0.745155 0.255772 -0.213442
C67   C     C_R   0.409678 0.245203 0.744223 -0.212778
C68   C     C_R   0.590607 0.242591 0.255708 -0.211009
C69   C     C_R   0.852246 0.748397 0.708559 -0.028863
C70   C     C_R   0.147739 0.748527 0.291573 -0.026805
C71   C     C_R   0.352267 0.248532 0.708425 -0.026606
C72   C     C_R   0.647758 0.248395 0.291441 -0.029065
C73   C     C_R   0.035524 0.746057 0.070048 0.428293
C74   C     C_R   0.964597 0.745920 0.930150 0.428765
C75   C     C_R   0.535414 0.245926 0.069848 0.428410
C76   C     C_R   0.464489 0.246068 0.929950 0.428652
C77   C     C_R   0.638145 0.622053 0.455899 0.045681
C78   C     C_R   0.358831 0.620483 0.540801 0.042229
C79   C     C_R   0.140984 0.120580 0.458986 0.054891
C80   C     C_R   0.861679 0.121954 0.543915 0.032058
C81   C     C_R   0.655979 0.658048 0.499059 -0.074118
C82   C     C_R   0.344105 0.657929 0.501120 -0.064271
C83   C     C_R   0.155908 0.157934 0.498901 -0.077324
C84   C     C_R   0.844036 0.158044 0.500967 -0.060671
C85   C     C_R   0.635911 0.664033 0.536670 -0.188351
C86   C     C_R   0.367121 0.665016 0.467110 -0.187649
C87   C     C_R   0.133086 0.164948 0.533154 -0.187714
C88   C     C_R   0.864288 0.164102 0.463573 -0.188351
C89   C     C_R   0.690761 0.690686 0.500597 0.786801
C90   C     C_R   0.309262 0.690658 0.499426 0.779041
C91   C     C_R   0.190743 0.190659 0.500582 0.784334
C92   C     C_R   0.809245 0.190684 0.499413 0.781509
C93   C     C_R   0.604403 0.631426 0.537358 -0.186473
C94   C     C_R   0.398597 0.632429 0.466337 -0.185698
C95   C     C_R   0.101610 0.132357 0.533919 -0.189178
C96   C     C_R   0.895790 0.131496 0.462872 -0.183327
C97   C     C_R   0.591255 0.593471 0.498526 -0.140160
C98   C     C_R   0.408665 0.593286 0.501450 -0.113428
C99   C     C_R   0.091332 0.093293 0.498541 -0.138772
C100  C     C_R   0.908735 0.093458 0.501463 -0.114572
C101  C     C_R   0.605207 0.590583 0.454438 0.127398
C102  C     C_R   0.391688 0.588954 0.542215 0.036500
C103  C     C_R   0.108103 0.089054 0.457536 0.120715
C104  C     C_R   0.894586 0.090476 0.545338 0.044075
C105  C     C_3   0.634643 0.554856 0.447574 0.254312
C106  C     C_3   0.359366 0.553032 0.543389 0.216477
C107  C     C_3   0.140258 0.053138 0.456018 0.255628
C108  C     C_3   0.864969 0.054738 0.551865 0.213132
C109  C     C_3   0.670886 0.589618 0.449368 -0.473119
C110  C     C_3   0.323151 0.587841 0.541580 -0.458848
C111  C     C_3   0.176497 0.087946 0.457873 -0.474502
C112  C     C_3   0.828766 0.089509 0.550133 -0.457973
C113  C     C_R   0.440311 0.559178 0.500158 0.795904
C114  C     C_R   0.559694 0.559211 0.499833 0.791617
C115  C     C_R   0.940306 0.059209 0.500165 0.788994
C116  C     C_R   0.059692 0.059177 0.499840 0.798205
C117  C     C_R   0.940848 0.940612 0.500276 0.789587
C118  C     C_R   0.059985 0.940960 0.499845 0.796288
C119  C     C_R   0.440013 0.440958 0.500154 0.796939
C120  C     C_R   0.559153 0.440613 0.499724 0.789150
C121  C     C_R   0.815467 0.749376 0.632535 0.775628
C122  C     C_R   0.184490 0.749439 0.367509 0.766908
C123  C     C_R   0.315512 0.249441 0.632491 0.767085
C124  C     C_R   0.684534 0.249376 0.367465 0.775793
C125  C     C_R   0.623157 0.789843 0.252980 0.435609
C126  C     C_R   0.387246 0.787882 0.748295 0.423194
C127  C     C_R   0.112831 0.287912 0.251717 0.422846
C128  C     C_R   0.876871 0.289847 0.747021 0.436084
C129  C     C_R   0.586161 0.787575 0.181133 -0.192430
C130  C     C_R   0.422988 0.785234 0.820152 -0.199628
C131  C     C_R   0.077077 0.285268 0.179861 -0.198970
C132  C     C_R   0.913855 0.287579 0.818869 -0.192850
C133  C     C_R   0.572479 0.747721 0.146466 -0.024557
C134  C     C_R   0.426232 0.747661 0.854564 -0.024950
C135  C     C_R   0.073761 0.247672 0.145442 -0.023967
C136  C     C_R   0.927500 0.247730 0.853538 -0.025721
C137  C     C_R   0.596425 0.709493 0.184906 -0.118571
C138  C     C_R   0.393105 0.711856 0.815921 -0.129374
C139  C     C_R   0.106829 0.211842 0.184080 -0.130883
C140  C     C_R   0.903525 0.209505 0.815101 -0.117022
C141  C     C_R   0.633346 0.711171 0.256639 -0.219241
C142  C     C_R   0.357174 0.713769 0.744165 -0.220211
C143  C     C_R   0.142768 0.213752 0.255836 -0.219106
C144  C     C_R   0.866613 0.211182 0.743367 -0.221460
Cu1   Cu    Cu3+1 0.780910 0.719090 0.500000 0.986316
Cu2   Cu    Cu3+1 0.219090 0.719090 0.500000 1.059359
Cu3   Cu    Cu3+1 0.280910 0.219090 0.500000 1.058897
Cu4   Cu    Cu3+1 0.719090 0.219090 0.500000 0.986410
Cu5   Cu    Cu3+1 0.719070 0.780890 0.500010 1.042032
Cu6   Cu    Cu3+1 0.280930 0.780890 0.499990 1.046703
Cu7   Cu    Cu3+1 0.219070 0.280890 0.500010 1.048559
Cu8   Cu    Cu3+1 0.780930 0.280890 0.499990 1.039940
Cu9   Cu    Cu3+1 0.465760 0.500000 0.431570 1.044687
Cu10  Cu    Cu3+1 0.534240 0.500000 0.568430 1.040496
Cu11  Cu    Cu3+1 0.965760 1.000000 0.431570 1.050317
Cu12  Cu    Cu3+1 0.034240 0.000000 0.568430 1.036077
H1    H     H_    0.912356 0.773156 0.475636 0.101552
H2    H     H_    0.048315 0.825535 0.336817 0.085551
H3    H     H_    0.451425 0.325933 0.663481 0.088044
H4    H     H_    0.587789 0.273174 0.524631 0.101226
H5    H     H_    0.852654 0.754562 0.847030 0.160690
H6    H     H_    0.147927 0.750676 0.153396 0.159315
H7    H     H_    0.352080 0.250617 0.846602 0.159031
H8    H     H_    0.647358 0.254558 0.152976 0.160939
H9    H     H_    0.989669 0.737655 0.841704 0.168082
H10   H     H_    0.009900 0.742143 0.158303 0.170582
H11   H     H_    0.490115 0.242227 0.841691 0.170841
H12   H     H_    0.510336 0.237661 0.158289 0.167811
H13   H     H_    0.926103 0.739232 0.716536 0.161134
H14   H     H_    0.073446 0.743712 0.283445 0.152238
H15   H     H_    0.426562 0.243792 0.716546 0.153188
H16   H     H_    0.573897 0.239235 0.283457 0.160887
H17   H     H_    0.646881 0.692752 0.568050 0.156867
H18   H     H_    0.358516 0.694682 0.438459 0.158831
H19   H     H_    0.141846 0.194553 0.561993 0.159629
H20   H     H_    0.853466 0.192886 0.432362 0.156017
H21   H     H_    0.591181 0.635447 0.568887 0.159736
H22   H     H_    0.414179 0.637406 0.437559 0.155854
H23   H     H_    0.086187 0.137269 0.562889 0.156538
H24   H     H_    0.909164 0.135582 0.431515 0.158834
H25   H     H_    0.657531 0.532488 0.492448 0.056018
H26   H     H_    0.337201 0.532121 0.496771 0.090592
H27   H     H_    0.162445 0.032092 0.502488 0.074059
H28   H     H_    0.842076 0.032504 0.506822 0.073950
H29   H     H_    0.714879 0.587879 0.496255 0.181375
H30   H     H_    0.279901 0.587701 0.492957 0.183117
H31   H     H_    0.219789 0.087696 0.506415 0.180304
H32   H     H_    0.784800 0.087879 0.503161 0.184412
H33   H     H_    0.567882 0.817273 0.151939 0.202700
H34   H     H_    0.448851 0.812858 0.849733 0.206173
H35   H     H_    0.051264 0.312914 0.150286 0.206133
H36   H     H_    0.932157 0.317275 0.848062 0.202709
H37   H     H_    0.665072 0.593688 0.400556 0.242110
H38   H     H_    0.326680 0.590247 0.589061 0.242863
H39   H     H_    0.172852 0.090460 0.410318 0.245209
H40   H     H_    0.834486 0.093475 0.598898 0.239654
H41   H     H_    0.586892 0.678294 0.159609 0.173975
H42   H     H_    0.394649 0.682422 0.841088 0.174167
H43   H     H_    0.105231 0.182391 0.158909 0.172631
H44   H     H_    0.913029 0.178309 0.840400 0.176555
H45   H     H_    0.650894 0.681084 0.285073 0.172205
H46   H     H_    0.332414 0.685371 0.715919 0.183458
H47   H     H_    0.167479 0.185335 0.284081 0.182224
H48   H     H_    0.849042 0.181096 0.714936 0.173408
H49   H     H_    0.803507 0.896828 0.512116 0.174721
H50   H     H_    0.220358 0.859397 0.606493 0.189256
H51   H     H_    0.279842 0.359114 0.393357 0.189087
H52   H     H_    0.696392 0.396816 0.487698 0.174630
H53   H     H_    0.860024 0.953123 0.511945 0.154090
H54   H     H_    0.165748 0.917432 0.606905 0.173564
H55   H     H_    0.334427 0.417159 0.392925 0.173608
H56   H     H_    0.639871 0.453113 0.487855 0.155330
H57   H     H_    0.915301 0.857224 0.411828 0.235455
H58   H     H_    0.997625 0.861530 0.402535 0.214187
H59   H     H_    0.502401 0.361724 0.598001 0.213928
H60   H     H_    0.584842 0.357286 0.588351 0.235858
H61   H     H_    0.974382 0.828189 0.489930 0.202125
H62   H     H_    0.999209 0.886981 0.335014 0.198288
H63   H     H_    0.500510 0.387357 0.665176 0.201358
H64   H     H_    0.525751 0.328200 0.510332 0.201705
N1    N     N_R   0.511918 0.709079 0.034877 -0.223891
N2    N     N_R   0.477371 0.709069 0.966286 -0.221611
N3    N     N_R   0.022570 0.209075 0.033720 -0.221971
N4    N     N_R   0.988020 0.209084 0.965130 -0.222901
N5    N     N_R   0.486138 0.784449 0.966319 -0.213432
N6    N     N_R   0.520364 0.784476 0.034592 -0.209722
N7    N     N_R   0.979654 0.284491 0.965413 -0.209667
N8    N     N_R   0.013883 0.284464 0.033685 -0.213486
N9    N     N_R   0.020313 0.744778 0.964876 -0.226541
N10   N     N_R   0.979807 0.747079 0.035319 -0.224134
N11   N     N_R   0.520205 0.247105 0.964681 -0.223457
N12   N     N_R   0.479697 0.244770 0.035120 -0.227222
N13   N     N_R   0.055016 0.744879 0.033335 -0.230681
N14   N     N_R   0.945111 0.747050 0.966869 -0.228197
N15   N     N_R   0.554900 0.247072 0.033131 -0.227733
N16   N     N_R   0.444995 0.244873 0.966661 -0.231178
O1    O     O_R   0.821190 0.768980 0.500000 -0.587717
O2    O     O_R   0.178810 0.768980 0.500000 -0.504776
O3    O     O_R   0.321190 0.268980 0.500000 -0.504935
O4    O     O_R   0.678810 0.268980 0.500000 -0.587608
O5    O     O_R   0.483700 0.545120 0.557760 -0.554671
O6    O     O_R   0.516300 0.545120 0.442240 -0.540136
O7    O     O_R   0.983700 0.045120 0.557760 -0.553865
O8    O     O_R   0.016300 0.045120 0.442240 -0.540508
O9    O     O_R   0.925990 0.954920 0.442210 -0.585054
O10   O     O_R   0.074010 0.954920 0.557790 -0.598330
O11   O     O_R   0.425990 0.454920 0.442210 -0.598799
O12   O     O_R   0.574010 0.454920 0.557790 -0.584392
O13   O     O_R   0.983760 0.954940 0.557800 -0.542493
O14   O     O_R   0.016240 0.954940 0.442200 -0.551767
O15   O     O_R   0.483760 0.454940 0.557800 -0.551492
O16   O     O_R   0.516240 0.454940 0.442200 -0.543727
O17   O     O_R   0.768960 0.821170 0.500020 -0.574465
O18   O     O_R   0.231040 0.821170 0.499980 -0.573223
O19   O     O_R   0.268960 0.321170 0.500020 -0.572988
O20   O     O_R   0.731040 0.321170 0.499980 -0.574732
O21   O     O_R   0.726180 0.723900 0.400140 -0.576662
O22   O     O_R   0.273820 0.723900 0.599860 -0.593005
O23   O     O_R   0.226180 0.223900 0.400140 -0.593654
O24   O     O_R   0.773820 0.223900 0.599860 -0.576190
O25   O     O_R   0.673950 0.776090 0.400160 -0.526926
O26   O     O_R   0.326050 0.776090 0.599840 -0.503556
O27   O     O_R   0.173950 0.276090 0.400160 -0.503306
O28   O     O_R   0.826050 0.276090 0.599840 -0.527411
O29   O     O_R   0.731010 0.678810 0.499990 -0.589153
O30   O     O_R   0.268990 0.678810 0.500010 -0.586773
O31   O     O_R   0.231010 0.178810 0.499990 -0.587404
O32   O     O_R   0.768990 0.178810 0.500010 -0.588489
O33   O     O_R   0.678790 0.731000 0.500010 -0.586999
O34   O     O_R   0.321210 0.731000 0.499990 -0.585673
O35   O     O_R   0.178790 0.231000 0.500010 -0.584637
O36   O     O_R   0.821210 0.231000 0.499990 -0.588211
O37   O     O_R   0.826030 0.723890 0.599860 -0.588379
O38   O     O_R   0.173970 0.723890 0.400140 -0.564755
O39   O     O_R   0.326030 0.223890 0.599860 -0.564570
O40   O     O_R   0.673970 0.223890 0.400140 -0.588055
O41   O     O_R   0.773800 0.776080 0.599870 -0.583026
O42   O     O_R   0.226200 0.776080 0.400130 -0.586631
O43   O     O_R   0.273800 0.276080 0.599870 -0.586512
O44   O     O_R   0.726200 0.276080 0.400130 -0.583152
O45   O     O_R   0.425940 0.545090 0.442170 -0.591149
O46   O     O_R   0.574060 0.545090 0.557830 -0.589472
O47   O     O_R   0.925940 0.045090 0.442170 -0.587050
O48   O     O_R   0.074060 0.045090 0.557830 -0.594066
S1    S     S_3+6 0.640245 0.842049 0.291493 0.047855
O49   O     O_2   0.622625 0.876788 0.238819 -0.263524
O50   O     O_2   0.610928 0.849048 0.322094 -0.275152
O51   O     O_3   0.709024 0.845597 0.353618 -0.486892
H65   H     H_    0.715338 0.875620 0.371523 0.372926
S2    S     S_3+6 0.386084 0.837916 0.711465 0.023634
O52   O     O_2   0.414893 0.872950 0.765252 -0.268074
O53   O     O_2   0.415461 0.832101 0.680703 -0.260331
O54   O     O_3   0.320318 0.853405 0.649902 -0.558744
H66   H     H_    0.323191 0.879103 0.628104 0.380715
S3    S     S_3+6 0.114101 0.337976 0.288564 0.023966
O55   O     O_2   0.085393 0.373025 0.234794 -0.268094
O56   O     O_2   0.084686 0.332251 0.319293 -0.258962
O57   O     O_3   0.179900 0.353373 0.350160 -0.559298
H67   H     H_    0.177078 0.379116 0.371930 0.380836
S4    S     S_3+6 0.859840 0.342051 0.708505 0.047773
O58   O     O_2   0.877488 0.376801 0.761172 -0.263226
O59   O     O_2   0.889175 0.349000 0.677917 -0.276292
O60   O     O_3   0.791065 0.345636 0.646366 -0.486196
H68   H     H_    0.784820 0.375571 0.628170 0.372845
C145  C     C_3   0.770283 0.756330 0.711002 -0.815554
H69   H     H_    0.747439 0.729540 0.673289 0.218357
H70   H     H_    0.761309 0.754339 0.748198 0.228697
H71   H     H_    0.754626 0.788127 0.684389 0.256007
C146  C     C_3   0.230220 0.751708 0.289674 -0.823327
H72   H     H_    0.251379 0.724619 0.327206 0.217973
H73   H     H_    0.239236 0.748379 0.252644 0.228497
H74   H     H_    0.247676 0.783219 0.316643 0.255746
C147  C     C_3   0.269784 0.251631 0.710325 -0.824320
H75   H     H_    0.248656 0.224531 0.672807 0.217508
H76   H     H_    0.260774 0.248283 0.747358 0.228081
H77   H     H_    0.252288 0.283132 0.683339 0.256188
C148  C     C_3   0.729725 0.256322 0.289006 -0.814906
H78   H     H_    0.752566 0.229533 0.326723 0.218783
H79   H     H_    0.738703 0.254326 0.251813 0.229089
H80   H     H_    0.745383 0.288120 0.315616 0.255572
S5    S     S_3+6 0.590537 0.527854 0.366351 0.008240
O61   O     O_2   0.625444 0.500379 0.356015 -0.274962
O62   O     O_2   0.550262 0.499341 0.365418 -0.276533
O63   O     O_3   0.555408 0.564767 0.302820 -0.518812
H81   H     H_    0.532630 0.547444 0.259970 0.382415
S6    S     S_3+6 0.399715 0.523267 0.622420 0.033327
O64   O     O_2   0.361797 0.495143 0.626647 -0.228305
O65   O     O_2   0.440698 0.494805 0.624753 -0.283851
O66   O     O_3   0.433773 0.557514 0.689833 -0.488431
H82   H     H_    0.463297 0.570517 0.689691 0.354108
S7    S     S_3+6 0.099599 0.023669 0.376782 0.016412
O67   O     O_2   0.137358 0.996426 0.371112 -0.268403
O68   O     O_2   0.059547 0.994653 0.375532 -0.283296
O69   O     O_3   0.064265 0.058561 0.310318 -0.515698
H83   H     H_    0.043205 0.039931 0.268802 0.381750
S8    S     S_3+6 0.908780 0.027427 0.632916 0.025966
O70   O     O_2   0.873688 0.999107 0.641907 -0.234793
O71   O     O_2   0.949883 0.999430 0.634787 -0.276070
O72   O     O_3   0.942861 0.063697 0.697564 -0.489617
H84   H     H_    0.970544 0.077116 0.694247 0.352349
S9    S     S_3+6 0.829049 0.801315 0.365883 0.063580
O73   O     O_2   0.800150 0.844589 0.342904 -0.206336
O74   O     O_2   0.843025 0.788400 0.319471 -0.227257
O75   O     O_3   0.786463 0.763924 0.360120 -0.485722
H85   H     H_    0.807677 0.736385 0.375000 0.345184
S10   S     S_3+6 0.043279 0.781387 0.416145 0.025612
O76   O     O_2   0.069771 0.785433 0.491249 -0.250427
O77   O     O_2   0.982075 0.774151 0.376680 -0.256380
O78   O     O_3   0.070553 0.738471 0.404375 -0.486257
H86   H     H_    0.043812 0.731729 0.354713 0.340258
S11   S     S_3+6 0.456869 0.281567 0.584667 0.024958
O79   O     O_2   0.430631 0.285444 0.509621 -0.250920
O80   O     O_2   0.518120 0.274392 0.624462 -0.256771
O81   O     O_3   0.429530 0.238693 0.596427 -0.487676
H87   H     H_    0.456745 0.231426 0.645833 0.341434
S12   S     S_3+6 0.671124 0.301411 0.634282 0.064016
O82   O     O_2   0.699982 0.344701 0.657159 -0.205701
O83   O     O_2   0.657227 0.288519 0.680782 -0.226942
O84   O     O_3   0.713714 0.264030 0.640035 -0.485585
H88   H     H_    0.692563 0.236464 0.625337 0.345336

loop_
_geom_bond_atom_site_label_1
_geom_bond_atom_site_label_2
_ccdc_geom_bond_type
C99   C103  A    
C133  C137  A    
C55   C59   A    
S2    O54   S    
C38   H62   S    
C77   C101  A    
N3    N4    A    
C136  C140  A    
C135  C139  A    
C121  O41   A    
C122  O38   A    
C123  O43   A    
Cu6   O18   S    
C29   C33   A    
C100  C104  A    
C94   H22   S    
S6    O65   D    
Cu2   Cu6   S    
C114  O46   A    
O63   H81   S    
C12   C135  S    
C3    C19   S    
S6    O64   D    
C74   N14   A    
C16   C44   S    
Cu11  O8    S    
S9    O74   D    
C49   C69   A    
C40   H64   S    
C90   O34   A    
C100  C115  S    
C51   C71   A    
Cu4   O24   S    
C91   O31   A    
C2    O18   A    
Cu5   O25   S    
C128  S4    S    
C25   C29   A    
C125  S1    S    
C108  H28   S    
Cu1   O21   S    
C84   C88   A    
C28   C32   A    
C118  O14   A    
C99   C116  S    
Cu8   O20   S    
C62   C66   A    
Cu12  O13   S    
C109  H29   S    
C98   C102  A    
S12   O84   S    
C17   C21   A    
C86   H18   S    
C148  H80   S    
C19   C23   A    
C12   N3    A    
C13   C33   A    
C52   C72   A    
C78   C82   A    
O60   H68   S    
C16   C20   A    
C80   C112  S    
S6    O66   S    
C96   H24   S    
C129  C133  A    
C137  H41   S    
C125  C129  A    
Cu10  O46   S    
O57   H67   S    
S4    O58   D    
C127  S3    S    
C48   O24   A    
C23   H51   S    
Cu4   O4    S    
C120  O16   A    
S8    O70   D    
Cu2   O38   S    
C118  O10   A    
C57   C61   A    
C83   C91   S    
C56   H8    S    
C59   C63   A    
C39   H59   S    
C60   C64   A    
C115  O47   A    
C50   C70   A    
C55   H7    S    
S1    O50   D    
C11   C136  S    
C66   C70   A    
C49   C53   A    
N10   N14   A    
C95   C99   A    
Cu11  O47   S    
C127  C131  A    
C4    C20   S    
C61   C65   A    
S5    O61   D    
C107  H27   S    
O84   H88   S    
C126  C130  A    
C103  C107  S    
C9    N5    A    
Cu3   O39   S    
C130  H34   S    
C46   O22   A    
C143  H47   S    
C116  O8    A    
O78   H86   S    
S11   O79   D    
Cu6   O34   S    
C7    C143  A    
C124  O44   A    
S11   O81   S    
S3    O56   D    
N1    N2    A    
C64   C68   A    
C71   C123  S    
C43   H3    S    
C147  H76   S    
Cu5   O17   S    
N12   N16   A    
C22   H50   S    
C119  O11   A    
C45   O25   A    
C9    N2    A    
C8    C128  A    
Cu2   O2    S    
C145  H70   S    
C87   C95   A    
Cu4   O40   S    
C109  H37   S    
Cu5   O41   S    
C132  H36   S    
C51   C55   A    
S4    O60   S    
C106  S6    S    
C63   H11   S    
Cu10  O5    S    
C144  H48   S    
C79   C103  A    
S8    O72   S    
C122  O42   A    
C123  O39   A    
Cu11  O9    S    
C30   C34   A    
C76   N16   A    
C93   H21   S    
O69   H83   S    
C30   C118  S    
C1    O1    A    
C92   O32   A    
Cu3   Cu7   S    
O54   H66   S    
C119  O15   A    
C70   C122  S    
S10   O77   D    
C132  C136  A    
S5    O63   S    
C40   H60   S    
S12   O83   D    
C26   H54   S    
C77   C109  S    
C146  H74   S    
C62   H10   S    
C26   C30   A    
C52   C148  S    
Cu2   O22   S    
C4    O20   A    
C93   C97   A    
Cu11  Cu12  S    
S10   O78   S    
C21   C25   A    
C110  H30   S    
C114  O6    A    
C18   C22   A    
C107  C111  S    
Cu4   Cu8   S    
C14   C34   A    
C51   C147  S    
Cu3   O3    S    
C87   H19   S    
C1    C17   S    
C88   H20   S    
C13   C17   A    
C15   C43   S    
Cu12  O10   S    
C16   C36   A    
C140  H44   S    
C96   C100  A    
C61   H9    S    
N9    N13   A    
C75   N12   A    
S7    O69   S    
C50   C146  S    
C40   C44   S    
O75   H85   S    
C11   N7    A    
O81   H87   S    
C113  O45   A    
Cu1   O29   S    
C120  O12   A    
C105  H25   S    
C97   C114  S    
C59   C76   S    
C81   C85   A    
C111  H39   S    
C58   C62   A    
C83   C87   A    
C88   C96   A    
C25   H53   S    
C78   C102  A    
C10   C133  S    
C37   H61   S    
C80   C84   A    
C13   C41   S    
C130  C134  A    
C15   C19   A    
N11   N15   A    
C50   C54   A    
C80   C104  A    
C142  H46   S    
C38   H58   S    
C49   C145  S    
C54   C58   A    
C92   O36   A    
C12   N8    A    
C94   C98   A    
S2    O52   D    
C148  H79   S    
C112  H40   S    
C105  C109  S    
C126  S2    S    
C47   O23   A    
C6    C142  A    
C41   S9    S    
C73   N13   A    
Cu7   O27   S    
C81   C89   S    
Cu8   O28   S    
C105  S5    S    
C74   N9    A    
C42   H2    S    
C37   H57   S    
S4    O59   D    
Cu9   O16   S    
C24   C28   A    
C6    C126  A    
S8    O71   D    
C138  C142  A    
S3    O55   D    
Cu12  O48   S    
C117  O13   A    
C98   C113  S    
C82   C86   A    
C5    C45   S    
C24   H52   S    
C33   C37   S    
C108  C112  S    
C65   H13   S    
C7    C47   S    
C35   C39   S    
S7    O67   D    
C8    C48   S    
C112  H32   S    
S1    O49   D    
O72   H84   S    
C77   C81   A    
C72   C124  S    
C4    O4    A    
C31   C119  S    
Cu6   O26   S    
C41   H1    S    
C27   C31   A    
C44   H4    S    
C31   C35   A    
C116  O48   A    
C32   C36   A    
C104  C108  S    
C39   H63   S    
C137  C141  A    
C53   C57   A    
C140  C144  A    
C47   O27   A    
C11   N4    A    
S11   O80   D    
C45   O21   A    
C117  O9    A    
C28   H56   S    
C60   C75   S    
C111  H31   S    
C82   C90   S    
C108  S8    S    
Cu4   O32   S    
Cu5   O33   S    
C64   H12   S    
C79   C83   A    
C68   H16   S    
C147  H75   S    
C65   C69   A    
Cu9   O11   S    
C67   C71   A    
C121  O37   A    
C78   C110  S    
C56   C60   A    
C145  H69   S    
C22   C26   A    
Cu1   Cu5   S    
C3    O3    A    
C42   S10   S    
C2    C18   S    
O66   H82   S    
C14   C18   A    
C53   H5    S    
C146  H72   S    
Cu3   O23   S    
C89   O33   A    
C90   O30   A    
C141  H45   S    
C38   C42   S    
S1    O51   S    
C91   O35   A    
C139  H43   S    
Cu10  O15   S    
C21   H49   S    
Cu2   O30   S    
Cu7   O43   S    
C106  H26   S    
C86   C94   A    
C10   N1    A    
N7    N8    A    
S5    O62   D    
Cu1   O1    S    
C110  H38   S    
C85   H17   S    
C107  S7    S    
C23   C27   A    
Cu8   O44   S    
C89   O29   A    
C68   C72   A    
C14   C42   S    
C9    C134  S    
Cu9   O6    S    
C37   C41   S    
C44   S12   S    
C139  C143  A    
C32   C120  S    
C128  C132  A    
C15   C35   A    
C73   N10   A    
Cu11  O14   S    
S3    O57   S    
C101  C105  S    
C63   C67   A    
Cu9   O45   S    
C20   C24   A    
C36   C40   S    
Cu3   O31   S    
C2    O2    A    
C147  H77   S    
C39   C43   S    
C67   H15   S    
C29   C117  S    
C48   O28   A    
C129  H33   S    
C57   C74   S    
Cu1   O37   S    
Cu6   O42   S    
Cu12  O7    S    
C1    O17   A    
C131  C135  A    
C5    C141  A    
C85   C93   A    
C69   C121  S    
C145  H71   S    
C76   N11   A    
C27   H55   S    
N5    N6    A    
C8    C144  A    
C54   H6    S    
C75   N15   A    
S7    O68   D    
C115  O7    A    
C138  H42   S    
C95   H23   S    
Cu10  O12   S    
C113  O5    A    
C5    C125  A    
Cu7   O19   S    
C106  C110  S    
S9    O75   S    
C6    C46   S    
C34   C38   S    
C66   H14   S    
C134  C138  A    
C43   S11   S    
C131  H35   S    
C46   O26   A    
C84   C92   S    
C79   C111  S    
C7    C127  A    
O51   H65   S    
C124  O40   A    
Cu7   O35   S    
S10   O76   D    
C146  H73   S    
Cu8   O36   S    
S12   O82   D    
C102  C106  S    
S2    O53   D    
C148  H78   S    
C3    O19   A    
C10   N6    A    
S9    O73   D    
Cu9   Cu10  S    
C97   C101  A    
C52   C56   A    
C58   C73   S    
