data_mof_unit_30334.cif
_audit_creation_date              2012-12-10T17:32:58-0500
_audit_creation_method            fapswitch 2.2
_symmetry_space_group_name_H-M    P1
_symmetry_Int_Tables_number       1
_space_group_crystal_system       triclinic
_cell_length_a                    12.385962
_cell_length_b                    13.471517
_cell_length_c                    14.388153
_cell_angle_alpha                 93.893005
_cell_angle_beta                  107.544788
_cell_angle_gamma                 116.949818
_cell_volume                      1980.55432359

loop_
_atom_site_label
_atom_site_type_symbol
_atom_type_description
_atom_site_fract_x
_atom_site_fract_y
_atom_site_fract_z
_atom_type_partial_charge
C1    C     C_R   0.650184 0.712964 0.506888 0.779339
C2    C     C_R   0.832628 0.478173 0.915646 0.025666
C3    C     C_R   0.798657 0.514306 0.991795 0.072156
C4    C     C_R   0.943109 0.461439 0.943819 0.066652
C5    C     C_R   0.008975 0.471791 0.046804 0.041860
C6    C     C_R   0.951800 0.480952 0.115951 -0.230999
C7    C     C_R   0.849193 0.503999 0.089489 -0.020369
C8    C     C_R   0.995285 0.442247 0.873973 -0.197263
C9    C     C_R   0.095771 0.416761 0.901907 -0.212812
C10   C     C_R   0.160179 0.426075 0.002678 0.151292
C11   C     C_R   0.126357 0.466060 0.076894 0.048734
C12   C     C_R   0.615843 0.513327 0.686066 0.788776
C13   C     C_R   0.262463 0.401608 0.030586 -0.188613
C14   C     C_R   0.332493 0.417822 0.131707 -0.198726
C15   C     C_R   0.215224 0.504148 0.177633 -0.087434
C16   C     C_R   0.197301 0.967868 0.431727 -0.182800
C17   C     C_R   0.261576 0.166445 0.481010 -0.042032
C18   C     C_R   0.711707 0.916847 0.548219 -0.179447
C19   C     C_R   0.798476 0.032522 0.565246 -0.143025
C20   C     C_R   0.911331 0.067900 0.545002 -0.169449
C21   C     C_R   0.937517 0.987327 0.501938 0.083533
C22   C     C_R   0.843110 0.868985 0.476865 0.062350
C23   C     C_R   0.348049 0.286842 0.488911 0.815719
C24   C     C_R   0.054531 0.020303 0.483316 0.061005
C25   C     C_R   0.078285 0.935322 0.444574 0.103470
C26   C     C_R   0.980610 0.820195 0.414878 -0.062795
C27   C     C_R   0.861386 0.789881 0.422864 -0.236451
C28   C     C_R   0.148809 0.135565 0.501406 -0.217526
C29   C     C_R   0.287703 0.082476 0.449331 -0.189421
C30   C     C_R   0.734101 0.833706 0.507321 -0.093216
C31   C     C_R   0.253148 0.690734 0.652352 -0.278703
C32   C     C_R   0.652053 0.345075 0.361909 0.109962
C33   C     C_R   0.727967 0.320098 0.322033 -0.238781
C34   C     C_R   0.381892 0.484004 0.313578 0.804771
C35   C     C_R   0.863246 0.384326 0.367427 -0.160967
C36   C     C_R   0.926068 0.467238 0.459798 0.005800
C37   C     C_R   0.843308 0.494984 0.493261 0.294295
C38   C     C_R   0.066377 0.528799 0.516844 -0.058256
C39   C     C_R   0.118251 0.624045 0.597966 0.159490
C40   C     C_R   0.035595 0.652856 0.625259 -0.274847
C41   C     C_R   0.901485 0.588528 0.575544 -0.188487
C42   C     C_R   0.158865 0.500384 0.500763 0.120095
C43   C     C_R   0.338048 0.661828 0.629718 0.083354
C44   C     C_R   0.675948 0.512892 0.791930 -0.148874
C45   C     C_R   0.310382 0.469862 0.206301 -0.094886
C46   C     C_R   0.712188 0.557337 0.968371 -0.228724
C47   C     C_R   0.658095 0.564069 0.870994 -0.037511
C48   C     C_R   0.752424 0.458687 0.814893 -0.087744
Cu1   Cu    Cu3+1 0.416420 0.526630 0.522910 0.969708
Cu2   Cu    Cu3+1 0.583580 0.473370 0.477090 0.944108
H1    H     H_    0.375956 0.105038 0.434961 0.164116
H2    H     H_    0.219533 0.905317 0.404327 0.161834
H3    H     H_    0.135257 0.203660 0.528367 0.154218
H4    H     H_    0.780511 0.095596 0.597955 0.160422
H5    H     H_    0.783716 0.703700 0.384052 0.200700
H6    H     H_    0.075059 0.725456 0.687243 0.156476
H7    H     H_    0.292925 0.765291 0.712398 0.147736
H8    H     H_    0.682209 0.255533 0.252472 0.147229
H9    H     H_    0.846682 0.616851 0.602890 0.207195
H10   H     H_    0.406601 0.392792 0.151425 0.168794
H11   H     H_    0.690729 0.590888 0.026915 0.154133
H12   H     H_    0.985997 0.469553 0.190856 0.159731
H13   H     H_    0.961118 0.447594 0.797175 0.161340
N1    N     N_R   0.290690 0.566960 0.557640 -0.206429
N2    N     N_R   0.709100 0.433710 0.442970 -0.207665
O1    O     O_R   0.545970 0.684450 0.528810 -0.582948
O2    O     O_R   0.687130 0.639470 0.490120 -0.612354
O3    O     O_R   0.519670 0.535100 0.660030 -0.574473
O4    O     O_R   0.660830 0.490120 0.621340 -0.591836
O5    O     O_R   0.312870 0.360530 0.509880 -0.586097
O6    O     O_R   0.454030 0.315550 0.471190 -0.591735
O7    O     O_R   0.339170 0.509880 0.378660 -0.568032
O8    O     O_R   0.480330 0.464900 0.339970 -0.591087
C49   C     C_1   0.790329 0.509975 0.160979 0.243557
N3    N     N_1   0.740812 0.514892 0.216327 -0.298282
H14   H     H_    0.286723 0.368061 0.974131 0.141305
C50   C     C_1   0.001412 0.731454 0.376074 0.264144
N4    N     N_1   0.021313 0.662099 0.346329 -0.274830
H15   H     H_    0.628586 0.892695 0.570244 0.161469
H16   H     H_    0.975734 0.159207 0.565087 0.126409
H17   H     H_    0.442228 0.714888 0.669888 0.145855
C51   C     C_1   0.229372 0.598408 0.244879 0.264581
N5    N     N_1   0.242283 0.674350 0.298572 -0.263867
C52   C     C_1   0.117005 0.398612 0.428353 0.280174
N6    N     N_1   0.082906 0.316722 0.369690 -0.313979
H18   H     H_    0.546979 0.298358 0.324238 0.122940
H19   H     H_    0.913755 0.372544 0.323053 0.155920
H20   H     H_    0.127414 0.395125 0.844930 0.147143
C53   C     C_1   0.581277 0.620531 0.856262 0.272163
N7    N     N_1   0.520023 0.665982 0.846034 -0.310230
C54   C     C_1   0.724443 0.363766 0.739606 0.260100
N8    N     N_1   0.701571 0.287923 0.679567 -0.297814

loop_
_geom_bond_atom_site_label_1
_geom_bond_atom_site_label_2
_ccdc_geom_bond_type
C12   O4    A    
C33   H8    S    
Cu1   O3    S    
C42   N1    A    
C17   C29   A    
C35   C36   A    
C4    C8    A    
C50   N4    T    
C12   O3    A    
C26   C27   A    
C17   C23   S    
C31   C43   A    
C36   C37   A    
Cu2   O4    S    
C5    C11   A    
C3    C7    A    
C9    H20   S    
C5    C6    A    
C27   H5    S    
C18   C19   A    
C1    O2    A    
C35   H19   S    
C19   C20   A    
C8    C9    A    
C40   H6    S    
Cu1   O7    S    
C37   N2    A    
C18   C30   A    
C7    C49   S    
Cu2   O2    S    
C44   C47   A    
Cu1   N1    S    
C21   C22   A    
C47   C53   S    
C23   O5    A    
C11   C15   A    
C9    C10   A    
C43   N1    A    
C15   C51   S    
C14   C45   A    
C26   C50   S    
Cu1   O1    S    
C20   H16   S    
C46   H11   S    
C23   O6    A    
C42   C52   S    
C24   C25   A    
C41   H9    S    
C16   H2    S    
C49   N3    T    
Cu2   O8    S    
C54   N8    T    
C18   H15   S    
C34   O8    A    
C2    C48   A    
C16   C29   A    
C48   C54   S    
C2    C4    A    
Cu2   O6    S    
C13   H14   S    
C32   H18   S    
C1    O1    A    
C34   C45   S    
C52   N6    T    
C19   H4    S    
C40   C41   A    
Cu1   Cu2   S    
C22   C27   A    
C43   H17   S    
C15   C45   A    
C34   O7    A    
C39   C40   A    
C29   H1    S    
C16   C25   A    
C46   C47   A    
C22   C30   A    
C17   C28   A    
C24   C28   A    
C4    C5    A    
C10   C13   A    
C28   H3    S    
C38   C42   A    
C6    C7    A    
C14   H10   S    
C3    C46   A    
Cu1   O5    S    
C32   C33   A    
C6    H12   S    
C36   C38   A    
C2    C3    A    
C25   C26   A    
C12   C44   S    
C31   H7    S    
C38   C39   A    
C1    C30   S    
C33   C35   A    
C31   C39   A    
C37   C41   A    
Cu2   N2    S    
C10   C11   A    
C8    H13   S    
C20   C21   A    
C51   N5    T    
C21   C24   A    
C53   N7    T    
C13   C14   A    
C44   C48   A    
C32   N2    A    
