data_mof_unit_16988.cif
_audit_creation_date              2012-12-10T16:58:30-0500
_audit_creation_method            fapswitch 2.2
_symmetry_space_group_name_H-M    P1
_symmetry_Int_Tables_number       1
_space_group_crystal_system       triclinic
_cell_length_a                    7.834102
_cell_length_b                    8.555448
_cell_length_c                    23.334896
_cell_angle_alpha                 91.594777
_cell_angle_beta                  85.33902
_cell_angle_gamma                 93.743234
_cell_volume                      1555.1071768

loop_
_atom_site_label
_atom_site_type_symbol
_atom_type_description
_atom_site_fract_x
_atom_site_fract_y
_atom_site_fract_z
_atom_type_partial_charge
Br1   Br    Br    0.982778 0.787190 0.930326 -0.358796
Br2   Br    Br    0.980592 0.343067 0.070870 -0.374731
Br3   Br    Br    0.038968 0.307285 0.432275 -0.335902
Br4   Br    Br    0.961218 0.692935 0.567640 -0.343447
C1    C     C_R   0.545594 0.794459 0.498581 0.911917
C2    C     C_R   0.458429 0.380477 0.294455 -0.057678
C3    C     C_R   0.529827 0.669298 0.757975 0.014166
C4    C     C_R   0.455124 0.396185 0.235412 -0.058199
C5    C     C_R   0.502602 0.535514 0.791077 0.122627
C6    C     C_R   0.479762 0.543328 0.210457 0.209470
C7    C     C_2   0.569447 0.958208 0.497888 -0.338015
C8    C     C_2   0.430627 0.041826 0.502322 -0.362265
C9    C     C_R   0.501333 0.499822 0.610090 0.789638
C10   C     C_R   0.498743 0.501313 0.389931 0.803639
C11   C     C_R   0.331631 0.506199 0.124034 0.607876
C12   C     C_R   0.454428 0.205542 0.501441 0.926734
C13   C     C_R   0.639421 0.606992 0.877756 0.559456
C14   C     C_R   0.626260 0.601215 0.118061 0.608344
C15   C     C_R   0.343492 0.516499 0.883343 0.546336
C16   C     C_R   0.627965 0.613224 0.058626 -0.034343
C17   C     C_R   0.337346 0.515083 0.943135 -0.038452
C18   C     C_R   0.480181 0.562466 0.031127 -0.048774
C19   C     C_R   0.484613 0.566743 0.970743 -0.050334
C20   C     C_R   0.329622 0.504745 0.063781 -0.088667
C21   C     C_R   0.636499 0.620973 0.938027 -0.086726
C22   C     C_R   0.774221 0.675412 0.026542 -0.157684
C23   C     C_R   0.486863 0.384906 0.764932 0.007383
C24   C     C_R   0.189414 0.456964 0.975292 -0.160968
C25   C     C_R   0.779361 0.682236 0.966967 0.301481
C26   C     C_R   0.184830 0.448112 0.034806 0.302269
C27   C     C_2   0.493296 0.244146 0.800825 0.563165
C28   C     C_2   0.515209 0.837853 0.218385 0.553028
C29   C     C_2   0.429724 0.221058 0.675481 0.585544
C30   C     C_2   0.558967 0.804097 0.341632 0.422599
C31   C     C_2   0.578327 0.801719 0.664159 0.552607
C32   C     C_2   0.421222 0.223682 0.320286 0.512494
C33   C     C_R   0.509347 0.680221 0.244434 0.003931
C34   C     C_R   0.477294 0.372858 0.704701 -0.067016
C35   C     C_R   0.524230 0.664852 0.303818 -0.093289
C36   C     C_R   0.506540 0.509920 0.671959 -0.187891
C37   C     C_R   0.496167 0.515011 0.328309 -0.146853
C38   C     C_R   0.538370 0.657965 0.698327 -0.060967
H1    H     H_    0.885901 0.720220 0.047790 0.223914
H2    H     H_    0.479133 0.820568 0.381216 0.071463
H3    H     H_    0.553210 0.802926 0.619240 0.034879
H4    H     H_    0.446604 0.204297 0.364464 0.058767
H5    H     H_    0.077444 0.413081 0.954009 0.219999
H6    H     H_    0.545591 0.782736 0.779409 0.218604
H7    H     H_    0.432592 0.293610 0.208075 0.199211
H8    H     H_    0.700561 0.009314 0.493637 0.221026
H9    H     H_    0.299520 0.990694 0.506562 0.217358
H10   H     H_    0.453026 0.247490 0.846305 0.051200
H11   H     H_    0.591868 0.935628 0.235241 0.143999
H12   H     H_    0.481955 0.195911 0.631952 0.024154
N1    N     N_R   0.479034 0.551051 0.149345 -0.350403
N2    N     N_R   0.494815 0.554477 0.852227 -0.376038
N3    N     N_2   0.950330 0.457950 0.484560 0.080143
N4    N     N_2   0.049670 0.542050 0.515440 0.079163
O1    O     O_R   0.389250 0.738570 0.503790 -0.609111
O2    O     O_2   0.785509 0.639884 0.844547 -0.443856
O3    O     O_2   0.770451 0.639547 0.144696 -0.496132
O4    O     O_2   0.201043 0.475442 0.856109 -0.487100
O5    O     O_2   0.553160 0.124492 0.780736 -0.491146
O6    O     O_2   0.430825 0.861320 0.178071 -0.538299
O7    O     O_2   0.325505 0.125789 0.698734 -0.497166
O8    O     O_2   0.681127 0.897003 0.330233 -0.544217
O9    O     O_2   0.643729 0.920326 0.685640 -0.496801
O10   O     O_2   0.358465 0.114286 0.292698 -0.551268
O11   O     O_R   0.610750 0.261430 0.496210 -0.602781
O12   O     O_R   0.678390 0.711620 0.493890 -0.586737
O13   O     O_R   0.321610 0.288380 0.506110 -0.592150
O14   O     O_R   0.355400 0.513520 0.588790 -0.586221
O15   O     O_R   0.644600 0.486480 0.411210 -0.577637
O16   O     O_R   0.644550 0.486570 0.578900 -0.587125
O17   O     O_R   0.355450 0.513430 0.421100 -0.593782
O18   O     O_2   0.188197 0.466430 0.157644 -0.444898
Zn1   Zn    Zn3+2 0.306930 0.518000 0.506610 1.072610
Zn2   Zn    Zn3+2 0.693070 0.482000 0.493390 1.082675

loop_
_geom_bond_atom_site_label_1
_geom_bond_atom_site_label_2
_ccdc_geom_bond_type
C15   N2    A    
C24   H5    S    
O12   Zn2   S    
C27   H10   S    
C30   O8    D    
C29   O7    D    
C35   C37   A    
C1    O12   A    
C6    C33   A    
C15   C17   A    
C1    C7    S    
C23   C34   A    
C3    C38   A    
C31   C38   S    
C9    C36   S    
N4    Zn1   S    
C8    C12   S    
C2    C37   A    
O15   Zn2   S    
C32   H4    S    
C36   C38   A    
C11   O18   S    
O1    Zn1   S    
O11   Zn2   S    
C12   O13   A    
C22   H1    S    
C21   C25   A    
C1    O1    A    
C23   C27   S    
C30   C35   S    
C10   O15   A    
C27   O5    D    
C30   H2    S    
C28   O6    D    
C2    C4    A    
C11   N1    A    
O14   Zn1   S    
C31   O9    D    
Br1   C25   S    
C5    N2    S    
C28   C33   S    
C6    N1    S    
O17   Zn1   S    
C13   N2    A    
C14   N1    A    
C10   C37   S    
Br3   N3    S    
C11   C20   A    
C17   C24   A    
C16   C18   A    
C17   C19   A    
C18   C20   A    
C31   H3    S    
C28   H11   S    
O13   Zn1   S    
C8    H9    S    
C5    C23   A    
C29   H12   S    
C3    C5    A    
N3    Zn2   S    
C12   O11   A    
C7    C8    D    
C32   O10   D    
C14   O3    S    
C9    O14   A    
C29   C34   S    
Br2   C26   S    
C13   C21   A    
C10   O17   A    
C24   C26   A    
C33   C35   A    
C7    H8    S    
C3    H6    S    
C34   C36   A    
N3    N4    D    
C16   C22   A    
C2    C32   S    
C14   C16   A    
C19   C21   A    
C20   C26   A    
C13   O2    S    
C9    O16   A    
C22   C25   A    
C4    C6    A    
O16   Zn2   S    
Br4   N4    S    
C18   C19   A    
C15   O4    S    
C4    H7    S    
