data_mof_unit_54233.cif
_audit_creation_date              2012-12-10T17:30:28-0500
_audit_creation_method            fapswitch 2.2
_symmetry_space_group_name_H-M    P1
_symmetry_Int_Tables_number       1
_space_group_crystal_system       triclinic
_cell_length_a                    11.954307
_cell_length_b                    12.841448
_cell_length_c                    14.981515
_cell_angle_alpha                 90.324758
_cell_angle_beta                  85.954441
_cell_angle_gamma                 94.257888
_cell_volume                      2287.75902571

loop_
_atom_site_label
_atom_site_type_symbol
_atom_type_description
_atom_site_fract_x
_atom_site_fract_y
_atom_site_fract_z
_atom_type_partial_charge
C1    C     C_R   0.523265 0.700727 0.498562 0.928284
C2    C     C_R   0.364029 0.134382 0.470677 0.467416
C3    C     C_R   0.450524 0.866903 0.472459 -0.327755
C4    C     C_R   0.550278 0.133202 0.527936 -0.329290
C5    C     C_R   0.453221 0.973290 0.482728 0.119226
C6    C     C_R   0.547791 0.026673 0.517570 0.125271
C7    C     C_R   0.956039 0.418510 0.404550 -0.321205
C8    C     C_R   0.044129 0.583933 0.593914 -0.335465
C9    C     C_R   0.839268 0.424046 0.415289 0.020051
C10   C     C_R   0.160852 0.577414 0.583788 0.019331
C11   C     C_R   0.857372 0.533428 0.542434 -0.064269
C12   C     C_R   0.476889 0.299293 0.501388 0.922555
C13   C     C_R   0.142669 0.467008 0.457261 -0.066837
C14   C     C_R   0.975175 0.530074 0.534397 0.092921
C15   C     C_R   0.024945 0.471327 0.464675 0.086840
C16   C     C_R   0.499918 0.499928 0.673416 0.889991
C17   C     C_R   0.499900 0.499529 0.326635 0.892440
C18   C     C_R   0.589345 0.458928 0.180071 -0.219185
C19   C     C_R   0.406646 0.531730 0.820368 -0.214333
C20   C     C_R   0.499049 0.497210 0.230949 -0.085914
C21   C     C_R   0.498976 0.497436 0.769257 -0.078737
C22   C     C_R   0.406815 0.532005 0.190803 -0.222610
C23   C     C_R   0.313651 0.566363 0.964088 -0.325701
C24   C     C_R   0.589408 0.459112 0.809411 -0.242267
C25   C     C_R   0.404039 0.529768 0.098493 0.027783
C26   C     C_R   0.588349 0.454003 0.901955 0.006937
C27   C     C_R   0.495536 0.491159 0.046710 -0.005245
C28   C     C_R   0.495772 0.490668 0.953831 0.000271
C29   C     C_R   0.588084 0.455253 0.087877 0.076614
C30   C     C_R   0.404570 0.529181 0.912694 0.081857
C31   C     C_R   0.312002 0.565765 0.057311 0.458456
C32   C     C_R   0.678218 0.414049 0.943709 0.484795
C33   C     C_3   0.127644 0.543026 0.109254 0.062561
C34   C     C_R   0.678268 0.416899 0.036567 -0.319288
C35   C     C_3   0.041525 0.582708 0.179259 -0.301932
C36   C     C_3   0.928632 0.518984 0.178870 -0.985767
C37   C     C_3   0.748011 0.274335 0.868499 0.062374
C38   C     C_3   0.790666 0.200268 0.936104 -0.355259
C39   C     C_3   0.778389 0.087141 0.904328 -0.938011
C40   C     C_3   0.181039 0.174573 0.500385 0.087554
C41   C     C_3   0.077319 0.157214 0.446515 -0.327940
C42   C     C_3   0.968694 0.156111 0.506684 -0.989741
C43   C     C_3   0.827102 0.836477 0.509949 0.068538
C44   C     C_3   0.833621 0.783627 0.417751 -0.336565
C45   C     C_R   0.461263 0.187418 0.501518 -0.162992
C46   C     C_3   0.950763 0.802185 0.370702 -0.964661
C47   C     C_R   0.539629 0.812642 0.498356 -0.163358
C48   C     C_R   0.639248 0.973224 0.540521 -0.309937
C49   C     C_R   0.361627 0.026612 0.460070 -0.292627
C50   C     C_R   0.637780 0.865288 0.528481 0.491801
H1    H     H_    0.660064 0.431197 0.212217 0.154481
H2    H     H_    0.376996 0.825758 0.446567 0.181413
H3    H     H_    0.709903 0.014926 0.569795 0.143904
H4    H     H_    0.289162 0.985309 0.432906 0.151816
H5    H     H_    0.182497 0.421372 0.404748 0.147046
H6    H     H_    0.817500 0.578954 0.594998 0.156252
H7    H     H_    0.214160 0.618318 0.630018 0.132032
H8    H     H_    0.786058 0.383783 0.368646 0.133483
H9    H     H_    0.144254 0.461714 0.127514 0.130203
H10   H     H_    0.092035 0.542664 0.042544 0.155380
H11   H     H_    0.074054 0.578245 0.246769 0.222873
H12   H     H_    0.337106 0.561836 0.788305 0.151451
H13   H     H_    0.028736 0.665701 0.165092 0.231931
H14   H     H_    0.892384 0.526843 0.113231 0.275851
H15   H     H_    0.869297 0.548260 0.231960 0.273401
H16   H     H_    0.938961 0.435286 0.191805 0.255244
H17   H     H_    0.794232 0.263459 0.802519 0.168345
H18   H     H_    0.657351 0.253114 0.858693 0.122974
H19   H     H_    0.880718 0.222454 0.945566 0.232377
H20   H     H_    0.741967 0.206682 0.001585 0.214245
H21   H     H_    0.688667 0.062888 0.895608 0.267216
H22   H     H_    0.809476 0.035431 0.954806 0.267153
H23   H     H_    0.991947 0.373920 0.349569 0.142847
H24   H     H_    0.828395 0.077894 0.839781 0.262027
H25   H     H_    0.174533 0.246981 0.540863 0.172931
H26   H     H_    0.181440 0.107825 0.547925 0.113497
H27   H     H_    0.077777 0.220315 0.396131 0.226382
H28   H     H_    0.080320 0.081493 0.410416 0.212761
H29   H     H_    0.965780 0.092530 0.556947 0.255843
H30   H     H_    0.895330 0.142657 0.465447 0.265513
H31   H     H_    0.962675 0.232176 0.541741 0.277409
H32   H     H_    0.894210 0.808113 0.549218 0.165789
H33   H     H_    0.846094 0.922235 0.502780 0.128135
H34   H     H_    0.008225 0.630163 0.647872 0.150994
H35   H     H_    0.813637 0.698264 0.425382 0.252406
H36   H     H_    0.771275 0.814993 0.375384 0.209234
H37   H     H_    0.973312 0.887187 0.361962 0.263741
H38   H     H_    0.952143 0.764626 0.303769 0.268250
H39   H     H_    0.014067 0.767653 0.410169 0.267893
H40   H     H_    0.337710 0.561606 0.231738 0.196463
H41   H     H_    0.659920 0.432491 0.768271 0.186818
H42   H     H_    0.245004 0.597817 0.931974 0.157325
H43   H     H_    0.749016 0.389094 0.068441 0.160022
H44   H     H_    0.623566 0.174453 0.554103 0.178748
N1    N     N_R   0.207800 0.519350 0.516680 -0.103544
N2    N     N_R   0.792200 0.480650 0.483320 -0.111365
O1    O     O_R   0.421700 0.658830 0.504450 -0.633452
O2    O     O_3   0.770684 0.379607 0.894424 -0.650786
O3    O     O_3   0.278077 0.188242 0.440413 -0.638297
O4    O     O_3   0.722879 0.809212 0.558318 -0.637527
O5    O     O_R   0.578300 0.341170 0.495550 -0.632923
O6    O     O_R   0.609310 0.646410 0.493750 -0.589840
O7    O     O_R   0.390690 0.353590 0.506250 -0.589784
O8    O     O_R   0.406180 0.506230 0.637500 -0.636957
O9    O     O_R   0.593820 0.493770 0.362500 -0.639683
O10   O     O_R   0.593800 0.493820 0.626800 -0.624985
O11   O     O_R   0.406200 0.506180 0.373200 -0.627622
O12   O     O_3   0.226693 0.610291 0.108083 -0.647970
Zn1   Zn    Zn3+2 0.374730 0.508290 0.507150 0.949494
Zn2   Zn    Zn3+2 0.625270 0.491710 0.492850 0.944171

loop_
_geom_bond_atom_site_label_1
_geom_bond_atom_site_label_2
_ccdc_geom_bond_type
C11   N2    A    
C25   C31   A    
O9    Zn2   S    
C38   H20   S    
C26   C32   A    
C16   C21   S    
C27   C29   A    
C43   H33   S    
C41   C42   S    
C35   C36   S    
C34   H43   S    
C40   O3    S    
C7    H23   S    
C46   H39   S    
C42   H30   S    
C33   O12   S    
C6    C48   A    
C13   N1    A    
C5    C6    A    
C19   C21   A    
C24   C26   A    
C17   O11   A    
C41   H27   S    
C38   C39   S    
C11   C14   A    
C36   H16   S    
C19   H12   S    
C49   H4    S    
C37   H18   S    
C17   C20   S    
C9    H8    S    
C31   O12   S    
C39   H24   S    
C3    C47   A    
C16   O8    A    
C22   C25   A    
C39   H22   S    
C16   O10   A    
C48   C50   A    
C38   H19   S    
C42   H29   S    
C33   H9    S    
O11   Zn1   S    
C5    C49   A    
C42   H31   S    
C44   H36   S    
C37   O2    S    
C44   C46   S    
C18   H1    S    
C47   C50   A    
C46   H38   S    
C4    C45   A    
C2    C45   A    
C48   H3    S    
C23   C30   A    
C10   H7    S    
C43   O4    S    
C12   O7    A    
C4    C6    A    
N1    Zn1   S    
C1    O1    A    
C41   H28   S    
C36   H15   S    
C1    C47   S    
O5    Zn2   S    
N2    Zn2   S    
C29   C34   A    
C40   H26   S    
C32   C34   A    
C43   C44   S    
C37   C38   S    
C2    C49   A    
C17   O9    A    
O1    Zn1   S    
C14   C15   A    
C22   H40   S    
C35   H11   S    
C18   C29   A    
C9    N2    A    
C4    H44   S    
C40   C41   S    
C20   C22   A    
C2    O3    S    
C33   H10   S    
C13   C15   A    
O6    Zn2   S    
C44   H35   S    
C24   H41   S    
C46   H37   S    
O10   Zn2   S    
C7    C9    A    
C8    C14   A    
C8    H34   S    
C50   O4    S    
C12   C45   S    
C3    C5    A    
C3    H2    S    
C25   C27   A    
C26   C28   A    
C40   H25   S    
O7    Zn1   S    
C28   C30   A    
C12   O5    A    
O8    Zn1   S    
C10   N1    A    
C37   H17   S    
C7    C15   A    
C33   C35   S    
C32   O2    S    
C18   C20   A    
C8    C10   A    
C21   C24   A    
C27   C28   A    
C43   H32   S    
C39   H21   S    
C23   H42   S    
C35   H13   S    
C36   H14   S    
C19   C30   A    
C1    O6    A    
C11   H6    S    
C23   C31   A    
C13   H5    S    
