data_mof_unit_49090.cif
_audit_creation_date              2012-12-10T19:42:12-0500
_audit_creation_method            fapswitch 2.2
_symmetry_space_group_name_H-M    P1
_symmetry_Int_Tables_number       1
_space_group_crystal_system       triclinic
_cell_length_a                    10.832012
_cell_length_b                    10.916804
_cell_length_c                    9.672759
_cell_angle_alpha                 90.253651
_cell_angle_beta                  90.049503
_cell_angle_gamma                 90.299779
_cell_volume                      1143.78564493

loop_
_atom_site_label
_atom_site_type_symbol
_atom_type_description
_atom_site_fract_x
_atom_site_fract_y
_atom_site_fract_z
_atom_type_partial_charge
C1    C     C_R   0.493591 0.265521 0.499698 0.773124
C2    C     C_R   0.233808 0.720722 0.036083 -0.092319
C3    C     C_R   0.933443 0.542410 0.386705 -0.227031
C4    C     C_R   0.871607 0.493216 0.500754 -0.077240
C5    C     C_R   0.938511 0.447509 0.614787 0.023545
C6    C     C_R   0.066404 0.455471 0.613194 -0.202918
C7    C     C_R   0.128282 0.504954 0.499098 -0.077474
C8    C     C_R   0.061231 0.549924 0.384781 -0.004548
C9    C     C_R   0.883189 0.443845 0.865847 -0.264146
C10   C     C_R   0.820575 0.391504 0.977553 -0.243829
C11   C     C_R   0.753076 0.283111 0.959269 0.686376
C12   C     C_R   0.262276 0.503022 0.499740 0.834761
C13   C     C_R   0.748567 0.226591 0.829311 -0.177787
C14   C     C_R   0.811144 0.278594 0.717394 -0.210260
C15   C     C_R   0.878177 0.388165 0.734797 0.138678
C16   C     C_2   0.504323 0.933492 0.389883 -0.113250
C17   C     C_2   0.519692 0.866051 0.503079 -0.222603
C18   C     C_2   0.516262 0.066360 0.397401 -0.309851
C19   C     C_2   0.467042 0.135446 0.498931 0.289687
C20   C     C_2   0.428461 0.429294 0.921615 -0.049538
C21   C     C_2   0.431585 0.426292 0.077453 0.021899
C22   C     C_R   0.505013 0.734571 0.500394 0.831511
C23   C     C_R   0.737666 0.496420 0.500249 0.791009
C24   C     C_R   0.239255 0.777071 0.166027 -0.108804
C25   C     C_R   0.183027 0.721670 0.280036 -0.103113
C26   C     C_R   0.120480 0.609403 0.264305 0.121034
C27   C     C_R   0.114432 0.553812 0.133230 -0.158064
C28   C     C_R   0.171316 0.609280 0.019674 -0.154665
Cu1   Cu    Cu3+1 0.500020 0.500020 0.638630 0.986043
Cu2   Cu    Cu3+1 0.499980 0.499980 0.361370 0.978940
H1    H     H_    0.277886 0.763443 0.948093 0.161442
H2    H     H_    0.695912 0.142937 0.814919 0.171974
H3    H     H_    0.805836 0.234777 0.616849 0.140410
H4    H     H_    0.490369 0.891161 0.289277 0.167566
H5    H     H_    0.544079 0.908585 0.600949 0.191477
H6    H     H_    0.571608 0.108894 0.316940 0.200095
H7    H     H_    0.363455 0.368745 0.869707 0.180356
H8    H     H_    0.563729 0.552938 0.894315 0.195447
H9    H     H_    0.372462 0.360084 0.128617 0.155868
H10   H     H_    0.286835 0.863806 0.178303 0.145438
H11   H     H_    0.551694 0.564504 0.106310 0.186125
H12   H     H_    0.188266 0.765899 0.380348 0.148285
H13   H     H_    0.067147 0.466961 0.119585 0.135622
H14   H     H_    0.167499 0.565619 0.919069 0.135353
H15   H     H_    0.881911 0.579224 0.300240 0.155646
H16   H     H_    0.117892 0.419185 0.699945 0.165301
H17   H     H_    0.933121 0.529064 0.880551 0.159181
H18   H     H_    0.823541 0.435583 0.077983 0.159397
N1    N     N_2   0.498640 0.498660 0.846910 -0.288090
N2    N     N_2   0.498610 0.498630 0.153040 -0.272772
O1    O     O_R   0.500020 0.321960 0.617040 -0.532334
O2    O     O_R   0.499980 0.321920 0.382900 -0.576149
O3    O     O_R   0.319660 0.500030 0.617070 -0.574466
O4    O     O_R   0.319620 0.499990 0.382930 -0.573938
O5    O     O_R   0.500020 0.678080 0.617100 -0.571121
O6    O     O_R   0.499980 0.678040 0.382960 -0.588541
O7    O     O_R   0.680380 0.500010 0.617070 -0.573508
O8    O     O_R   0.680340 0.499970 0.382930 -0.576851
F1    F     F_    0.691538 0.233141 0.067410 -0.679718
S1    S     S_3+6 0.353186 0.083737 0.618472 -0.011946
O9    O     O_2   0.279878 0.978264 0.559961 -0.300749
O10   O     O_2   0.414878 0.045451 0.750550 -0.322637
O11   O     O_3   0.256392 0.199788 0.653500 -0.557491
H19   H     H_    0.201111 0.168423 0.726938 0.366166

loop_
_geom_bond_atom_site_label_1
_geom_bond_atom_site_label_2
_ccdc_geom_bond_type
C25   H12   S    
C23   O8    A    
C22   O6    A    
C22   O5    A    
C17   C22   S    
C19   S1    S    
Cu1   Cu2   S    
C8    C26   S    
C9    C10   A    
C13   H2    S    
Cu1   O5    S    
C12   O3    A    
C21   H9    S    
C14   H3    S    
Cu2   N2    S    
C7    C8    A    
H8    N1    S    
Cu1   N1    S    
C13   C14   A    
C24   C25   A    
S1    O10   D    
C10   H18   S    
C20   H7    S    
Cu2   O4    S    
C18   H6    S    
C26   C27   A    
C20   N1    D    
Cu1   O3    S    
S1    O9    D    
S1    O11   S    
C11   F1    S    
C5    C6    A    
Cu2   O8    S    
C17   H5    S    
C21   N2    D    
C24   H10   S    
Cu1   O7    S    
C9    H17   S    
C6    C7    A    
C3    C8    A    
C2    C24   A    
C7    C12   S    
C1    O2    A    
C5    C15   S    
C1    C19   S    
C10   C11   A    
C3    C4    A    
C27   H13   S    
H11   N2    S    
C11   C13   A    
C20   C21   S    
C28   H14   S    
C16   C18   S    
C18   C19   D    
Cu1   O1    S    
C27   C28   A    
C23   O7    A    
C4    C23   S    
Cu2   O2    S    
C14   C15   A    
C4    C5    A    
C2    C28   A    
C1    O1    A    
C6    H16   S    
C16   H4    S    
C25   C26   A    
C9    C15   A    
Cu2   O6    S    
C3    H15   S    
C12   O4    A    
O11   H19   S    
C16   C17   D    
C2    H1    S    
