data_mof_unit_25549.cif
_audit_creation_date              2013-03-05T16:12:12-0500
_audit_creation_method            fapswitch 2.2
_symmetry_space_group_name_H-M    P1
_symmetry_Int_Tables_number       1
_space_group_crystal_system       triclinic
_cell_length_a                    10.721613
_cell_length_b                    9.40341
_cell_length_c                    27.801428
_cell_angle_alpha                 90.16876
_cell_angle_beta                  90.21967
_cell_angle_gamma                 90.135886
_cell_volume                      2802.89155012

loop_
_atom_site_label
_atom_site_type_symbol
_atom_site_description
_atom_site_fract_x
_atom_site_fract_y
_atom_site_fract_z
_atom_type_partial_charge
O1    O     O_R   0.317570 0.620260 0.500030 -0.599159
O2    O     O_R   0.317570 0.379740 0.500030 -0.598119
C1    C     C_R   0.259731 0.499722 0.500325 0.771899
O3    O     O_R   0.499900 0.620250 0.430280 -0.588993
O4    O     O_R   0.499900 0.379750 0.430280 -0.594480
C2    C     C_R   0.499778 0.499764 0.407443 0.828692
Cu1   Cu    Cu3+1 0.499860 0.642410 0.500020 0.905630
Cu2   Cu    Cu3+1 0.499860 0.357590 0.500020 0.910870
O5    O     O_R   0.682190 0.620260 0.500010 -0.574809
O6    O     O_R   0.682190 0.379740 0.500010 -0.605736
O7    O     O_R   0.499860 0.620280 0.569750 -0.599713
O8    O     O_R   0.499860 0.379720 0.569750 -0.552641
C3    C     C_R   0.740089 0.500045 0.499916 0.829444
C4    C     C_R   0.499273 0.500265 0.592525 0.815957
C5    C     C_R   0.384394 0.498278 0.178080 0.578202
O9    O     O_2   0.277940 0.506975 0.203613 -0.499134
N1    N     N_R   0.495735 0.494002 0.202114 -0.479058
C6    C     C_R   0.606282 0.483567 0.178298 0.529588
C7    C     C_R   0.487723 0.625043 0.278490 -0.108419
C8    C     C_R   0.489245 0.626711 0.328674 -0.221617
C9    C     C_R   0.507572 0.369488 0.329184 -0.218943
C10   C     C_R   0.506495 0.368246 0.279057 -0.107200
C11   C     C_R   0.496447 0.495862 0.253630 0.360831
C12   C     C_R   0.495247 0.490227 0.101932 -0.102975
C13   C     C_R   0.381120 0.492966 0.127183 -0.097058
C14   C     C_R   0.268420 0.482875 0.101064 0.099583
C15   C     C_R   0.608193 0.481542 0.127947 0.015922
C16   C     C_R   0.499044 0.498795 0.354482 -0.035137
H1    H     H_    0.515296 0.269299 0.348047 0.142139
H2    H     H_    0.513300 0.268160 0.259893 0.130720
C17   C     C_R   0.500521 0.502234 0.645432 -0.146149
C18   C     C_R   0.386478 0.516352 0.973836 0.073754
C19   C     C_R   0.617071 0.513617 0.975447 -0.081905
C20   C     C_R   0.502777 0.516246 0.949424 0.015677
C21   C     C_R   0.277659 0.543411 0.946430 -0.182317
C22   C     C_R   0.279917 0.545745 0.896566 -0.183562
C23   C     C_R   0.392309 0.530773 0.872036 0.000489
C24   C     C_R   0.504488 0.522271 0.898317 -0.055096
C25   C     C_R   0.618243 0.521265 0.873349 -0.099608
C26   C     C_R   0.617610 0.517742 0.822811 0.568135
N2    N     N_R   0.507077 0.519543 0.798030 -0.453927
C27   C     C_R   0.395577 0.529170 0.821593 0.539342
C28   C     C_R   0.451736 0.396680 0.722815 -0.183487
C29   C     C_R   0.445307 0.392049 0.672563 0.402720
C30   C     C_R   0.556568 0.617719 0.669446 -0.297630
C31   C     C_R   0.559702 0.622888 0.719525 -0.100553
C32   C     C_R   0.507525 0.512342 0.746422 0.283394
O10   O     O_2   0.288206 0.537752 0.796258 -0.548973
C33   C     C_R   0.383123 0.497694 0.024699 -0.102609
C34   C     C_R   0.497138 0.495618 0.050785 0.013439
C35   C     C_R   0.613602 0.495350 0.026287 0.076220
C36   C     C_R   0.270313 0.473441 0.050647 0.349948
H3    H     H_    0.410320 0.311616 0.743587 0.163248
H4    H     H_    0.192990 0.561730 0.877342 0.194057
H5    H     H_    0.189281 0.567934 0.962485 0.213833
O11   O     O_2   0.714124 0.476070 0.203384 -0.534364
C37   C     C_R   0.720407 0.466171 0.103313 -0.184315
H6    H     H_    0.482310 0.727851 0.347189 0.141995
H7    H     H_    0.480063 0.723976 0.258879 0.131454
H8    H     H_    0.807512 0.450114 0.122423 0.188182
C38   C     C_R   0.729957 0.536755 0.949227 0.398498
C39   C     C_R   0.729791 0.530284 0.899130 -0.215279
O12   O     O_2   0.726431 0.511207 0.798675 -0.540819
C40   C     C_R   0.722500 0.468450 0.053528 -0.187200
H9    H     H_    0.598618 0.703981 0.649424 0.168907
H10   H     H_    0.817943 0.540739 0.880503 0.203805
H11   H     H_    0.602065 0.713322 0.737481 0.157605
H12   H     H_    0.810810 0.443727 0.037409 0.211525
C41   C     C_3   0.071887 0.592234 0.541771 -0.387070
C42   C     C_3   0.070928 0.345464 0.505265 -0.396980
H13   H     H_    0.102825 0.704483 0.537317 0.165183
H14   H     H_    0.103469 0.277609 0.474929 0.167204
H15   H     H_    0.109674 0.554199 0.576709 0.150569
H16   H     H_    0.106234 0.297455 0.539196 0.174876
C43   C     C_3   0.928307 0.587041 0.542991 -0.443017
C44   C     C_3   0.928310 0.345870 0.505871 -0.440413
H17   H     H_    0.897614 0.536289 0.577114 0.166264
H18   H     H_    0.895764 0.301832 0.540819 0.169665
H19   H     H_    0.890055 0.696748 0.543760 0.167167
H20   H     H_    0.892119 0.272563 0.477663 0.169710
H21   H     H_    0.114424 0.668597 0.445924 0.153465
H22   H     H_    0.110813 0.494381 0.421324 0.146238
C45   C     C_3   0.074488 0.560483 0.451441 -0.451128
C46   C     C_3   0.121962 0.499322 0.499842 0.131419
C47   C     C_3   0.878182 0.500298 0.499275 0.164421
C48   C     C_3   0.928646 0.565254 0.450625 0.353985
C49   C     C_3   0.620041 0.084240 0.519291 -0.190513
C50   C     C_3   0.619663 0.916667 0.519656 -0.191956
H23   H     H_    0.639350 0.125356 0.556143 0.149806
H24   H     H_    0.637401 0.877586 0.556786 0.137058
H25   H     H_    0.698357 0.120418 0.496269 0.139831
H26   H     H_    0.698650 0.879157 0.497245 0.161147
H27   H     H_    0.413084 0.122111 0.569569 0.199615
H28   H     H_    0.409252 0.876553 0.569195 0.154787
C51   C     C_3   0.400261 0.083840 0.532063 -0.196674
C52   C     C_3   0.399399 0.916141 0.531732 -0.193952
C53   C     C_3   0.480617 0.083185 0.452100 -0.186554
C54   C     C_3   0.481447 0.915923 0.452049 -0.183857
N3    N     N_3   0.500250 0.143650 0.501060 -0.116436
N4    N     N_3   0.500250 0.856350 0.501060 -0.113727
H29   H     H_    0.390582 0.121883 0.437067 0.137699
H30   H     H_    0.392182 0.875557 0.436614 0.135584
H31   H     H_    0.555247 0.121441 0.427622 0.142743
H32   H     H_    0.557102 0.878629 0.427849 0.150716
H33   H     H_    0.307593 0.122433 0.519854 0.135982
H34   H     H_    0.306865 0.878796 0.518646 0.137437
O13   O     O_3   0.841318 0.574213 0.971072 -0.593619
C55   C     C_3   0.838701 0.721259 0.981623 0.063769
H35   H     H_    0.759193 0.748337 0.005641 0.150367
H36   H     H_    0.831424 0.784722 0.947946 0.147072
C56   C     C_3   0.958735 0.762960 0.007410 -0.751667
H37   H     H_    0.039624 0.746477 0.983287 0.241245
H38   H     H_    0.955122 0.876948 0.017853 0.190793
H39   H     H_    0.970898 0.697609 0.040313 0.259027
N5    N     N_3   0.886090 0.713615 0.445362 -0.582850
H40   H     H_    0.911750 0.751867 0.411510 0.209429
H41   H     H_    0.931196 0.779755 0.470221 0.190856
N6    N     N_3   0.879741 0.482513 0.409460 -0.589194
H42   H     H_    0.920735 0.381917 0.408215 0.202233
H43   H     H_    0.905456 0.532172 0.377357 0.227650
N7    N     N_3   0.150836 0.474647 0.125489 -0.489449
H44   H     H_    0.093219 0.555602 0.112501 0.235110
H45   H     H_    0.108856 0.376908 0.117513 0.232133
O14   O     O_3   0.383362 0.279892 0.650744 -0.584575
C57   C     C_3   0.257133 0.318654 0.643976 0.068142
H46   H     H_    0.248529 0.386338 0.611452 0.129159
H47   H     H_    0.218023 0.377161 0.675515 0.160067
C58   C     C_3   0.178197 0.185549 0.636772 -0.807461
H48   H     H_    0.186632 0.115329 0.668675 0.261733
H49   H     H_    0.078827 0.215738 0.632004 0.201393
H50   H     H_    0.208757 0.126409 0.604364 0.222259
O15   O     O_3   0.160269 0.433991 0.028071 -0.598395
C59   C     C_3   0.165826 0.287610 0.016641 0.053916
H51   H     H_    0.181410 0.222385 0.049519 0.136487
H52   H     H_    0.241606 0.265547 0.990404 0.158731
C60   C     C_3   0.042707 0.242095 0.993964 -0.748166
H53   H     H_    0.023276 0.307120 0.961500 0.269813
H54   H     H_    0.047298 0.128290 0.983355 0.191420
H55   H     H_    0.965785 0.256184 0.020147 0.237556

loop_
_geom_bond_atom_site_label_1
_geom_bond_atom_site_label_2
_geom_bond_distance
_ccdc_geom_bond_type
C49   C50   1.575821 S    
C49   H25   1.111074 S    
N2    C27   1.368452 A    
C51   C52   1.576948 S    
C12   C15   1.410781 A    
C4    C17   1.470953 S    
C58   H48   1.110865 S    
C53   C54   1.572870 S    
Cu1   Cu2   2.678278 S    
C56   H38   1.110480 S    
C47   C48   1.582428 S    
Cu1   O7    1.950340 S    
N1    C11   1.432256 S    
C26   O12   1.349592 S    
C40   H12   1.074720 S    
C22   C23   1.394100 A    
Cu2   N3    2.012072 S    
C44   H18   1.114241 S    
O3    Cu1   1.949429 S    
O4    C2    1.296501 A    
O7    C4    1.295675 A    
C51   N3    1.488487 S    
C5    C13   1.416058 A    
N5    H40   1.046103 S    
C55   H35   1.114341 S    
C5    N1    1.366522 A    
C23   C27   1.402972 A    
C41   H13   1.113072 S    
O5    C3    1.290951 A    
N6    H42   1.044555 S    
C51   H33   1.110806 S    
H21   C45   1.113453 S    
C43   C47   1.555107 S    
C2    C16   1.472389 S    
C7    C8    1.395267 A    
C55   H36   1.114368 S    
O15   C59   1.413224 S    
N5    H41   1.044900 S    
C42   H16   1.112449 S    
C57   C58   1.521569 S    
O13   C55   1.413025 S    
C41   H15   1.111417 S    
C14   N7    1.436261 S    
C42   C46   1.553544 S    
C6    C15   1.400121 A    
C6    O11   1.350102 S    
C57   H46   1.110947 S    
H27   C51   1.110014 S    
C20   C24   1.422336 A    
C9    C10   1.393617 A    
C60   H55   1.110028 S    
C53   N3    1.487622 S    
C28   H3    1.083281 S    
N1    C6    1.363448 A    
C49   N3    1.489513 S    
C12   C34   1.423255 A    
C53   H31   1.112215 S    
C17   C29   1.413532 A    
C39   H10   1.083855 S    
C21   H5    1.074212 S    
C36   O15   1.383644 S    
C18   C21   1.415006 A    
C50   H26   1.110839 S    
C12   C13   1.413285 A    
C60   H54   1.110476 S    
C15   C37   1.394272 A    
C25   C26   1.405325 A    
C37   H8    1.083788 S    
C8    C16   1.406330 A    
C7    H7    1.082807 S    
C13   C14   1.410197 A    
C54   H30   1.112809 S    
C9    H1    1.082772 S    
C29   O14   1.382460 S    
C48   N5    1.476348 S    
O1    C1    1.290784 A    
C21   C22   1.386852 A    
C18   C20   1.421937 A    
C7    C11   1.399341 A    
C28   C29   1.399063 A    
C23   C24   1.407448 A    
C14   C36   1.404419 A    
C59   C60   1.520692 S    
C45   C46   1.549573 S    
Cu2   O8    1.949121 S    
C33   C36   1.428878 A    
C34   C35   1.424643 A    
N2    C32   1.436192 S    
C48   N6    1.475898 S    
C27   O10   1.349968 S    
H28   C52   1.111811 S    
C43   H17   1.113703 S    
N7    H44   1.045771 S    
C50   N4    1.489260 S    
O3    C2    1.297103 A    
C26   N2    1.368682 A    
C9    C16   1.406236 A    
C50   H24   1.112583 S    
H22   C45   1.113422 S    
C54   N4    1.487960 S    
C49   H23   1.112494 S    
C42   C44   1.529267 S    
C59   H51   1.114558 S    
C8    H6    1.082934 S    
C58   H50   1.108403 S    
C37   C40   1.384587 A    
C57   H47   1.117322 S    
Cu1   O5    1.966429 S    
C25   C39   1.394211 A    
C52   H34   1.111219 S    
C31   C32   1.399192 A    
C10   H2    1.082875 S    
C56   H37   1.109253 S    
O1    Cu1   1.965021 S    
O2    Cu2   1.966003 S    
C35   C40   1.412971 A    
C44   H20   1.110839 S    
O8    C4    1.296802 A    
C60   H53   1.110994 S    
O6    C3    1.289131 A    
C58   H49   1.110770 S    
O4    Cu2   1.950649 S    
Cu1   N4    2.011882 S    
C19   C35   1.424943 A    
C55   C56   1.520809 S    
O2    C1    1.288742 A    
C31   H11   1.082855 S    
C41   C46   1.552882 S    
C30   H9    1.083484 S    
C24   C25   1.405680 A    
C43   H19   1.111230 S    
C19   C38   1.431795 A    
C54   H32   1.112519 S    
C52   N4    1.489813 S    
C19   C20   1.420961 A    
C41   C43   1.540572 S    
C56   H39   1.110926 S    
C38   C39   1.393907 A    
C38   O13   1.381913 S    
N6    H43   1.046107 S    
C18   C33   1.425981 A    
N7    H45   1.045241 S    
C22   H4    1.083592 S    
C30   C31   1.393255 A    
C45   C48   1.564491 S    
Cu2   O6    1.965446 S    
C33   C34   1.419173 A    
C17   C30   1.405583 A    
C3    C47   1.480750 S    
C1    C46   1.477121 S    
C59   H52   1.113415 S    
C10   C11   1.398725 A    
C42   H14   1.113688 S    
C28   C32   1.400400 A    
C44   C47   1.560685 S    
C53   H29   1.112830 S    
C5    O9    1.348911 S    
O14   C57   1.414454 S    
