data_mof_unit_18839.cif
_audit_creation_date              2012-12-11T15:43:08-0500
_audit_creation_method            fapswitch 2.2
_symmetry_space_group_name_H-M    P1
_symmetry_Int_Tables_number       1
_space_group_crystal_system       triclinic
_cell_length_a                    19.067
_cell_length_b                    11.008436
_cell_length_c                    18.805228
_cell_angle_alpha                 90.137529
_cell_angle_beta                  89.683658
_cell_angle_gamma                 89.928014
_cell_volume                      3947.10219657

loop_
_atom_site_label
_atom_site_type_symbol
_atom_type_description
_atom_site_fract_x
_atom_site_fract_y
_atom_site_fract_z
_atom_type_partial_charge
Br1   Br    Br    0.619734 0.891830 0.600468 -0.557144
Br2   Br    Br    0.360849 0.732000 0.430314 -0.579461
Br3   Br    Br    0.119734 0.391820 0.600467 -0.557175
Br4   Br    Br    0.860852 0.232012 0.430312 -0.579473
Br5   Br    Br    0.677517 0.122676 0.866884 -0.528349
Br6   Br    Br    0.111680 0.059863 0.067395 -0.585723
Br7   Br    Br    0.177610 0.622810 0.866907 -0.528450
Br8   Br    Br    0.611793 0.560131 0.067464 -0.585400
C1    C     C_R   0.728308 0.374005 0.144109 0.563214
C2    C     C_R   0.942422 0.976620 0.051222 -0.066184
C3    C     C_R   0.742645 0.414804 0.579363 -0.012594
C4    C     C_R   0.713394 0.337135 0.360036 0.579919
C5    C     C_R   0.284720 0.341877 0.639888 0.576949
C6    C     C_R   0.213394 0.837134 0.360036 0.579913
C7    C     C_R   0.784721 0.841876 0.639888 0.576951
C8    C     C_R   0.561141 0.152956 0.360871 0.544813
C9    C     C_R   0.469499 0.156208 0.647876 0.556517
C10   C     C_R   0.061153 0.652955 0.360871 0.544809
C11   C     C_R   0.969499 0.656208 0.647876 0.556500
C12   C     C_R   0.741807 0.968777 0.353014 0.551241
C13   C     C_R   0.452878 0.492230 0.978736 -0.086946
C14   C     C_R   0.258170 0.971171 0.646354 0.548437
C15   C     C_R   0.241807 0.468777 0.353014 0.551240
C16   C     C_R   0.758170 0.471171 0.646354 0.548435
C17   C     C_R   0.497844 0.171049 0.924734 0.023947
C18   C     C_R   0.508057 0.159338 0.073097 -0.012505
C19   C     C_R   0.997915 0.671054 0.924701 0.023927
C20   C     C_R   0.008119 0.659354 0.073067 -0.012516
C21   C     C_R   0.486504 0.278404 0.966558 0.025231
C22   C     C_R   0.484775 0.268115 0.041615 0.020838
C23   C     C_R   0.986607 0.778425 0.966516 0.025187
C24   C     C_R   0.442385 0.476605 0.051298 -0.066246
C25   C     C_R   0.984867 0.768148 0.041574 0.020831
C26   C     C_R   0.524996 0.058757 0.030226 -0.168660
C27   C     C_R   0.519833 0.064531 0.957627 -0.139751
C28   C     C_R   0.025062 0.558763 0.030201 -0.168623
C29   C     C_R   0.019898 0.564530 0.957599 -0.139696
C30   C     C_3   0.953208 0.082088 0.572751 0.018561
C31   C     C_3   0.949472 0.086305 0.654175 -0.267157
C32   C     C_3   0.006662 0.165116 0.686633 -0.464496
C33   C     C_3   0.123183 0.190476 0.367759 0.008222
C34   C     C_3   0.079383 0.123239 0.311609 -0.257671
C35   C     C_R   0.751999 0.915137 0.924557 0.044438
C36   C     C_3   0.025855 0.208242 0.277738 -0.456672
C37   C     C_3   0.453216 0.582076 0.572749 0.018555
C38   C     C_3   0.449483 0.586276 0.654174 -0.267160
C39   C     C_3   0.506693 0.665041 0.686635 -0.464498
C40   C     C_3   0.623177 0.690475 0.367762 0.008213
C41   C     C_3   0.579381 0.623240 0.311608 -0.257655
C42   C     C_3   0.525850 0.708237 0.277740 -0.456656
C43   C     C_R   0.238672 0.900149 0.068812 0.011983
C44   C     C_R   0.252006 0.415148 0.924561 0.044344
C45   C     C_R   0.738717 0.400269 0.068844 0.011960
C46   C     C_R   0.786596 0.854151 0.978884 -0.008675
C47   C     C_R   0.292072 0.840094 0.031521 -0.016497
C48   C     C_R   0.286512 0.353983 0.978887 -0.008781
C49   C     C_R   0.269319 0.378475 0.853040 0.610838
C50   C     C_R   0.792082 0.340149 0.031539 -0.016438
C51   C     C_R   0.778146 0.888027 0.048653 0.026165
C52   C     C_R   0.296371 0.849116 0.958034 0.033765
C53   C     C_R   0.278076 0.387869 0.048675 0.026022
C54   C     C_R   0.796367 0.349156 0.958051 0.033713
C55   C     C_R   0.706246 0.057006 0.012375 -0.143973
C56   C     C_R   0.183077 0.944700 0.955572 -0.110960
C57   C     C_R   0.206349 0.557104 0.012376 -0.143919
C58   C     C_R   0.683119 0.444901 0.955621 -0.110992
C59   C     C_R   0.715466 0.022966 0.940691 0.121636
C60   C     C_R   0.228296 0.873975 0.144095 0.563192
C61   C     C_R   0.183029 0.953102 0.029023 0.127231
C62   C     C_R   0.215557 0.523060 0.940699 0.121663
C63   C     C_R   0.683096 0.453316 0.029069 0.127205
C64   C     C_3   0.787735 0.722309 0.996715 -0.272765
C65   C     C_3   0.369344 0.856480 0.039620 -0.279165
C66   C     C_3   0.287246 0.222093 0.996682 -0.272579
C67   C     C_3   0.869361 0.356439 0.039611 -0.279181
C68   C     C_3   0.778598 0.759774 0.074073 -0.249868
C69   C     C_3   0.373804 0.868021 0.959508 -0.254632
C70   C     C_3   0.278121 0.259570 0.074031 -0.249753
C71   C     C_R   0.769320 0.878467 0.853041 0.610841
C72   C     C_3   0.873805 0.367959 0.959497 -0.254655
C73   C     C_R   0.734531 0.984604 0.066824 -0.002096
C74   C     C_R   0.244013 0.908888 0.919438 0.019776
C75   C     C_R   0.234557 0.484611 0.066821 -0.002239
C76   C     C_R   0.744022 0.408977 0.919466 0.019656
C77   C     C_R   0.532477 0.154455 0.146473 0.539018
C78   C     C_R   0.468120 0.156724 0.853314 0.567138
C79   C     C_R   0.032492 0.654457 0.146461 0.539025
C80   C     C_R   0.968139 0.656725 0.853302 0.567046
C81   C     C_R   0.506727 0.157207 0.580407 0.043917
C82   C     C_R   0.475883 0.395221 0.936830 -0.064584
C83   C     C_R   0.542134 0.157579 0.435521 0.000619
C84   C     C_R   0.006729 0.657209 0.580408 0.043912
C85   C     C_R   0.042146 0.657577 0.435522 0.000620
C86   C     C_R   0.501169 0.053523 0.538267 0.086851
C87   C     C_R   0.521601 0.051530 0.468855 0.015884
C88   C     C_R   0.001174 0.553523 0.538268 0.086858
C89   C     C_R   0.021611 0.551529 0.468857 0.015888
C90   C     C_R   0.551407 0.261527 0.477176 -0.186726
C91   C     C_R   0.540114 0.258806 0.551224 -0.162799
C92   C     C_R   0.051411 0.761528 0.477176 -0.186722
C93   C     C_R   0.459449 0.366346 0.082959 -0.060773
C94   C     C_R   0.040114 0.758809 0.551223 -0.162802
C95   C     C_3   0.441124 0.970148 0.525930 -0.235278
C96   C     C_3   0.464434 0.966081 0.448990 -0.235635
C97   C     C_3   0.941130 0.470149 0.525928 -0.235278
C98   C     C_3   0.964445 0.466077 0.448990 -0.235626
C99   C     C_R   0.769288 0.872008 0.567016 0.062991
C100  C     C_R   0.226136 0.861815 0.434624 0.047935
C101  C     C_R   0.269288 0.372010 0.567017 0.062991
C102  C     C_R   0.726136 0.361817 0.434623 0.047942
C103  C     C_R   0.824052 0.862560 0.518804 -0.021440
C104  C     C_R   0.975982 0.895233 0.936774 -0.064522
C105  C     C_R   0.176325 0.929650 0.471735 -0.002848
C106  C     C_R   0.324051 0.362562 0.518804 -0.021438
C107  C     C_R   0.676325 0.429650 0.471735 -0.002848
C108  C     C_R   0.815396 0.871544 0.446665 -0.011927
C109  C     C_R   0.186067 0.958977 0.541034 -0.046974
C110  C     C_R   0.315395 0.371543 0.446665 -0.011925
C111  C     C_R   0.686067 0.458978 0.541034 -0.046978
C112  C     C_R   0.692332 0.908113 0.467788 -0.117844
C113  C     C_R   0.288250 0.832295 0.546682 -0.108909
C114  C     C_R   0.192331 0.408112 0.467788 -0.117845
C115  C     C_R   0.959525 0.866389 0.082902 -0.060743
C116  C     C_R   0.788252 0.332299 0.546681 -0.108909
C117  C     C_R   0.701083 0.887811 0.540458 0.125875
C118  C     C_R   0.282388 0.809925 0.473637 0.142847
C119  C     C_R   0.201082 0.387810 0.540458 0.125876
C120  C     C_R   0.782390 0.309930 0.473636 0.142848
C121  C     C_3   0.893619 0.921121 0.518369 0.158494
C122  C     C_3   0.139183 0.046995 0.456200 0.161077
C123  C     C_3   0.393620 0.421115 0.518368 0.158498
C124  C     C_3   0.639182 0.546994 0.456201 0.161076
C125  C     C_R   0.727656 0.020181 0.140425 0.558709
C126  C     C_R   0.952929 0.992235 0.978660 -0.086833
C127  C     C_R   0.257947 0.967453 0.851558 0.562727
C128  C     C_R   0.227661 0.520179 0.140424 0.558689
C129  C     C_R   0.757948 0.467468 0.851564 0.562742
C130  C     C_3   0.889021 0.916447 0.437425 -0.210958
C131  C     C_3   0.158558 0.085016 0.530910 -0.196463
C132  C     C_3   0.389022 0.416437 0.437423 -0.210953
C133  C     C_3   0.658558 0.585016 0.530910 -0.196466
C134  C     C_R   0.750622 0.910209 0.421125 0.028833
C135  C     C_R   0.242644 0.914802 0.579363 -0.012596
C136  C     C_R   0.250622 0.410209 0.421125 0.028833
Cr1   Cr    Cr6+3 0.772010 0.169670 0.250090 1.035411
Cr2   Cr    Cr6+3 0.383290 0.010760 0.749160 1.021685
Cr3   Cr    Cr6+3 0.116710 0.510760 0.250840 0.978898
Cr4   Cr    Cr6+3 0.883290 0.510760 0.749160 1.021642
Cr5   Cr    Cr6+3 0.227990 0.169670 0.749910 1.049380
Cr6   Cr    Cr6+3 0.272010 0.669670 0.250090 1.035405
Cr7   Cr    Cr6+3 0.727990 0.669670 0.749910 1.049439
Cr8   Cr    Cr6+3 0.615000 0.323260 0.249260 1.007400
Cr9   Cr    Cr6+3 0.385000 0.323260 0.750740 0.994028
Cr10  Cr    Cr6+3 0.115000 0.823260 0.249260 1.007406
Cr11  Cr    Cr6+3 0.885000 0.823260 0.750740 0.994014
Cr12  Cr    Cr6+3 0.616710 0.010760 0.250840 0.978974
H1    H     H_    0.544256 0.974453 0.052492 0.166266
H2    H     H_    0.986269 0.376707 0.432532 0.169202
H3    H     H_    0.389697 0.016159 0.533766 0.132593
H4    H     H_    0.486256 0.876711 0.432528 0.169210
H5    H     H_    0.447971 0.882807 0.554224 0.165637
H6    H     H_    0.425686 0.006618 0.411888 0.178366
H7    H     H_    0.947974 0.382810 0.554224 0.165631
H8    H     H_    0.925699 0.506611 0.411885 0.178379
H9    H     H_    0.640686 0.931186 0.448905 0.144921
H10   H     H_    0.332612 0.796393 0.575589 0.167280
H11   H     H_    0.140685 0.431183 0.448904 0.144918
H12   H     H_    0.530510 0.982766 0.927176 0.167332
H13   H     H_    0.832615 0.296399 0.575588 0.167277
H14   H     H_    0.930050 0.860920 0.545225 0.107270
H15   H     H_    0.081421 0.035937 0.450967 0.078528
H16   H     H_    0.430049 0.360911 0.545226 0.107266
H17   H     H_    0.581419 0.535935 0.450969 0.078527
H18   H     H_    0.894229 0.003743 0.409861 0.219323
H19   H     H_    0.201788 0.151909 0.532768 0.168010
H20   H     H_    0.394235 0.503732 0.409857 0.219315
H21   H     H_    0.701789 0.651908 0.532766 0.168009
H22   H     H_    0.923071 0.844760 0.413846 0.097276
H23   H     H_    0.044314 0.474449 0.052474 0.166185
H24   H     H_    0.112594 0.105767 0.564913 0.121445
H25   H     H_    0.423069 0.344743 0.413846 0.097270
H26   H     H_    0.612596 0.605770 0.564913 0.121444
H27   H     H_    0.487343 0.415182 0.881857 0.143859
H28   H     H_    0.451164 0.357966 0.139681 0.128617
H29   H     H_    0.987459 0.915175 0.881799 0.143791
H30   H     H_    0.951228 0.858026 0.139625 0.128600
H31   H     H_    0.943318 0.079882 0.954688 0.113778
H32   H     H_    0.923103 0.051186 0.083445 0.131649
H33   H     H_    0.443287 0.579892 0.954777 0.113813
H34   H     H_    0.030557 0.482754 0.927152 0.167276
H35   H     H_    0.423097 0.551178 0.083533 0.131667
H36   H     H_    0.676836 0.138383 0.025457 0.137702
H37   H     H_    0.140301 0.987713 0.927423 0.174536
H38   H     H_    0.176990 0.638546 0.025461 0.137691
H39   H     H_    0.640352 0.487966 0.927485 0.174608
H40   H     H_    0.338847 0.179013 0.985211 0.129252
H41   H     H_    0.895227 0.273175 0.060091 0.149438
H42   H     H_    0.839413 0.679676 0.985205 0.129390
H43   H     H_    0.395242 0.773238 0.060102 0.149449
H44   H     H_    0.741798 0.673829 0.974630 0.170949
H45   H     H_    0.560814 0.345167 0.450670 0.115219
H46   H     H_    0.383064 0.941667 0.068280 0.140818
H47   H     H_    0.241174 0.174038 0.974508 0.171210
H48   H     H_    0.883125 0.441610 0.068259 0.140856
H49   H     H_    0.727620 0.732032 0.097706 0.197439
H50   H     H_    0.388851 0.960723 0.942366 0.159169
H51   H     H_    0.227016 0.232338 0.097600 0.197588
H52   H     H_    0.888892 0.460633 0.942345 0.159230
H53   H     H_    0.825227 0.739190 0.107124 0.135015
H54   H     H_    0.403061 0.792580 0.933516 0.142740
H55   H     H_    0.324652 0.238473 0.107126 0.135108
H56   H     H_    0.547069 0.340267 0.582651 0.117606
H57   H     H_    0.903017 0.292477 0.933500 0.142718
H58   H     H_    0.961919 0.175090 0.552233 0.173892
H59   H     H_    0.999260 0.027978 0.554748 0.081215
H60   H     H_    0.897796 0.123765 0.671057 0.207213
H61   H     H_    0.954832 0.992862 0.675373 0.190769
H62   H     H_    0.059306 0.128281 0.673546 0.177485
H63   H     H_    0.000636 0.165964 0.745403 0.140887
H64   H     H_    0.001886 0.259856 0.667233 0.198086
H65   H     H_    0.153635 0.258288 0.338397 0.189021
H66   H     H_    0.088891 0.239446 0.406577 0.119487
H67   H     H_    0.060815 0.845168 0.450670 0.115217
H68   H     H_    0.114607 0.088627 0.268885 0.221054
H69   H     H_    0.050880 0.045333 0.335437 0.162561
H70   H     H_    0.988671 0.243119 0.318605 0.175256
H71   H     H_    0.995672 0.158046 0.236769 0.156780
H72   H     H_    0.052765 0.286062 0.251844 0.176566
H73   H     H_    0.461925 0.675085 0.552240 0.173886
H74   H     H_    0.499267 0.527970 0.554737 0.081221
H75   H     H_    0.397816 0.623773 0.671060 0.207188
H76   H     H_    0.454821 0.492824 0.675366 0.190815
H77   H     H_    0.559328 0.628166 0.673549 0.177468
H78   H     H_    0.047066 0.840271 0.582650 0.117603
H79   H     H_    0.500663 0.665889 0.745406 0.140904
H80   H     H_    0.501942 0.759788 0.667237 0.198097
H81   H     H_    0.653626 0.758296 0.338404 0.189031
H82   H     H_    0.588882 0.739437 0.406580 0.119482
H83   H     H_    0.614609 0.588639 0.268885 0.221089
H84   H     H_    0.550883 0.545326 0.335432 0.162559
H85   H     H_    0.488656 0.743087 0.318605 0.175242
H86   H     H_    0.495679 0.658048 0.236761 0.156780
H87   H     H_    0.552754 0.786075 0.251860 0.176606
H88   H     H_    0.889703 0.516160 0.533760 0.132595
O1    O     O_R   0.787520 0.042810 0.170440 -0.520604
O2    O     O_R   0.454050 0.051210 0.669140 -0.492161
O3    O     O_R   0.045950 0.551210 0.330860 -0.520966
O4    O     O_R   0.954050 0.551210 0.669140 -0.492177
O5    O     O_R   0.681390 0.959480 0.325510 -0.554377
O6    O     O_R   0.318610 0.959480 0.674490 -0.516170
O7    O     O_R   0.181390 0.459480 0.325510 -0.554380
O8    O     O_R   0.818610 0.459480 0.674490 -0.516172
O9    O     O_3   0.667900 0.167900 0.250060 -0.311530
O10   O     O_3   0.332100 0.167900 0.749940 -0.284719
O11   O     O_3   0.167900 0.667900 0.250060 -0.311522
O12   O     O_R   0.212480 0.042810 0.829560 -0.527421
O13   O     O_3   0.832100 0.667900 0.749940 -0.284718
O14   O     O_R   0.765640 0.292100 0.175020 -0.514460
O15   O     O_R   0.234360 0.292100 0.824980 -0.482220
O16   O     O_R   0.265640 0.792100 0.175020 -0.514462
O17   O     O_R   0.734360 0.792100 0.824980 -0.482153
O18   O     O_R   0.670190 0.408840 0.168540 -0.466006
O19   O     O_R   0.329810 0.408840 0.831460 -0.513554
O20   O     O_R   0.170190 0.908840 0.168540 -0.465997
O21   O     O_R   0.829810 0.908840 0.831460 -0.513569
O22   O     O_R   0.556620 0.251410 0.175160 -0.486830
O23   O     O_R   0.287520 0.542810 0.170440 -0.520574
O24   O     O_R   0.443380 0.251410 0.824840 -0.519922
O25   O     O_R   0.056620 0.751410 0.175160 -0.486803
O26   O     O_R   0.943380 0.751410 0.824840 -0.519913
O27   O     O_R   0.545960 0.049620 0.170320 -0.526195
O28   O     O_R   0.454040 0.049620 0.829680 -0.514892
O29   O     O_R   0.045960 0.549620 0.170320 -0.526191
O30   O     O_R   0.954040 0.549620 0.829680 -0.514926
O31   O     O_R   0.681390 0.958010 0.176690 -0.495215
O32   O     O_R   0.318610 0.958010 0.823310 -0.497525
O33   O     O_R   0.181390 0.458010 0.176690 -0.495362
O34   O     O_R   0.712480 0.542810 0.829560 -0.527373
O35   O     O_R   0.818610 0.458010 0.823310 -0.497530
O36   O     O_R   0.787510 0.044390 0.330970 -0.477940
O37   O     O_R   0.212490 0.044390 0.669030 -0.521677
O38   O     O_R   0.287510 0.544390 0.330970 -0.477934
O39   O     O_R   0.712490 0.544390 0.669030 -0.521687
O40   O     O_R   0.765630 0.293570 0.323840 -0.446421
O41   O     O_R   0.234370 0.293570 0.676160 -0.451090
O42   O     O_R   0.265630 0.793570 0.323840 -0.446418
O43   O     O_R   0.734370 0.793570 0.676160 -0.451091
O44   O     O_R   0.670190 0.410420 0.329080 -0.502904
O45   O     O_R   0.556610 0.252880 0.323980 -0.527827
O46   O     O_R   0.329810 0.410420 0.670920 -0.497064
O47   O     O_R   0.170190 0.910420 0.329080 -0.502904
O48   O     O_R   0.829810 0.910420 0.670920 -0.497060
O49   O     O_3   0.888393 0.040759 0.545547 -0.507098
O50   O     O_3   0.172634 0.115039 0.402258 -0.536895
O51   O     O_3   0.388399 0.540756 0.545543 -0.507090
O52   O     O_3   0.672631 0.615040 0.402259 -0.536892
O53   O     O_R   0.443390 0.252880 0.676020 -0.546499
O54   O     O_R   0.056610 0.752880 0.323980 -0.527810
O55   O     O_R   0.943390 0.752880 0.676020 -0.546490
O56   O     O_R   0.545950 0.051210 0.330860 -0.520984

loop_
_geom_bond_atom_site_label_1
_geom_bond_atom_site_label_2
_ccdc_geom_bond_type
C38   H75   S    
C78   O24   A    
Br5   C59   S    
C40   H81   S    
Cr5   O12   S    
C113  H10   S    
C81   C91   A    
C128  O23   A    
Cr2   O32   S    
C96   H6    S    
C66   H47   S    
C7    O48   A    
C26   C27   A    
C106  C123  S    
C81   C86   A    
C70   H51   S    
C123  C132  S    
C101  C119  A    
C130  H18   S    
C30   O49   S    
C23   C104  A    
C7    O43   A    
C30   H59   S    
C84   C94   A    
C107  C124  S    
C1    O14   A    
C32   H64   S    
C37   O51   S    
C109  C131  S    
C28   H23   S    
C34   C36   S    
C30   H58   S    
C110  C132  S    
Cr3   O33   S    
C39   H79   S    
C13   C82   A    
C17   C21   A    
C52   C69   S    
C95   H5    S    
C19   C23   A    
C9    C81   S    
C60   O16   A    
C112  C117  A    
Cr8   O22   S    
C124  O52   S    
C24   H35   S    
C100  C105  A    
C35   C46   A    
C121  O49   S    
C122  H15   S    
C132  H20   S    
C85   C92   A    
Cr11  O21   S    
C93   H28   S    
C4    O40   A    
C108  C134  A    
C5    O41   A    
C20   C25   A    
C94   H78   S    
C111  C133  S    
Cr4   O30   S    
C45   C63   A    
C104  H29   S    
C57   H38   S    
C97   C98   S    
C15   O38   A    
Cr9   O53   S    
Br8   C63   S    
C114  H11   S    
C104  C126  A    
Cr7   O43   S    
C45   C50   A    
Cr8   O44   S    
C122  O50   S    
Cr4   O35   S    
Cr1   O1    S    
Cr3   O11   S    
C43   C47   A    
C83   C90   A    
C36   H71   S    
C82   H27   S    
C8    C83   S    
C90   C91   A    
C65   C69   S    
C43   C61   A    
C100  C118  A    
C102  C120  A    
C39   H77   S    
Br6   C61   S    
C8    O45   A    
C3    C116  A    
C41   H83   S    
C4    C102  S    
Cr12  O27   S    
C54   C72   S    
C28   C29   A    
C14   O6    A    
C30   C31   S    
C57   C62   A    
Cr10  O47   S    
C84   C88   A    
C114  C119  A    
C5    C101  S    
C11   C84   S    
C10   O3    A    
C2    H32   S    
C127  O12   A    
C33   H66   S    
C40   O52   S    
C29   H34   S    
C5    O46   A    
C88   C89   A    
C34   H68   S    
C11   O4    A    
C46   C51   A    
C9    O53   A    
C105  C122  S    
C121  H14   S    
Cr9   O24   S    
C99   C117  A    
C42   H87   S    
C31   C32   S    
C92   H67   S    
C49   O15   A    
C21   C22   A    
Cr4   O8    S    
C13   H33   S    
C16   O39   A    
C1    O18   A    
C20   C79   S    
C27   H12   S    
C56   C61   A    
C75   C128  S    
Cr3   O29   S    
C101  C106  A    
C105  C109  A    
C69   H54   S    
C72   H52   S    
C76   C129  S    
C18   C22   A    
C107  C111  A    
C37   H74   S    
C85   C89   A    
C60   O20   A    
Cr11  O26   S    
Cr12  O9    S    
Cr7   O13   S    
Cr8   O18   S    
C124  C133  S    
C54   C76   A    
C129  O35   A    
Cr5   O37   S    
C38   H76   S    
C77   O22   A    
C31   H61   S    
C12   O36   A    
C40   H82   S    
C73   C125  S    
C72   H57   S    
C8    O56   A    
C116  C120  A    
C4    O44   A    
Cr6   O11   S    
C6    O42   A    
C18   C77   S    
C102  C107  A    
Cr9   O19   S    
Cr10  O20   S    
C83   C87   A    
C47   C65   S    
C26   H1    S    
Cr10  O54   S    
C35   C59   A    
C41   C42   S    
C6    O47   A    
C10   C85   S    
C24   C93   A    
C79   O29   A    
C36   H70   S    
C51   C68   S    
Cr2   O10   S    
C125  O1    A    
C50   C54   A    
C88   C97   S    
C125  O31   A    
Cr11  O48   S    
C33   C34   S    
C90   H45   S    
Cr4   O13   S    
C42   H85   S    
Br7   C62   S    
C58   H39   S    
C37   C38   S    
Cr3   O7    S    
C133  H21   S    
Cr7   O34   S    
Cr8   O9    S    
Cr11  O13   S    
Cr11  O55   S    
C7    C99   S    
C74   C127  S    
Cr5   O15   S    
C15   O7    A    
C103  C121  S    
C116  H13   S    
C97   H7    S    
C103  C108  A    
C98   H8    S    
Cr10  O11   S    
C6    C100  S    
C47   C52   A    
Cr1   O9    S    
C99   C103  A    
C96   H4    S    
C122  C131  S    
C21   C82   A    
C112  H9    S    
C67   H41   S    
C123  H16   S    
C48   C66   S    
Br4   C120  S    
C16   O8    A    
C2    C115  A    
C53   C75   A    
C58   C63   A    
C36   H72   S    
C17   C27   A    
C89   C98   S    
C80   O26   A    
C40   C41   S    
C55   C73   A    
C86   C95   S    
C10   O54   A    
C32   H63   S    
C71   O17   A    
C15   C136  S    
C1    C45   S    
C68   H49   S    
C39   H80   S    
C38   C39   S    
C49   O19   A    
Cr1   O14   S    
Cr12  O5    S    
C126  H31   S    
C51   C73   A    
C66   H40   S    
C65   H46   S    
Cr2   O2    S    
C77   O27   A    
C115  H30   S    
C78   O28   A    
C69   H50   S    
C12   O5    A    
C22   C93   A    
C86   C87   A    
C44   C49   S    
Cr7   O17   S    
C64   H42   S    
C20   C28   A    
C66   C70   S    
C95   C96   S    
C48   C53   A    
C70   H55   S    
C33   H65   S    
C55   H36   S    
C68   H53   S    
Cr9   O10   S    
C113  C135  A    
C131  H19   S    
Cr8   O45   S    
C114  C136  A    
C64   C68   S    
C3    C111  A    
C31   H60   S    
Cr2   O6    S    
C109  C135  A    
Br1   C117  S    
C127  O32   A    
C110  C136  A    
Br3   C119  S    
C57   C75   A    
C35   C71   S    
C3    C16   S    
Cr4   O4    S    
C133  H26   S    
Cr6   O38   S    
C80   O30   A    
Cr12  O31   S    
C131  H24   S    
Cr6   O16   S    
C52   C74   A    
C18   C26   A    
C121  C130  S    
C14   C135  S    
C23   C25   A    
Cr10  O25   S    
C67   C72   S    
Cr9   O46   S    
C97   H88   S    
C43   C60   S    
C33   O50   S    
Cr3   O3    S    
C37   H73   S    
C41   H84   S    
C50   C67   S    
C108  C130  S    
C91   H56   S    
C13   C24   A    
C55   C59   A    
C129  O34   A    
C12   C134  S    
C112  C134  A    
Cr5   O10   S    
C98   H2    S    
Cr7   O39   S    
C64   H44   S    
C53   C70   S    
C56   H37   S    
C92   C94   A    
C123  O51   S    
C56   C74   A    
C106  C110  A    
Br2   C118  S    
Cr1   O36   S    
C130  H22   S    
C87   C96   S    
C34   H69   S    
C32   H62   S    
Cr5   O41   S    
Cr12  O56   S    
C2    C126  A    
C42   H86   S    
C14   O37   A    
C67   H48   S    
Cr6   O42   S    
C132  H25   S    
Cr2   O28   S    
C128  O33   A    
C113  C118  A    
C79   O25   A    
C95   H3    S    
C9    O2    A    
C19   C29   A    
C65   H43   S    
C17   C78   S    
C71   O21   A    
C11   O55   A    
C124  H17   S    
C19   C80   S    
C44   C62   A    
C58   C76   A    
C46   C64   S    
C25   C115  A    
Cr1   O40   S    
Cr6   O23   S    
C44   C48   A    
